data_str_m3_o1_o2_pcu_sym.3
_audit_creation_date              2020-01-03
_audit_creation_method            'Materials Studio'
_symmetry_space_group_name_H-M    'P1'
_symmetry_Int_Tables_number       1
_symmetry_cell_setting            triclinic
loop_
_symmetry_equiv_pos_as_xyz
  x,y,z
_cell_length_a                    32.1604
_cell_length_b                    29.5057
_cell_length_c                    29.9650
_cell_angle_alpha                 89.9962
_cell_angle_beta                  90.1192
_cell_angle_gamma                 89.9901
loop_
_atom_site_label
_atom_site_type_symbol
_atom_site_fract_x
_atom_site_fract_y
_atom_site_fract_z
_atom_site_U_iso_or_equiv
_atom_site_adp_type
_atom_site_occupancy
C1     C     0.08662   0.16667   0.24996   0.00000  Uiso   1.00
C2     C     0.31204   0.20728   0.25765   0.00000  Uiso   1.00
C3     C     0.31203   0.12604   0.24240   0.00000  Uiso   1.00
C4     C     0.02131   0.20729   0.25760   0.00000  Uiso   1.00
C5     C     0.14771   0.20246   0.04694   0.00000  Uiso   1.00
C6     C     0.14774   0.13097   0.45298   0.00000  Uiso   1.00
C7     C     0.18583   0.20243   0.45302   0.00000  Uiso   1.00
C8     C     0.18581   0.13099   0.04705   0.00000  Uiso   1.00
C9     C     0.14801   0.20259   0.09304   0.00000  Uiso   1.00
C10    C     0.14808   0.13080   0.40690   0.00000  Uiso   1.00
C11    C     0.18545   0.20257   0.40692   0.00000  Uiso   1.00
C12    C     0.24672   0.16666   0.25003   0.00000  Uiso   1.00
C13    C     0.18539   0.13081   0.09314   0.00000  Uiso   1.00
C14    C     0.16667   0.16668   0.11603   0.00000  Uiso   1.00
C15    C     0.16675   0.16667   0.38397   0.00000  Uiso   1.00
C16    C     0.16679   0.16673   0.02403   0.00000  Uiso   1.00
C17    C     0.16679   0.16671   0.47597   0.00000  Uiso   1.00
C18    C     0.29086   0.16666   0.25004   0.00000  Uiso   1.00
C19    C     0.04247   0.16667   0.24996   0.00000  Uiso   1.00
C20    C     0.16665   0.16667   0.16391   0.00000  Uiso   1.00
C21    C     0.16670   0.16667   0.33609   0.00000  Uiso   1.00
C22    C     0.19316   0.02398   0.27706   0.00000  Uiso   1.00
C23    C     0.14017   0.30935   0.22293   0.00000  Uiso   1.00
C24    C     0.14017   0.02400   0.22294   0.00000  Uiso   1.00
C25    C     0.19316   0.30933   0.27707   0.00000  Uiso   1.00
C26    C     0.02129   0.12605   0.24235   0.00000  Uiso   1.00
F27    F     0.12842   0.23664   0.02469   0.00000  Uiso   1.00
F28    F     0.12842   0.09682   0.47517   0.00000  Uiso   1.00
F29    F     0.20515   0.23661   0.47524   0.00000  Uiso   1.00
F30    F     0.20515   0.09683   0.02491   0.00000  Uiso   1.00
H31    H     0.21434   0.04217   0.29869   0.00000  Uiso   1.00
H32    H     0.29584   0.23886   0.26387   0.00000  Uiso   1.00
H33    H     0.29581   0.09446   0.23623   0.00000  Uiso   1.00
H34    H     0.03752   0.23888   0.26377   0.00000  Uiso   1.00
H35    H     0.11901   0.29116   0.20129   0.00000  Uiso   1.00
H36    H     0.11899   0.04220   0.20131   0.00000  Uiso   1.00
H37    H     0.21433   0.29113   0.29871   0.00000  Uiso   1.00
H38    H     0.13313   0.23019   0.11073   0.00000  Uiso   1.00
H39    H     0.13321   0.10318   0.38915   0.00000  Uiso   1.00
H40    H     0.20031   0.23017   0.38920   0.00000  Uiso   1.00
H41    H     0.20023   0.10319   0.11091   0.00000  Uiso   1.00
H42    H     0.03749   0.09447   0.23613   0.00000  Uiso   1.00
N43    N     0.16667   0.28573   0.25000   0.00000  Uiso   1.00
N44    N     0.16667   0.04760   0.25000   0.00000  Uiso   1.00
O45    O     0.10559   0.20487   0.24999   0.00000  Uiso   1.00
O46    O     0.22774   0.12846   0.25000   0.00000  Uiso   1.00
O47    O     0.22774   0.20487   0.25000   0.00000  Uiso   1.00
O48    O     0.10559   0.12846   0.24999   0.00000  Uiso   1.00
O49    O     0.16666   0.20489   0.18453   0.00000  Uiso   1.00
O50    O     0.16667   0.12845   0.31547   0.00000  Uiso   1.00
O51    O     0.16667   0.20489   0.31547   0.00000  Uiso   1.00
O52    O     0.16666   0.12845   0.18453   0.00000  Uiso   1.00
Zn53   Zn    0.16667   0.21771   0.25000   0.00000  Uiso   1.00
Zn54   Zn    0.16667   0.11563   0.25000   0.00000  Uiso   1.00
C55    C     0.41995   0.16667   0.24996   0.00000  Uiso   1.00
C56    C     0.64538   0.20728   0.25765   0.00000  Uiso   1.00
C57    C     0.64536   0.12604   0.24240   0.00000  Uiso   1.00
C58    C     0.35464   0.20729   0.25760   0.00000  Uiso   1.00
C59    C     0.48104   0.20246   0.04694   0.00000  Uiso   1.00
C60    C     0.48107   0.13097   0.45298   0.00000  Uiso   1.00
C61    C     0.51916   0.20243   0.45302   0.00000  Uiso   1.00
C62    C     0.51914   0.13099   0.04705   0.00000  Uiso   1.00
C63    C     0.48135   0.20259   0.09304   0.00000  Uiso   1.00
C64    C     0.48142   0.13080   0.40690   0.00000  Uiso   1.00
C65    C     0.51879   0.20257   0.40692   0.00000  Uiso   1.00
C66    C     0.58005   0.16666   0.25003   0.00000  Uiso   1.00
C67    C     0.51872   0.13081   0.09314   0.00000  Uiso   1.00
C68    C     0.50000   0.16668   0.11603   0.00000  Uiso   1.00
C69    C     0.50008   0.16667   0.38397   0.00000  Uiso   1.00
C70    C     0.50012   0.16673   0.02403   0.00000  Uiso   1.00
C71    C     0.50012   0.16671   0.47597   0.00000  Uiso   1.00
C72    C     0.62420   0.16666   0.25004   0.00000  Uiso   1.00
C73    C     0.37580   0.16667   0.24996   0.00000  Uiso   1.00
C74    C     0.49998   0.16667   0.16391   0.00000  Uiso   1.00
C75    C     0.50003   0.16667   0.33609   0.00000  Uiso   1.00
C76    C     0.52650   0.02398   0.27706   0.00000  Uiso   1.00
C77    C     0.47351   0.30935   0.22293   0.00000  Uiso   1.00
C78    C     0.47350   0.02400   0.22294   0.00000  Uiso   1.00
C79    C     0.52649   0.30933   0.27707   0.00000  Uiso   1.00
C80    C     0.35462   0.12605   0.24235   0.00000  Uiso   1.00
F81    F     0.46175   0.23664   0.02469   0.00000  Uiso   1.00
F82    F     0.46175   0.09682   0.47517   0.00000  Uiso   1.00
F83    F     0.53848   0.23661   0.47524   0.00000  Uiso   1.00
F84    F     0.53848   0.09683   0.02491   0.00000  Uiso   1.00
H85    H     0.54767   0.04217   0.29869   0.00000  Uiso   1.00
H86    H     0.62918   0.23886   0.26387   0.00000  Uiso   1.00
H87    H     0.62915   0.09446   0.23623   0.00000  Uiso   1.00
H88    H     0.37085   0.23888   0.26377   0.00000  Uiso   1.00
H89    H     0.45234   0.29116   0.20129   0.00000  Uiso   1.00
H90    H     0.45232   0.04220   0.20131   0.00000  Uiso   1.00
H91    H     0.54766   0.29113   0.29871   0.00000  Uiso   1.00
H92    H     0.46646   0.23019   0.11073   0.00000  Uiso   1.00
H93    H     0.46654   0.10318   0.38915   0.00000  Uiso   1.00
H94    H     0.53364   0.23017   0.38920   0.00000  Uiso   1.00
H95    H     0.53357   0.10319   0.11091   0.00000  Uiso   1.00
H96    H     0.37082   0.09447   0.23613   0.00000  Uiso   1.00
N97    N     0.50000   0.28573   0.25000   0.00000  Uiso   1.00
N98    N     0.50000   0.04760   0.25000   0.00000  Uiso   1.00
O99    O     0.43892   0.20487   0.24999   0.00000  Uiso   1.00
O100   O     0.56108   0.12846   0.25000   0.00000  Uiso   1.00
O101   O     0.56108   0.20487   0.25000   0.00000  Uiso   1.00
O102   O     0.43892   0.12846   0.24999   0.00000  Uiso   1.00
O103   O     0.50000   0.20489   0.18453   0.00000  Uiso   1.00
O104   O     0.50000   0.12845   0.31547   0.00000  Uiso   1.00
O105   O     0.50000   0.20489   0.31547   0.00000  Uiso   1.00
O106   O     0.50000   0.12845   0.18453   0.00000  Uiso   1.00
Zn107  Zn    0.50000   0.21771   0.25000   0.00000  Uiso   1.00
Zn108  Zn    0.50000   0.11563   0.25000   0.00000  Uiso   1.00
C109   C     0.75328   0.16667   0.24996   0.00000  Uiso   1.00
C110   C     0.97871   0.20728   0.25765   0.00000  Uiso   1.00
C111   C     0.97869   0.12604   0.24240   0.00000  Uiso   1.00
C112   C     0.68797   0.20729   0.25760   0.00000  Uiso   1.00
C113   C     0.81438   0.20246   0.04694   0.00000  Uiso   1.00
C114   C     0.81440   0.13097   0.45298   0.00000  Uiso   1.00
C115   C     0.85250   0.20243   0.45302   0.00000  Uiso   1.00
C116   C     0.85247   0.13099   0.04705   0.00000  Uiso   1.00
C117   C     0.81468   0.20259   0.09304   0.00000  Uiso   1.00
C118   C     0.81475   0.13080   0.40690   0.00000  Uiso   1.00
C119   C     0.85212   0.20257   0.40692   0.00000  Uiso   1.00
C120   C     0.91338   0.16666   0.25003   0.00000  Uiso   1.00
C121   C     0.85205   0.13081   0.09314   0.00000  Uiso   1.00
C122   C     0.83334   0.16668   0.11603   0.00000  Uiso   1.00
C123   C     0.83342   0.16667   0.38397   0.00000  Uiso   1.00
C124   C     0.83345   0.16673   0.02403   0.00000  Uiso   1.00
C125   C     0.83346   0.16671   0.47597   0.00000  Uiso   1.00
C126   C     0.95753   0.16666   0.25004   0.00000  Uiso   1.00
C127   C     0.70914   0.16667   0.24996   0.00000  Uiso   1.00
C128   C     0.83331   0.16667   0.16391   0.00000  Uiso   1.00
C129   C     0.83337   0.16667   0.33609   0.00000  Uiso   1.00
C130   C     0.85983   0.02398   0.27706   0.00000  Uiso   1.00
C131   C     0.80684   0.30935   0.22293   0.00000  Uiso   1.00
C132   C     0.80684   0.02400   0.22294   0.00000  Uiso   1.00
C133   C     0.85983   0.30933   0.27707   0.00000  Uiso   1.00
C134   C     0.68795   0.12605   0.24235   0.00000  Uiso   1.00
F135   F     0.79508   0.23664   0.02469   0.00000  Uiso   1.00
F136   F     0.79509   0.09682   0.47517   0.00000  Uiso   1.00
F137   F     0.87181   0.23661   0.47524   0.00000  Uiso   1.00
F138   F     0.87181   0.09683   0.02491   0.00000  Uiso   1.00
H139   H     0.88101   0.04217   0.29869   0.00000  Uiso   1.00
H140   H     0.96251   0.23886   0.26387   0.00000  Uiso   1.00
H141   H     0.96248   0.09446   0.23623   0.00000  Uiso   1.00
H142   H     0.70419   0.23888   0.26377   0.00000  Uiso   1.00
H143   H     0.78567   0.29116   0.20129   0.00000  Uiso   1.00
H144   H     0.78566   0.04220   0.20131   0.00000  Uiso   1.00
H145   H     0.88100   0.29113   0.29871   0.00000  Uiso   1.00
H146   H     0.79980   0.23019   0.11073   0.00000  Uiso   1.00
H147   H     0.79988   0.10318   0.38915   0.00000  Uiso   1.00
H148   H     0.86697   0.23017   0.38920   0.00000  Uiso   1.00
H149   H     0.86690   0.10319   0.11091   0.00000  Uiso   1.00
H150   H     0.70415   0.09447   0.23613   0.00000  Uiso   1.00
N151   N     0.83333   0.28573   0.25000   0.00000  Uiso   1.00
N152   N     0.83333   0.04760   0.25000   0.00000  Uiso   1.00
O153   O     0.77226   0.20487   0.24999   0.00000  Uiso   1.00
O154   O     0.89441   0.12846   0.25000   0.00000  Uiso   1.00
O155   O     0.89441   0.20487   0.25000   0.00000  Uiso   1.00
O156   O     0.77226   0.12846   0.24999   0.00000  Uiso   1.00
O157   O     0.83333   0.20489   0.18453   0.00000  Uiso   1.00
O158   O     0.83334   0.12845   0.31547   0.00000  Uiso   1.00
O159   O     0.83334   0.20489   0.31547   0.00000  Uiso   1.00
O160   O     0.83333   0.12845   0.18453   0.00000  Uiso   1.00
Zn161  Zn    0.83333   0.21771   0.25000   0.00000  Uiso   1.00
Zn162  Zn    0.83333   0.11563   0.25000   0.00000  Uiso   1.00
C163   C     0.08662   0.50000   0.24996   0.00000  Uiso   1.00
C164   C     0.31204   0.54061   0.25765   0.00000  Uiso   1.00
C165   C     0.31203   0.45938   0.24240   0.00000  Uiso   1.00
C166   C     0.02131   0.54062   0.25760   0.00000  Uiso   1.00
C167   C     0.14771   0.53579   0.04694   0.00000  Uiso   1.00
C168   C     0.14774   0.46431   0.45298   0.00000  Uiso   1.00
C169   C     0.18583   0.53576   0.45302   0.00000  Uiso   1.00
C170   C     0.18581   0.46432   0.04705   0.00000  Uiso   1.00
C171   C     0.14801   0.53592   0.09304   0.00000  Uiso   1.00
C172   C     0.14808   0.46413   0.40690   0.00000  Uiso   1.00
C173   C     0.18545   0.53590   0.40692   0.00000  Uiso   1.00
C174   C     0.24672   0.50000   0.25003   0.00000  Uiso   1.00
C175   C     0.18539   0.46414   0.09314   0.00000  Uiso   1.00
C176   C     0.16667   0.50001   0.11603   0.00000  Uiso   1.00
C177   C     0.16675   0.50001   0.38397   0.00000  Uiso   1.00
C178   C     0.16679   0.50007   0.02403   0.00000  Uiso   1.00
C179   C     0.16679   0.50005   0.47597   0.00000  Uiso   1.00
C180   C     0.29086   0.49999   0.25004   0.00000  Uiso   1.00
C181   C     0.04247   0.50001   0.24996   0.00000  Uiso   1.00
C182   C     0.16665   0.50000   0.16391   0.00000  Uiso   1.00
C183   C     0.16670   0.50000   0.33609   0.00000  Uiso   1.00
C184   C     0.19316   0.35731   0.27706   0.00000  Uiso   1.00
C185   C     0.14017   0.64268   0.22293   0.00000  Uiso   1.00
C186   C     0.14017   0.35733   0.22294   0.00000  Uiso   1.00
C187   C     0.19316   0.64267   0.27707   0.00000  Uiso   1.00
C188   C     0.02129   0.45939   0.24235   0.00000  Uiso   1.00
F189   F     0.12842   0.56997   0.02469   0.00000  Uiso   1.00
F190   F     0.12842   0.43016   0.47517   0.00000  Uiso   1.00
F191   F     0.20515   0.56994   0.47524   0.00000  Uiso   1.00
F192   F     0.20515   0.43016   0.02491   0.00000  Uiso   1.00
H193   H     0.21434   0.37551   0.29869   0.00000  Uiso   1.00
H194   H     0.29584   0.57219   0.26387   0.00000  Uiso   1.00
H195   H     0.29581   0.42779   0.23623   0.00000  Uiso   1.00
H196   H     0.03752   0.57221   0.26377   0.00000  Uiso   1.00
H197   H     0.11901   0.62449   0.20129   0.00000  Uiso   1.00
H198   H     0.11899   0.37553   0.20131   0.00000  Uiso   1.00
H199   H     0.21433   0.62446   0.29871   0.00000  Uiso   1.00
H200   H     0.13313   0.56352   0.11073   0.00000  Uiso   1.00
H201   H     0.13321   0.43652   0.38915   0.00000  Uiso   1.00
H202   H     0.20031   0.56350   0.38920   0.00000  Uiso   1.00
H203   H     0.20023   0.43652   0.11091   0.00000  Uiso   1.00
H204   H     0.03749   0.42781   0.23613   0.00000  Uiso   1.00
N205   N     0.16667   0.61907   0.25000   0.00000  Uiso   1.00
N206   N     0.16667   0.38093   0.25000   0.00000  Uiso   1.00
O207   O     0.10559   0.53821   0.24999   0.00000  Uiso   1.00
O208   O     0.22774   0.46179   0.25000   0.00000  Uiso   1.00
O209   O     0.22774   0.53821   0.25000   0.00000  Uiso   1.00
O210   O     0.10559   0.46179   0.24999   0.00000  Uiso   1.00
O211   O     0.16666   0.53822   0.18453   0.00000  Uiso   1.00
O212   O     0.16667   0.46178   0.31547   0.00000  Uiso   1.00
O213   O     0.16667   0.53822   0.31547   0.00000  Uiso   1.00
O214   O     0.16666   0.46178   0.18453   0.00000  Uiso   1.00
Zn215  Zn    0.16667   0.55104   0.25000   0.00000  Uiso   1.00
Zn216  Zn    0.16667   0.44896   0.25000   0.00000  Uiso   1.00
C217   C     0.41995   0.50000   0.24996   0.00000  Uiso   1.00
C218   C     0.64538   0.54061   0.25765   0.00000  Uiso   1.00
C219   C     0.64536   0.45938   0.24240   0.00000  Uiso   1.00
C220   C     0.35464   0.54062   0.25760   0.00000  Uiso   1.00
C221   C     0.48104   0.53579   0.04694   0.00000  Uiso   1.00
C222   C     0.48107   0.46431   0.45298   0.00000  Uiso   1.00
C223   C     0.51916   0.53576   0.45302   0.00000  Uiso   1.00
C224   C     0.51914   0.46432   0.04705   0.00000  Uiso   1.00
C225   C     0.48135   0.53592   0.09304   0.00000  Uiso   1.00
C226   C     0.48142   0.46413   0.40690   0.00000  Uiso   1.00
C227   C     0.51879   0.53590   0.40692   0.00000  Uiso   1.00
C228   C     0.58005   0.50000   0.25003   0.00000  Uiso   1.00
C229   C     0.51872   0.46414   0.09314   0.00000  Uiso   1.00
C230   C     0.50000   0.50001   0.11603   0.00000  Uiso   1.00
C231   C     0.50008   0.50001   0.38397   0.00000  Uiso   1.00
C232   C     0.50012   0.50007   0.02403   0.00000  Uiso   1.00
C233   C     0.50012   0.50005   0.47597   0.00000  Uiso   1.00
C234   C     0.62420   0.49999   0.25004   0.00000  Uiso   1.00
C235   C     0.37580   0.50001   0.24996   0.00000  Uiso   1.00
C236   C     0.49998   0.50000   0.16391   0.00000  Uiso   1.00
C237   C     0.50003   0.50000   0.33609   0.00000  Uiso   1.00
C238   C     0.52650   0.35731   0.27706   0.00000  Uiso   1.00
C239   C     0.47351   0.64268   0.22293   0.00000  Uiso   1.00
C240   C     0.47350   0.35733   0.22294   0.00000  Uiso   1.00
C241   C     0.52649   0.64267   0.27707   0.00000  Uiso   1.00
C242   C     0.35462   0.45939   0.24235   0.00000  Uiso   1.00
F243   F     0.46175   0.56997   0.02469   0.00000  Uiso   1.00
F244   F     0.46175   0.43016   0.47517   0.00000  Uiso   1.00
F245   F     0.53848   0.56994   0.47524   0.00000  Uiso   1.00
F246   F     0.53848   0.43016   0.02491   0.00000  Uiso   1.00
H247   H     0.54767   0.37551   0.29869   0.00000  Uiso   1.00
H248   H     0.62918   0.57219   0.26387   0.00000  Uiso   1.00
H249   H     0.62915   0.42779   0.23623   0.00000  Uiso   1.00
H250   H     0.37085   0.57221   0.26377   0.00000  Uiso   1.00
H251   H     0.45234   0.62449   0.20129   0.00000  Uiso   1.00
H252   H     0.45232   0.37553   0.20131   0.00000  Uiso   1.00
H253   H     0.54766   0.62446   0.29871   0.00000  Uiso   1.00
H254   H     0.46646   0.56352   0.11073   0.00000  Uiso   1.00
H255   H     0.46654   0.43652   0.38915   0.00000  Uiso   1.00
H256   H     0.53364   0.56350   0.38920   0.00000  Uiso   1.00
H257   H     0.53357   0.43652   0.11091   0.00000  Uiso   1.00
H258   H     0.37082   0.42781   0.23613   0.00000  Uiso   1.00
N259   N     0.50000   0.61907   0.25000   0.00000  Uiso   1.00
N260   N     0.50000   0.38093   0.25000   0.00000  Uiso   1.00
O261   O     0.43892   0.53821   0.24999   0.00000  Uiso   1.00
O262   O     0.56108   0.46179   0.25000   0.00000  Uiso   1.00
O263   O     0.56108   0.53821   0.25000   0.00000  Uiso   1.00
O264   O     0.43892   0.46179   0.24999   0.00000  Uiso   1.00
O265   O     0.50000   0.53822   0.18453   0.00000  Uiso   1.00
O266   O     0.50000   0.46178   0.31547   0.00000  Uiso   1.00
O267   O     0.50000   0.53822   0.31547   0.00000  Uiso   1.00
O268   O     0.50000   0.46178   0.18453   0.00000  Uiso   1.00
Zn269  Zn    0.50000   0.55104   0.25000   0.00000  Uiso   1.00
Zn270  Zn    0.50000   0.44896   0.25000   0.00000  Uiso   1.00
C271   C     0.75328   0.50000   0.24996   0.00000  Uiso   1.00
C272   C     0.97871   0.54061   0.25765   0.00000  Uiso   1.00
C273   C     0.97869   0.45938   0.24240   0.00000  Uiso   1.00
C274   C     0.68797   0.54062   0.25760   0.00000  Uiso   1.00
C275   C     0.81438   0.53579   0.04694   0.00000  Uiso   1.00
C276   C     0.81440   0.46431   0.45298   0.00000  Uiso   1.00
C277   C     0.85250   0.53576   0.45302   0.00000  Uiso   1.00
C278   C     0.85247   0.46432   0.04705   0.00000  Uiso   1.00
C279   C     0.81468   0.53592   0.09304   0.00000  Uiso   1.00
C280   C     0.81475   0.46413   0.40690   0.00000  Uiso   1.00
C281   C     0.85212   0.53590   0.40692   0.00000  Uiso   1.00
C282   C     0.91338   0.50000   0.25003   0.00000  Uiso   1.00
C283   C     0.85205   0.46414   0.09314   0.00000  Uiso   1.00
C284   C     0.83334   0.50001   0.11603   0.00000  Uiso   1.00
C285   C     0.83342   0.50001   0.38397   0.00000  Uiso   1.00
C286   C     0.83345   0.50007   0.02403   0.00000  Uiso   1.00
C287   C     0.83346   0.50005   0.47597   0.00000  Uiso   1.00
C288   C     0.95753   0.49999   0.25004   0.00000  Uiso   1.00
C289   C     0.70914   0.50001   0.24996   0.00000  Uiso   1.00
C290   C     0.83331   0.50000   0.16391   0.00000  Uiso   1.00
C291   C     0.83337   0.50000   0.33609   0.00000  Uiso   1.00
C292   C     0.85983   0.35731   0.27706   0.00000  Uiso   1.00
C293   C     0.80684   0.64268   0.22293   0.00000  Uiso   1.00
C294   C     0.80684   0.35733   0.22294   0.00000  Uiso   1.00
C295   C     0.85983   0.64267   0.27707   0.00000  Uiso   1.00
C296   C     0.68795   0.45939   0.24235   0.00000  Uiso   1.00
F297   F     0.79508   0.56997   0.02469   0.00000  Uiso   1.00
F298   F     0.79509   0.43016   0.47517   0.00000  Uiso   1.00
F299   F     0.87181   0.56994   0.47524   0.00000  Uiso   1.00
F300   F     0.87181   0.43016   0.02491   0.00000  Uiso   1.00
H301   H     0.88101   0.37551   0.29869   0.00000  Uiso   1.00
H302   H     0.96251   0.57219   0.26387   0.00000  Uiso   1.00
H303   H     0.96248   0.42779   0.23623   0.00000  Uiso   1.00
H304   H     0.70419   0.57221   0.26377   0.00000  Uiso   1.00
H305   H     0.78567   0.62449   0.20129   0.00000  Uiso   1.00
H306   H     0.78566   0.37553   0.20131   0.00000  Uiso   1.00
H307   H     0.88100   0.62446   0.29871   0.00000  Uiso   1.00
H308   H     0.79980   0.56352   0.11073   0.00000  Uiso   1.00
H309   H     0.79988   0.43652   0.38915   0.00000  Uiso   1.00
H310   H     0.86697   0.56350   0.38920   0.00000  Uiso   1.00
H311   H     0.86690   0.43652   0.11091   0.00000  Uiso   1.00
H312   H     0.70415   0.42781   0.23613   0.00000  Uiso   1.00
N313   N     0.83333   0.61907   0.25000   0.00000  Uiso   1.00
N314   N     0.83333   0.38093   0.25000   0.00000  Uiso   1.00
O315   O     0.77226   0.53821   0.24999   0.00000  Uiso   1.00
O316   O     0.89441   0.46179   0.25000   0.00000  Uiso   1.00
O317   O     0.89441   0.53821   0.25000   0.00000  Uiso   1.00
O318   O     0.77226   0.46179   0.24999   0.00000  Uiso   1.00
O319   O     0.83333   0.53822   0.18453   0.00000  Uiso   1.00
O320   O     0.83334   0.46178   0.31547   0.00000  Uiso   1.00
O321   O     0.83334   0.53822   0.31547   0.00000  Uiso   1.00
O322   O     0.83333   0.46178   0.18453   0.00000  Uiso   1.00
Zn323  Zn    0.83333   0.55104   0.25000   0.00000  Uiso   1.00
Zn324  Zn    0.83333   0.44896   0.25000   0.00000  Uiso   1.00
C325   C     0.08662   0.83334   0.24996   0.00000  Uiso   1.00
C326   C     0.31204   0.87395   0.25765   0.00000  Uiso   1.00
C327   C     0.31203   0.79271   0.24240   0.00000  Uiso   1.00
C328   C     0.02131   0.87396   0.25760   0.00000  Uiso   1.00
C329   C     0.14771   0.86913   0.04694   0.00000  Uiso   1.00
C330   C     0.14774   0.79764   0.45298   0.00000  Uiso   1.00
C331   C     0.18583   0.86910   0.45302   0.00000  Uiso   1.00
C332   C     0.18581   0.79766   0.04705   0.00000  Uiso   1.00
C333   C     0.14801   0.86925   0.09304   0.00000  Uiso   1.00
C334   C     0.14808   0.79746   0.40690   0.00000  Uiso   1.00
C335   C     0.18545   0.86923   0.40692   0.00000  Uiso   1.00
C336   C     0.24672   0.83333   0.25003   0.00000  Uiso   1.00
C337   C     0.18539   0.79747   0.09314   0.00000  Uiso   1.00
C338   C     0.16667   0.83335   0.11603   0.00000  Uiso   1.00
C339   C     0.16675   0.83334   0.38397   0.00000  Uiso   1.00
C340   C     0.16679   0.83340   0.02403   0.00000  Uiso   1.00
C341   C     0.16679   0.83338   0.47597   0.00000  Uiso   1.00
C342   C     0.29086   0.83333   0.25004   0.00000  Uiso   1.00
C343   C     0.04247   0.83334   0.24996   0.00000  Uiso   1.00
C344   C     0.16665   0.83334   0.16391   0.00000  Uiso   1.00
C345   C     0.16670   0.83333   0.33609   0.00000  Uiso   1.00
C346   C     0.19316   0.69065   0.27706   0.00000  Uiso   1.00
C347   C     0.14017   0.97602   0.22293   0.00000  Uiso   1.00
C348   C     0.14017   0.69066   0.22294   0.00000  Uiso   1.00
C349   C     0.19316   0.97600   0.27707   0.00000  Uiso   1.00
C350   C     0.02129   0.79272   0.24235   0.00000  Uiso   1.00
F351   F     0.12842   0.90330   0.02469   0.00000  Uiso   1.00
F352   F     0.12842   0.76349   0.47517   0.00000  Uiso   1.00
F353   F     0.20515   0.90327   0.47524   0.00000  Uiso   1.00
F354   F     0.20515   0.76349   0.02491   0.00000  Uiso   1.00
H355   H     0.21434   0.70884   0.29869   0.00000  Uiso   1.00
H356   H     0.29584   0.90553   0.26387   0.00000  Uiso   1.00
H357   H     0.29581   0.76112   0.23623   0.00000  Uiso   1.00
H358   H     0.03752   0.90554   0.26377   0.00000  Uiso   1.00
H359   H     0.11901   0.95782   0.20129   0.00000  Uiso   1.00
H360   H     0.11899   0.70887   0.20131   0.00000  Uiso   1.00
H361   H     0.21433   0.95779   0.29871   0.00000  Uiso   1.00
H362   H     0.13313   0.89686   0.11073   0.00000  Uiso   1.00
H363   H     0.13321   0.76985   0.38915   0.00000  Uiso   1.00
H364   H     0.20031   0.89683   0.38920   0.00000  Uiso   1.00
H365   H     0.20023   0.76985   0.11091   0.00000  Uiso   1.00
H366   H     0.03749   0.76114   0.23613   0.00000  Uiso   1.00
N367   N     0.16667   0.95240   0.25000   0.00000  Uiso   1.00
N368   N     0.16667   0.71427   0.25000   0.00000  Uiso   1.00
O369   O     0.10559   0.87154   0.24999   0.00000  Uiso   1.00
O370   O     0.22774   0.79513   0.25000   0.00000  Uiso   1.00
O371   O     0.22774   0.87154   0.25000   0.00000  Uiso   1.00
O372   O     0.10559   0.79513   0.24999   0.00000  Uiso   1.00
O373   O     0.16666   0.87155   0.18453   0.00000  Uiso   1.00
O374   O     0.16667   0.79511   0.31547   0.00000  Uiso   1.00
O375   O     0.16667   0.87155   0.31547   0.00000  Uiso   1.00
O376   O     0.16666   0.79511   0.18453   0.00000  Uiso   1.00
Zn377  Zn    0.16667   0.88437   0.25000   0.00000  Uiso   1.00
Zn378  Zn    0.16667   0.78229   0.25000   0.00000  Uiso   1.00
C379   C     0.41995   0.83334   0.24996   0.00000  Uiso   1.00
C380   C     0.64538   0.87395   0.25765   0.00000  Uiso   1.00
C381   C     0.64536   0.79271   0.24240   0.00000  Uiso   1.00
C382   C     0.35464   0.87396   0.25760   0.00000  Uiso   1.00
C383   C     0.48104   0.86913   0.04694   0.00000  Uiso   1.00
C384   C     0.48107   0.79764   0.45298   0.00000  Uiso   1.00
C385   C     0.51916   0.86910   0.45302   0.00000  Uiso   1.00
C386   C     0.51914   0.79766   0.04705   0.00000  Uiso   1.00
C387   C     0.48135   0.86925   0.09304   0.00000  Uiso   1.00
C388   C     0.48142   0.79746   0.40690   0.00000  Uiso   1.00
C389   C     0.51879   0.86923   0.40692   0.00000  Uiso   1.00
C390   C     0.58005   0.83333   0.25003   0.00000  Uiso   1.00
C391   C     0.51872   0.79747   0.09314   0.00000  Uiso   1.00
C392   C     0.50000   0.83335   0.11603   0.00000  Uiso   1.00
C393   C     0.50008   0.83334   0.38397   0.00000  Uiso   1.00
C394   C     0.50012   0.83340   0.02403   0.00000  Uiso   1.00
C395   C     0.50012   0.83338   0.47597   0.00000  Uiso   1.00
C396   C     0.62420   0.83333   0.25004   0.00000  Uiso   1.00
C397   C     0.37580   0.83334   0.24996   0.00000  Uiso   1.00
C398   C     0.49998   0.83334   0.16391   0.00000  Uiso   1.00
C399   C     0.50003   0.83333   0.33609   0.00000  Uiso   1.00
C400   C     0.52650   0.69065   0.27706   0.00000  Uiso   1.00
C401   C     0.47351   0.97602   0.22293   0.00000  Uiso   1.00
C402   C     0.47350   0.69066   0.22294   0.00000  Uiso   1.00
C403   C     0.52649   0.97600   0.27707   0.00000  Uiso   1.00
C404   C     0.35462   0.79272   0.24235   0.00000  Uiso   1.00
F405   F     0.46175   0.90330   0.02469   0.00000  Uiso   1.00
F406   F     0.46175   0.76349   0.47517   0.00000  Uiso   1.00
F407   F     0.53848   0.90327   0.47524   0.00000  Uiso   1.00
F408   F     0.53848   0.76349   0.02491   0.00000  Uiso   1.00
H409   H     0.54767   0.70884   0.29869   0.00000  Uiso   1.00
H410   H     0.62918   0.90553   0.26387   0.00000  Uiso   1.00
H411   H     0.62915   0.76112   0.23623   0.00000  Uiso   1.00
H412   H     0.37085   0.90554   0.26377   0.00000  Uiso   1.00
H413   H     0.45234   0.95782   0.20129   0.00000  Uiso   1.00
H414   H     0.45232   0.70887   0.20131   0.00000  Uiso   1.00
H415   H     0.54766   0.95779   0.29871   0.00000  Uiso   1.00
H416   H     0.46646   0.89686   0.11073   0.00000  Uiso   1.00
H417   H     0.46654   0.76985   0.38915   0.00000  Uiso   1.00
H418   H     0.53364   0.89683   0.38920   0.00000  Uiso   1.00
H419   H     0.53357   0.76985   0.11091   0.00000  Uiso   1.00
H420   H     0.37082   0.76114   0.23613   0.00000  Uiso   1.00
N421   N     0.50000   0.95240   0.25000   0.00000  Uiso   1.00
N422   N     0.50000   0.71427   0.25000   0.00000  Uiso   1.00
O423   O     0.43892   0.87154   0.24999   0.00000  Uiso   1.00
O424   O     0.56108   0.79513   0.25000   0.00000  Uiso   1.00
O425   O     0.56108   0.87154   0.25000   0.00000  Uiso   1.00
O426   O     0.43892   0.79513   0.24999   0.00000  Uiso   1.00
O427   O     0.50000   0.87155   0.18453   0.00000  Uiso   1.00
O428   O     0.50000   0.79511   0.31547   0.00000  Uiso   1.00
O429   O     0.50000   0.87155   0.31547   0.00000  Uiso   1.00
O430   O     0.50000   0.79511   0.18453   0.00000  Uiso   1.00
Zn431  Zn    0.50000   0.88437   0.25000   0.00000  Uiso   1.00
Zn432  Zn    0.50000   0.78229   0.25000   0.00000  Uiso   1.00
C433   C     0.75328   0.83334   0.24996   0.00000  Uiso   1.00
C434   C     0.97871   0.87395   0.25765   0.00000  Uiso   1.00
C435   C     0.97869   0.79271   0.24240   0.00000  Uiso   1.00
C436   C     0.68797   0.87396   0.25760   0.00000  Uiso   1.00
C437   C     0.81438   0.86913   0.04694   0.00000  Uiso   1.00
C438   C     0.81440   0.79764   0.45298   0.00000  Uiso   1.00
C439   C     0.85250   0.86910   0.45302   0.00000  Uiso   1.00
C440   C     0.85247   0.79766   0.04705   0.00000  Uiso   1.00
C441   C     0.81468   0.86925   0.09304   0.00000  Uiso   1.00
C442   C     0.81475   0.79746   0.40690   0.00000  Uiso   1.00
C443   C     0.85212   0.86923   0.40692   0.00000  Uiso   1.00
C444   C     0.91338   0.83333   0.25003   0.00000  Uiso   1.00
C445   C     0.85205   0.79747   0.09314   0.00000  Uiso   1.00
C446   C     0.83334   0.83335   0.11603   0.00000  Uiso   1.00
C447   C     0.83342   0.83334   0.38397   0.00000  Uiso   1.00
C448   C     0.83345   0.83340   0.02403   0.00000  Uiso   1.00
C449   C     0.83346   0.83338   0.47597   0.00000  Uiso   1.00
C450   C     0.95753   0.83333   0.25004   0.00000  Uiso   1.00
C451   C     0.70914   0.83334   0.24996   0.00000  Uiso   1.00
C452   C     0.83331   0.83334   0.16391   0.00000  Uiso   1.00
C453   C     0.83337   0.83333   0.33609   0.00000  Uiso   1.00
C454   C     0.85983   0.69065   0.27706   0.00000  Uiso   1.00
C455   C     0.80684   0.97602   0.22293   0.00000  Uiso   1.00
C456   C     0.80684   0.69066   0.22294   0.00000  Uiso   1.00
C457   C     0.85983   0.97600   0.27707   0.00000  Uiso   1.00
C458   C     0.68795   0.79272   0.24235   0.00000  Uiso   1.00
F459   F     0.79508   0.90330   0.02469   0.00000  Uiso   1.00
F460   F     0.79509   0.76349   0.47517   0.00000  Uiso   1.00
F461   F     0.87181   0.90327   0.47524   0.00000  Uiso   1.00
F462   F     0.87181   0.76349   0.02491   0.00000  Uiso   1.00
H463   H     0.88101   0.70884   0.29869   0.00000  Uiso   1.00
H464   H     0.96251   0.90553   0.26387   0.00000  Uiso   1.00
H465   H     0.96248   0.76112   0.23623   0.00000  Uiso   1.00
H466   H     0.70419   0.90554   0.26377   0.00000  Uiso   1.00
H467   H     0.78567   0.95782   0.20129   0.00000  Uiso   1.00
H468   H     0.78566   0.70887   0.20131   0.00000  Uiso   1.00
H469   H     0.88100   0.95779   0.29871   0.00000  Uiso   1.00
H470   H     0.79980   0.89686   0.11073   0.00000  Uiso   1.00
H471   H     0.79988   0.76985   0.38915   0.00000  Uiso   1.00
H472   H     0.86697   0.89683   0.38920   0.00000  Uiso   1.00
H473   H     0.86690   0.76985   0.11091   0.00000  Uiso   1.00
H474   H     0.70415   0.76114   0.23613   0.00000  Uiso   1.00
N475   N     0.83333   0.95240   0.25000   0.00000  Uiso   1.00
N476   N     0.83333   0.71427   0.25000   0.00000  Uiso   1.00
O477   O     0.77226   0.87154   0.24999   0.00000  Uiso   1.00
O478   O     0.89441   0.79513   0.25000   0.00000  Uiso   1.00
O479   O     0.89441   0.87154   0.25000   0.00000  Uiso   1.00
O480   O     0.77226   0.79513   0.24999   0.00000  Uiso   1.00
O481   O     0.83333   0.87155   0.18453   0.00000  Uiso   1.00
O482   O     0.83334   0.79511   0.31547   0.00000  Uiso   1.00
O483   O     0.83334   0.87155   0.31547   0.00000  Uiso   1.00
O484   O     0.83333   0.79511   0.18453   0.00000  Uiso   1.00
Zn485  Zn    0.83333   0.88437   0.25000   0.00000  Uiso   1.00
Zn486  Zn    0.83333   0.78229   0.25000   0.00000  Uiso   1.00
C487   C     0.08662   0.16667   0.74996   0.00000  Uiso   1.00
C488   C     0.31204   0.20728   0.75765   0.00000  Uiso   1.00
C489   C     0.31203   0.12604   0.74240   0.00000  Uiso   1.00
C490   C     0.02131   0.20729   0.75760   0.00000  Uiso   1.00
C491   C     0.14771   0.20246   0.54694   0.00000  Uiso   1.00
C492   C     0.14774   0.13097   0.95298   0.00000  Uiso   1.00
C493   C     0.18583   0.20243   0.95302   0.00000  Uiso   1.00
C494   C     0.18581   0.13099   0.54705   0.00000  Uiso   1.00
C495   C     0.14801   0.20259   0.59304   0.00000  Uiso   1.00
C496   C     0.14808   0.13080   0.90690   0.00000  Uiso   1.00
C497   C     0.18545   0.20257   0.90692   0.00000  Uiso   1.00
C498   C     0.24672   0.16666   0.75003   0.00000  Uiso   1.00
C499   C     0.18539   0.13081   0.59314   0.00000  Uiso   1.00
C500   C     0.16667   0.16668   0.61603   0.00000  Uiso   1.00
C501   C     0.16675   0.16667   0.88397   0.00000  Uiso   1.00
C502   C     0.16679   0.16673   0.52403   0.00000  Uiso   1.00
C503   C     0.16679   0.16671   0.97597   0.00000  Uiso   1.00
C504   C     0.29086   0.16666   0.75004   0.00000  Uiso   1.00
C505   C     0.04247   0.16667   0.74996   0.00000  Uiso   1.00
C506   C     0.16665   0.16667   0.66391   0.00000  Uiso   1.00
C507   C     0.16670   0.16667   0.83609   0.00000  Uiso   1.00
C508   C     0.19316   0.02398   0.77706   0.00000  Uiso   1.00
C509   C     0.14017   0.30935   0.72293   0.00000  Uiso   1.00
C510   C     0.14017   0.02400   0.72294   0.00000  Uiso   1.00
C511   C     0.19316   0.30933   0.77707   0.00000  Uiso   1.00
C512   C     0.02129   0.12605   0.74235   0.00000  Uiso   1.00
F513   F     0.12842   0.23664   0.52469   0.00000  Uiso   1.00
F514   F     0.12842   0.09682   0.97517   0.00000  Uiso   1.00
F515   F     0.20515   0.23661   0.97524   0.00000  Uiso   1.00
F516   F     0.20515   0.09683   0.52491   0.00000  Uiso   1.00
H517   H     0.21434   0.04217   0.79869   0.00000  Uiso   1.00
H518   H     0.29584   0.23886   0.76387   0.00000  Uiso   1.00
H519   H     0.29581   0.09446   0.73623   0.00000  Uiso   1.00
H520   H     0.03752   0.23888   0.76377   0.00000  Uiso   1.00
H521   H     0.11901   0.29116   0.70129   0.00000  Uiso   1.00
H522   H     0.11899   0.04220   0.70131   0.00000  Uiso   1.00
H523   H     0.21433   0.29113   0.79871   0.00000  Uiso   1.00
H524   H     0.13313   0.23019   0.61073   0.00000  Uiso   1.00
H525   H     0.13321   0.10318   0.88915   0.00000  Uiso   1.00
H526   H     0.20031   0.23017   0.88920   0.00000  Uiso   1.00
H527   H     0.20023   0.10319   0.61091   0.00000  Uiso   1.00
H528   H     0.03749   0.09447   0.73613   0.00000  Uiso   1.00
N529   N     0.16667   0.28573   0.75000   0.00000  Uiso   1.00
N530   N     0.16667   0.04760   0.75000   0.00000  Uiso   1.00
O531   O     0.10559   0.20487   0.74999   0.00000  Uiso   1.00
O532   O     0.22774   0.12846   0.75000   0.00000  Uiso   1.00
O533   O     0.22774   0.20487   0.75000   0.00000  Uiso   1.00
O534   O     0.10559   0.12846   0.74999   0.00000  Uiso   1.00
O535   O     0.16666   0.20489   0.68453   0.00000  Uiso   1.00
O536   O     0.16667   0.12845   0.81547   0.00000  Uiso   1.00
O537   O     0.16667   0.20489   0.81547   0.00000  Uiso   1.00
O538   O     0.16666   0.12845   0.68453   0.00000  Uiso   1.00
Zn539  Zn    0.16667   0.21771   0.75000   0.00000  Uiso   1.00
Zn540  Zn    0.16667   0.11563   0.75000   0.00000  Uiso   1.00
C541   C     0.41995   0.16667   0.74996   0.00000  Uiso   1.00
C542   C     0.64538   0.20728   0.75765   0.00000  Uiso   1.00
C543   C     0.64536   0.12604   0.74240   0.00000  Uiso   1.00
C544   C     0.35464   0.20729   0.75760   0.00000  Uiso   1.00
C545   C     0.48104   0.20246   0.54694   0.00000  Uiso   1.00
C546   C     0.48107   0.13097   0.95298   0.00000  Uiso   1.00
C547   C     0.51916   0.20243   0.95302   0.00000  Uiso   1.00
C548   C     0.51914   0.13099   0.54705   0.00000  Uiso   1.00
C549   C     0.48135   0.20259   0.59304   0.00000  Uiso   1.00
C550   C     0.48142   0.13080   0.90690   0.00000  Uiso   1.00
C551   C     0.51879   0.20257   0.90692   0.00000  Uiso   1.00
C552   C     0.58005   0.16666   0.75003   0.00000  Uiso   1.00
C553   C     0.51872   0.13081   0.59314   0.00000  Uiso   1.00
C554   C     0.50000   0.16668   0.61603   0.00000  Uiso   1.00
C555   C     0.50008   0.16667   0.88397   0.00000  Uiso   1.00
C556   C     0.50012   0.16673   0.52403   0.00000  Uiso   1.00
C557   C     0.50012   0.16671   0.97597   0.00000  Uiso   1.00
C558   C     0.62420   0.16666   0.75004   0.00000  Uiso   1.00
C559   C     0.37580   0.16667   0.74996   0.00000  Uiso   1.00
C560   C     0.49998   0.16667   0.66391   0.00000  Uiso   1.00
C561   C     0.50003   0.16667   0.83609   0.00000  Uiso   1.00
C562   C     0.52650   0.02398   0.77706   0.00000  Uiso   1.00
C563   C     0.47351   0.30935   0.72293   0.00000  Uiso   1.00
C564   C     0.47350   0.02400   0.72294   0.00000  Uiso   1.00
C565   C     0.52649   0.30933   0.77707   0.00000  Uiso   1.00
C566   C     0.35462   0.12605   0.74235   0.00000  Uiso   1.00
F567   F     0.46175   0.23664   0.52469   0.00000  Uiso   1.00
F568   F     0.46175   0.09682   0.97517   0.00000  Uiso   1.00
F569   F     0.53848   0.23661   0.97524   0.00000  Uiso   1.00
F570   F     0.53848   0.09683   0.52491   0.00000  Uiso   1.00
H571   H     0.54767   0.04217   0.79869   0.00000  Uiso   1.00
H572   H     0.62918   0.23886   0.76387   0.00000  Uiso   1.00
H573   H     0.62915   0.09446   0.73623   0.00000  Uiso   1.00
H574   H     0.37085   0.23888   0.76377   0.00000  Uiso   1.00
H575   H     0.45234   0.29116   0.70129   0.00000  Uiso   1.00
H576   H     0.45232   0.04220   0.70131   0.00000  Uiso   1.00
H577   H     0.54766   0.29113   0.79871   0.00000  Uiso   1.00
H578   H     0.46646   0.23019   0.61073   0.00000  Uiso   1.00
H579   H     0.46654   0.10318   0.88915   0.00000  Uiso   1.00
H580   H     0.53364   0.23017   0.88920   0.00000  Uiso   1.00
H581   H     0.53357   0.10319   0.61091   0.00000  Uiso   1.00
H582   H     0.37082   0.09447   0.73613   0.00000  Uiso   1.00
N583   N     0.50000   0.28573   0.75000   0.00000  Uiso   1.00
N584   N     0.50000   0.04760   0.75000   0.00000  Uiso   1.00
O585   O     0.43892   0.20487   0.74999   0.00000  Uiso   1.00
O586   O     0.56108   0.12846   0.75000   0.00000  Uiso   1.00
O587   O     0.56108   0.20487   0.75000   0.00000  Uiso   1.00
O588   O     0.43892   0.12846   0.74999   0.00000  Uiso   1.00
O589   O     0.50000   0.20489   0.68453   0.00000  Uiso   1.00
O590   O     0.50000   0.12845   0.81547   0.00000  Uiso   1.00
O591   O     0.50000   0.20489   0.81547   0.00000  Uiso   1.00
O592   O     0.50000   0.12845   0.68453   0.00000  Uiso   1.00
Zn593  Zn    0.50000   0.21771   0.75000   0.00000  Uiso   1.00
Zn594  Zn    0.50000   0.11563   0.75000   0.00000  Uiso   1.00
C595   C     0.75328   0.16667   0.74996   0.00000  Uiso   1.00
C596   C     0.97871   0.20728   0.75765   0.00000  Uiso   1.00
C597   C     0.97869   0.12604   0.74240   0.00000  Uiso   1.00
C598   C     0.68797   0.20729   0.75760   0.00000  Uiso   1.00
C599   C     0.81438   0.20246   0.54694   0.00000  Uiso   1.00
C600   C     0.81440   0.13097   0.95298   0.00000  Uiso   1.00
C601   C     0.85250   0.20243   0.95302   0.00000  Uiso   1.00
C602   C     0.85247   0.13099   0.54705   0.00000  Uiso   1.00
C603   C     0.81468   0.20259   0.59304   0.00000  Uiso   1.00
C604   C     0.81475   0.13080   0.90690   0.00000  Uiso   1.00
C605   C     0.85212   0.20257   0.90692   0.00000  Uiso   1.00
C606   C     0.91338   0.16666   0.75003   0.00000  Uiso   1.00
C607   C     0.85205   0.13081   0.59314   0.00000  Uiso   1.00
C608   C     0.83334   0.16668   0.61603   0.00000  Uiso   1.00
C609   C     0.83342   0.16667   0.88397   0.00000  Uiso   1.00
C610   C     0.83345   0.16673   0.52403   0.00000  Uiso   1.00
C611   C     0.83346   0.16671   0.97597   0.00000  Uiso   1.00
C612   C     0.95753   0.16666   0.75004   0.00000  Uiso   1.00
C613   C     0.70914   0.16667   0.74996   0.00000  Uiso   1.00
C614   C     0.83331   0.16667   0.66391   0.00000  Uiso   1.00
C615   C     0.83337   0.16667   0.83609   0.00000  Uiso   1.00
C616   C     0.85983   0.02398   0.77706   0.00000  Uiso   1.00
C617   C     0.80684   0.30935   0.72293   0.00000  Uiso   1.00
C618   C     0.80684   0.02400   0.72294   0.00000  Uiso   1.00
C619   C     0.85983   0.30933   0.77707   0.00000  Uiso   1.00
C620   C     0.68795   0.12605   0.74235   0.00000  Uiso   1.00
F621   F     0.79508   0.23664   0.52469   0.00000  Uiso   1.00
F622   F     0.79509   0.09682   0.97517   0.00000  Uiso   1.00
F623   F     0.87181   0.23661   0.97524   0.00000  Uiso   1.00
F624   F     0.87181   0.09683   0.52491   0.00000  Uiso   1.00
H625   H     0.88101   0.04217   0.79869   0.00000  Uiso   1.00
H626   H     0.96251   0.23886   0.76387   0.00000  Uiso   1.00
H627   H     0.96248   0.09446   0.73623   0.00000  Uiso   1.00
H628   H     0.70419   0.23888   0.76377   0.00000  Uiso   1.00
H629   H     0.78567   0.29116   0.70129   0.00000  Uiso   1.00
H630   H     0.78566   0.04220   0.70131   0.00000  Uiso   1.00
H631   H     0.88100   0.29113   0.79871   0.00000  Uiso   1.00
H632   H     0.79980   0.23019   0.61073   0.00000  Uiso   1.00
H633   H     0.79988   0.10318   0.88915   0.00000  Uiso   1.00
H634   H     0.86697   0.23017   0.88920   0.00000  Uiso   1.00
H635   H     0.86690   0.10319   0.61091   0.00000  Uiso   1.00
H636   H     0.70415   0.09447   0.73613   0.00000  Uiso   1.00
N637   N     0.83333   0.28573   0.75000   0.00000  Uiso   1.00
N638   N     0.83333   0.04760   0.75000   0.00000  Uiso   1.00
O639   O     0.77226   0.20487   0.74999   0.00000  Uiso   1.00
O640   O     0.89441   0.12846   0.75000   0.00000  Uiso   1.00
O641   O     0.89441   0.20487   0.75000   0.00000  Uiso   1.00
O642   O     0.77226   0.12846   0.74999   0.00000  Uiso   1.00
O643   O     0.83333   0.20489   0.68453   0.00000  Uiso   1.00
O644   O     0.83334   0.12845   0.81547   0.00000  Uiso   1.00
O645   O     0.83334   0.20489   0.81547   0.00000  Uiso   1.00
O646   O     0.83333   0.12845   0.68453   0.00000  Uiso   1.00
Zn647  Zn    0.83333   0.21771   0.75000   0.00000  Uiso   1.00
Zn648  Zn    0.83333   0.11563   0.75000   0.00000  Uiso   1.00
C649   C     0.08662   0.50000   0.74996   0.00000  Uiso   1.00
C650   C     0.31204   0.54061   0.75765   0.00000  Uiso   1.00
C651   C     0.31203   0.45938   0.74240   0.00000  Uiso   1.00
C652   C     0.02131   0.54062   0.75760   0.00000  Uiso   1.00
C653   C     0.14771   0.53579   0.54694   0.00000  Uiso   1.00
C654   C     0.14774   0.46431   0.95298   0.00000  Uiso   1.00
C655   C     0.18583   0.53576   0.95302   0.00000  Uiso   1.00
C656   C     0.18581   0.46432   0.54705   0.00000  Uiso   1.00
C657   C     0.14801   0.53592   0.59304   0.00000  Uiso   1.00
C658   C     0.14808   0.46413   0.90690   0.00000  Uiso   1.00
C659   C     0.18545   0.53590   0.90692   0.00000  Uiso   1.00
C660   C     0.24672   0.50000   0.75003   0.00000  Uiso   1.00
C661   C     0.18539   0.46414   0.59314   0.00000  Uiso   1.00
C662   C     0.16667   0.50001   0.61603   0.00000  Uiso   1.00
C663   C     0.16675   0.50001   0.88397   0.00000  Uiso   1.00
C664   C     0.16679   0.50007   0.52403   0.00000  Uiso   1.00
C665   C     0.16679   0.50005   0.97597   0.00000  Uiso   1.00
C666   C     0.29086   0.49999   0.75004   0.00000  Uiso   1.00
C667   C     0.04247   0.50001   0.74996   0.00000  Uiso   1.00
C668   C     0.16665   0.50000   0.66391   0.00000  Uiso   1.00
C669   C     0.16670   0.50000   0.83609   0.00000  Uiso   1.00
C670   C     0.19316   0.35731   0.77706   0.00000  Uiso   1.00
C671   C     0.14017   0.64268   0.72293   0.00000  Uiso   1.00
C672   C     0.14017   0.35733   0.72294   0.00000  Uiso   1.00
C673   C     0.19316   0.64267   0.77707   0.00000  Uiso   1.00
C674   C     0.02129   0.45939   0.74235   0.00000  Uiso   1.00
F675   F     0.12842   0.56997   0.52469   0.00000  Uiso   1.00
F676   F     0.12842   0.43016   0.97517   0.00000  Uiso   1.00
F677   F     0.20515   0.56994   0.97524   0.00000  Uiso   1.00
F678   F     0.20515   0.43016   0.52491   0.00000  Uiso   1.00
H679   H     0.21434   0.37551   0.79869   0.00000  Uiso   1.00
H680   H     0.29584   0.57219   0.76387   0.00000  Uiso   1.00
H681   H     0.29581   0.42779   0.73623   0.00000  Uiso   1.00
H682   H     0.03752   0.57221   0.76377   0.00000  Uiso   1.00
H683   H     0.11901   0.62449   0.70129   0.00000  Uiso   1.00
H684   H     0.11899   0.37553   0.70131   0.00000  Uiso   1.00
H685   H     0.21433   0.62446   0.79871   0.00000  Uiso   1.00
H686   H     0.13313   0.56352   0.61073   0.00000  Uiso   1.00
H687   H     0.13321   0.43652   0.88915   0.00000  Uiso   1.00
H688   H     0.20031   0.56350   0.88920   0.00000  Uiso   1.00
H689   H     0.20023   0.43652   0.61091   0.00000  Uiso   1.00
H690   H     0.03749   0.42781   0.73613   0.00000  Uiso   1.00
N691   N     0.16667   0.61907   0.75000   0.00000  Uiso   1.00
N692   N     0.16667   0.38093   0.75000   0.00000  Uiso   1.00
O693   O     0.10559   0.53821   0.74999   0.00000  Uiso   1.00
O694   O     0.22774   0.46179   0.75000   0.00000  Uiso   1.00
O695   O     0.22774   0.53821   0.75000   0.00000  Uiso   1.00
O696   O     0.10559   0.46179   0.74999   0.00000  Uiso   1.00
O697   O     0.16666   0.53822   0.68453   0.00000  Uiso   1.00
O698   O     0.16667   0.46178   0.81547   0.00000  Uiso   1.00
O699   O     0.16667   0.53822   0.81547   0.00000  Uiso   1.00
O700   O     0.16666   0.46178   0.68453   0.00000  Uiso   1.00
Zn701  Zn    0.16667   0.55104   0.75000   0.00000  Uiso   1.00
Zn702  Zn    0.16667   0.44896   0.75000   0.00000  Uiso   1.00
C703   C     0.41995   0.50000   0.74996   0.00000  Uiso   1.00
C704   C     0.64538   0.54061   0.75765   0.00000  Uiso   1.00
C705   C     0.64536   0.45938   0.74240   0.00000  Uiso   1.00
C706   C     0.35464   0.54062   0.75760   0.00000  Uiso   1.00
C707   C     0.48104   0.53579   0.54694   0.00000  Uiso   1.00
C708   C     0.48107   0.46431   0.95298   0.00000  Uiso   1.00
C709   C     0.51916   0.53576   0.95302   0.00000  Uiso   1.00
C710   C     0.51914   0.46432   0.54705   0.00000  Uiso   1.00
C711   C     0.48135   0.53592   0.59304   0.00000  Uiso   1.00
C712   C     0.48142   0.46413   0.90690   0.00000  Uiso   1.00
C713   C     0.51879   0.53590   0.90692   0.00000  Uiso   1.00
C714   C     0.58005   0.50000   0.75003   0.00000  Uiso   1.00
C715   C     0.51872   0.46414   0.59314   0.00000  Uiso   1.00
C716   C     0.50000   0.50001   0.61603   0.00000  Uiso   1.00
C717   C     0.50008   0.50001   0.88397   0.00000  Uiso   1.00
C718   C     0.50012   0.50007   0.52403   0.00000  Uiso   1.00
C719   C     0.50012   0.50005   0.97597   0.00000  Uiso   1.00
C720   C     0.62420   0.49999   0.75004   0.00000  Uiso   1.00
C721   C     0.37580   0.50001   0.74996   0.00000  Uiso   1.00
C722   C     0.49998   0.50000   0.66391   0.00000  Uiso   1.00
C723   C     0.50003   0.50000   0.83609   0.00000  Uiso   1.00
C724   C     0.52650   0.35731   0.77706   0.00000  Uiso   1.00
C725   C     0.47351   0.64268   0.72293   0.00000  Uiso   1.00
C726   C     0.47350   0.35733   0.72294   0.00000  Uiso   1.00
C727   C     0.52649   0.64267   0.77707   0.00000  Uiso   1.00
C728   C     0.35462   0.45939   0.74235   0.00000  Uiso   1.00
F729   F     0.46175   0.56997   0.52469   0.00000  Uiso   1.00
F730   F     0.46175   0.43016   0.97517   0.00000  Uiso   1.00
F731   F     0.53848   0.56994   0.97524   0.00000  Uiso   1.00
F732   F     0.53848   0.43016   0.52491   0.00000  Uiso   1.00
H733   H     0.54767   0.37551   0.79869   0.00000  Uiso   1.00
H734   H     0.62918   0.57219   0.76387   0.00000  Uiso   1.00
H735   H     0.62915   0.42779   0.73623   0.00000  Uiso   1.00
H736   H     0.37085   0.57221   0.76377   0.00000  Uiso   1.00
H737   H     0.45234   0.62449   0.70129   0.00000  Uiso   1.00
H738   H     0.45232   0.37553   0.70131   0.00000  Uiso   1.00
H739   H     0.54766   0.62446   0.79871   0.00000  Uiso   1.00
H740   H     0.46646   0.56352   0.61073   0.00000  Uiso   1.00
H741   H     0.46654   0.43652   0.88915   0.00000  Uiso   1.00
H742   H     0.53364   0.56350   0.88920   0.00000  Uiso   1.00
H743   H     0.53357   0.43652   0.61091   0.00000  Uiso   1.00
H744   H     0.37082   0.42781   0.73613   0.00000  Uiso   1.00
N745   N     0.50000   0.61907   0.75000   0.00000  Uiso   1.00
N746   N     0.50000   0.38093   0.75000   0.00000  Uiso   1.00
O747   O     0.43892   0.53821   0.74999   0.00000  Uiso   1.00
O748   O     0.56108   0.46179   0.75000   0.00000  Uiso   1.00
O749   O     0.56108   0.53821   0.75000   0.00000  Uiso   1.00
O750   O     0.43892   0.46179   0.74999   0.00000  Uiso   1.00
O751   O     0.50000   0.53822   0.68453   0.00000  Uiso   1.00
O752   O     0.50000   0.46178   0.81547   0.00000  Uiso   1.00
O753   O     0.50000   0.53822   0.81547   0.00000  Uiso   1.00
O754   O     0.50000   0.46178   0.68453   0.00000  Uiso   1.00
Zn755  Zn    0.50000   0.55104   0.75000   0.00000  Uiso   1.00
Zn756  Zn    0.50000   0.44896   0.75000   0.00000  Uiso   1.00
C757   C     0.75328   0.50000   0.74996   0.00000  Uiso   1.00
C758   C     0.97871   0.54061   0.75765   0.00000  Uiso   1.00
C759   C     0.97869   0.45938   0.74240   0.00000  Uiso   1.00
C760   C     0.68797   0.54062   0.75760   0.00000  Uiso   1.00
C761   C     0.81438   0.53579   0.54694   0.00000  Uiso   1.00
C762   C     0.81440   0.46431   0.95298   0.00000  Uiso   1.00
C763   C     0.85250   0.53576   0.95302   0.00000  Uiso   1.00
C764   C     0.85247   0.46432   0.54705   0.00000  Uiso   1.00
C765   C     0.81468   0.53592   0.59304   0.00000  Uiso   1.00
C766   C     0.81475   0.46413   0.90690   0.00000  Uiso   1.00
C767   C     0.85212   0.53590   0.90692   0.00000  Uiso   1.00
C768   C     0.91338   0.50000   0.75003   0.00000  Uiso   1.00
C769   C     0.85205   0.46414   0.59314   0.00000  Uiso   1.00
C770   C     0.83334   0.50001   0.61603   0.00000  Uiso   1.00
C771   C     0.83342   0.50001   0.88397   0.00000  Uiso   1.00
C772   C     0.83345   0.50007   0.52403   0.00000  Uiso   1.00
C773   C     0.83346   0.50005   0.97597   0.00000  Uiso   1.00
C774   C     0.95753   0.49999   0.75004   0.00000  Uiso   1.00
C775   C     0.70914   0.50001   0.74996   0.00000  Uiso   1.00
C776   C     0.83331   0.50000   0.66391   0.00000  Uiso   1.00
C777   C     0.83337   0.50000   0.83609   0.00000  Uiso   1.00
C778   C     0.85983   0.35731   0.77706   0.00000  Uiso   1.00
C779   C     0.80684   0.64268   0.72293   0.00000  Uiso   1.00
C780   C     0.80684   0.35733   0.72294   0.00000  Uiso   1.00
C781   C     0.85983   0.64267   0.77707   0.00000  Uiso   1.00
C782   C     0.68795   0.45939   0.74235   0.00000  Uiso   1.00
F783   F     0.79508   0.56997   0.52469   0.00000  Uiso   1.00
F784   F     0.79509   0.43016   0.97517   0.00000  Uiso   1.00
F785   F     0.87181   0.56994   0.97524   0.00000  Uiso   1.00
F786   F     0.87181   0.43016   0.52491   0.00000  Uiso   1.00
H787   H     0.88101   0.37551   0.79869   0.00000  Uiso   1.00
H788   H     0.96251   0.57219   0.76387   0.00000  Uiso   1.00
H789   H     0.96248   0.42779   0.73623   0.00000  Uiso   1.00
H790   H     0.70419   0.57221   0.76377   0.00000  Uiso   1.00
H791   H     0.78567   0.62449   0.70129   0.00000  Uiso   1.00
H792   H     0.78566   0.37553   0.70131   0.00000  Uiso   1.00
H793   H     0.88100   0.62446   0.79871   0.00000  Uiso   1.00
H794   H     0.79980   0.56352   0.61073   0.00000  Uiso   1.00
H795   H     0.79988   0.43652   0.88915   0.00000  Uiso   1.00
H796   H     0.86697   0.56350   0.88920   0.00000  Uiso   1.00
H797   H     0.86690   0.43652   0.61091   0.00000  Uiso   1.00
H798   H     0.70415   0.42781   0.73613   0.00000  Uiso   1.00
N799   N     0.83333   0.61907   0.75000   0.00000  Uiso   1.00
N800   N     0.83333   0.38093   0.75000   0.00000  Uiso   1.00
O801   O     0.77226   0.53821   0.74999   0.00000  Uiso   1.00
O802   O     0.89441   0.46179   0.75000   0.00000  Uiso   1.00
O803   O     0.89441   0.53821   0.75000   0.00000  Uiso   1.00
O804   O     0.77226   0.46179   0.74999   0.00000  Uiso   1.00
O805   O     0.83333   0.53822   0.68453   0.00000  Uiso   1.00
O806   O     0.83334   0.46178   0.81547   0.00000  Uiso   1.00
O807   O     0.83334   0.53822   0.81547   0.00000  Uiso   1.00
O808   O     0.83333   0.46178   0.68453   0.00000  Uiso   1.00
Zn809  Zn    0.83333   0.55104   0.75000   0.00000  Uiso   1.00
Zn810  Zn    0.83333   0.44896   0.75000   0.00000  Uiso   1.00
C811   C     0.08662   0.83334   0.74996   0.00000  Uiso   1.00
C812   C     0.31204   0.87395   0.75765   0.00000  Uiso   1.00
C813   C     0.31203   0.79271   0.74240   0.00000  Uiso   1.00
C814   C     0.02131   0.87396   0.75760   0.00000  Uiso   1.00
C815   C     0.14771   0.86913   0.54694   0.00000  Uiso   1.00
C816   C     0.14774   0.79764   0.95298   0.00000  Uiso   1.00
C817   C     0.18583   0.86910   0.95302   0.00000  Uiso   1.00
C818   C     0.18581   0.79766   0.54705   0.00000  Uiso   1.00
C819   C     0.14801   0.86925   0.59304   0.00000  Uiso   1.00
C820   C     0.14808   0.79746   0.90690   0.00000  Uiso   1.00
C821   C     0.18545   0.86923   0.90692   0.00000  Uiso   1.00
C822   C     0.24672   0.83333   0.75003   0.00000  Uiso   1.00
C823   C     0.18539   0.79747   0.59314   0.00000  Uiso   1.00
C824   C     0.16667   0.83335   0.61603   0.00000  Uiso   1.00
C825   C     0.16675   0.83334   0.88397   0.00000  Uiso   1.00
C826   C     0.16679   0.83340   0.52403   0.00000  Uiso   1.00
C827   C     0.16679   0.83338   0.97597   0.00000  Uiso   1.00
C828   C     0.29086   0.83333   0.75004   0.00000  Uiso   1.00
C829   C     0.04247   0.83334   0.74996   0.00000  Uiso   1.00
C830   C     0.16665   0.83334   0.66391   0.00000  Uiso   1.00
C831   C     0.16670   0.83333   0.83609   0.00000  Uiso   1.00
C832   C     0.19316   0.69065   0.77706   0.00000  Uiso   1.00
C833   C     0.14017   0.97602   0.72293   0.00000  Uiso   1.00
C834   C     0.14017   0.69066   0.72294   0.00000  Uiso   1.00
C835   C     0.19316   0.97600   0.77707   0.00000  Uiso   1.00
C836   C     0.02129   0.79272   0.74235   0.00000  Uiso   1.00
F837   F     0.12842   0.90330   0.52469   0.00000  Uiso   1.00
F838   F     0.12842   0.76349   0.97517   0.00000  Uiso   1.00
F839   F     0.20515   0.90327   0.97524   0.00000  Uiso   1.00
F840   F     0.20515   0.76349   0.52491   0.00000  Uiso   1.00
H841   H     0.21434   0.70884   0.79869   0.00000  Uiso   1.00
H842   H     0.29584   0.90553   0.76387   0.00000  Uiso   1.00
H843   H     0.29581   0.76112   0.73623   0.00000  Uiso   1.00
H844   H     0.03752   0.90554   0.76377   0.00000  Uiso   1.00
H845   H     0.11901   0.95782   0.70129   0.00000  Uiso   1.00
H846   H     0.11899   0.70887   0.70131   0.00000  Uiso   1.00
H847   H     0.21433   0.95779   0.79871   0.00000  Uiso   1.00
H848   H     0.13313   0.89686   0.61073   0.00000  Uiso   1.00
H849   H     0.13321   0.76985   0.88915   0.00000  Uiso   1.00
H850   H     0.20031   0.89683   0.88920   0.00000  Uiso   1.00
H851   H     0.20023   0.76985   0.61091   0.00000  Uiso   1.00
H852   H     0.03749   0.76114   0.73613   0.00000  Uiso   1.00
N853   N     0.16667   0.95240   0.75000   0.00000  Uiso   1.00
N854   N     0.16667   0.71427   0.75000   0.00000  Uiso   1.00
O855   O     0.10559   0.87154   0.74999   0.00000  Uiso   1.00
O856   O     0.22774   0.79513   0.75000   0.00000  Uiso   1.00
O857   O     0.22774   0.87154   0.75000   0.00000  Uiso   1.00
O858   O     0.10559   0.79513   0.74999   0.00000  Uiso   1.00
O859   O     0.16666   0.87155   0.68453   0.00000  Uiso   1.00
O860   O     0.16667   0.79511   0.81547   0.00000  Uiso   1.00
O861   O     0.16667   0.87155   0.81547   0.00000  Uiso   1.00
O862   O     0.16666   0.79511   0.68453   0.00000  Uiso   1.00
Zn863  Zn    0.16667   0.88437   0.75000   0.00000  Uiso   1.00
Zn864  Zn    0.16667   0.78229   0.75000   0.00000  Uiso   1.00
C865   C     0.41995   0.83334   0.74996   0.00000  Uiso   1.00
C866   C     0.64538   0.87395   0.75765   0.00000  Uiso   1.00
C867   C     0.64536   0.79271   0.74240   0.00000  Uiso   1.00
C868   C     0.35464   0.87396   0.75760   0.00000  Uiso   1.00
C869   C     0.48104   0.86913   0.54694   0.00000  Uiso   1.00
C870   C     0.48107   0.79764   0.95298   0.00000  Uiso   1.00
C871   C     0.51916   0.86910   0.95302   0.00000  Uiso   1.00
C872   C     0.51914   0.79766   0.54705   0.00000  Uiso   1.00
C873   C     0.48135   0.86925   0.59304   0.00000  Uiso   1.00
C874   C     0.48142   0.79746   0.90690   0.00000  Uiso   1.00
C875   C     0.51879   0.86923   0.90692   0.00000  Uiso   1.00
C876   C     0.58005   0.83333   0.75003   0.00000  Uiso   1.00
C877   C     0.51872   0.79747   0.59314   0.00000  Uiso   1.00
C878   C     0.50000   0.83335   0.61603   0.00000  Uiso   1.00
C879   C     0.50008   0.83334   0.88397   0.00000  Uiso   1.00
C880   C     0.50012   0.83340   0.52403   0.00000  Uiso   1.00
C881   C     0.50012   0.83338   0.97597   0.00000  Uiso   1.00
C882   C     0.62420   0.83333   0.75004   0.00000  Uiso   1.00
C883   C     0.37580   0.83334   0.74996   0.00000  Uiso   1.00
C884   C     0.49998   0.83334   0.66391   0.00000  Uiso   1.00
C885   C     0.50003   0.83333   0.83609   0.00000  Uiso   1.00
C886   C     0.52650   0.69065   0.77706   0.00000  Uiso   1.00
C887   C     0.47351   0.97602   0.72293   0.00000  Uiso   1.00
C888   C     0.47350   0.69066   0.72294   0.00000  Uiso   1.00
C889   C     0.52649   0.97600   0.77707   0.00000  Uiso   1.00
C890   C     0.35462   0.79272   0.74235   0.00000  Uiso   1.00
F891   F     0.46175   0.90330   0.52469   0.00000  Uiso   1.00
F892   F     0.46175   0.76349   0.97517   0.00000  Uiso   1.00
F893   F     0.53848   0.90327   0.97524   0.00000  Uiso   1.00
F894   F     0.53848   0.76349   0.52491   0.00000  Uiso   1.00
H895   H     0.54767   0.70884   0.79869   0.00000  Uiso   1.00
H896   H     0.62918   0.90553   0.76387   0.00000  Uiso   1.00
H897   H     0.62915   0.76112   0.73623   0.00000  Uiso   1.00
H898   H     0.37085   0.90554   0.76377   0.00000  Uiso   1.00
H899   H     0.45234   0.95782   0.70129   0.00000  Uiso   1.00
H900   H     0.45232   0.70887   0.70131   0.00000  Uiso   1.00
H901   H     0.54766   0.95779   0.79871   0.00000  Uiso   1.00
H902   H     0.46646   0.89686   0.61073   0.00000  Uiso   1.00
H903   H     0.46654   0.76985   0.88915   0.00000  Uiso   1.00
H904   H     0.53364   0.89683   0.88920   0.00000  Uiso   1.00
H905   H     0.53357   0.76985   0.61091   0.00000  Uiso   1.00
H906   H     0.37082   0.76114   0.73613   0.00000  Uiso   1.00
N907   N     0.50000   0.95240   0.75000   0.00000  Uiso   1.00
N908   N     0.50000   0.71427   0.75000   0.00000  Uiso   1.00
O909   O     0.43892   0.87154   0.74999   0.00000  Uiso   1.00
O910   O     0.56108   0.79513   0.75000   0.00000  Uiso   1.00
O911   O     0.56108   0.87154   0.75000   0.00000  Uiso   1.00
O912   O     0.43892   0.79513   0.74999   0.00000  Uiso   1.00
O913   O     0.50000   0.87155   0.68453   0.00000  Uiso   1.00
O914   O     0.50000   0.79511   0.81547   0.00000  Uiso   1.00
O915   O     0.50000   0.87155   0.81547   0.00000  Uiso   1.00
O916   O     0.50000   0.79511   0.68453   0.00000  Uiso   1.00
Zn917  Zn    0.50000   0.88437   0.75000   0.00000  Uiso   1.00
Zn918  Zn    0.50000   0.78229   0.75000   0.00000  Uiso   1.00
C919   C     0.75328   0.83334   0.74996   0.00000  Uiso   1.00
C920   C     0.97871   0.87395   0.75765   0.00000  Uiso   1.00
C921   C     0.97869   0.79271   0.74240   0.00000  Uiso   1.00
C922   C     0.68797   0.87396   0.75760   0.00000  Uiso   1.00
C923   C     0.81438   0.86913   0.54694   0.00000  Uiso   1.00
C924   C     0.81440   0.79764   0.95298   0.00000  Uiso   1.00
C925   C     0.85250   0.86910   0.95302   0.00000  Uiso   1.00
C926   C     0.85247   0.79766   0.54705   0.00000  Uiso   1.00
C927   C     0.81468   0.86925   0.59304   0.00000  Uiso   1.00
C928   C     0.81475   0.79746   0.90690   0.00000  Uiso   1.00
C929   C     0.85212   0.86923   0.90692   0.00000  Uiso   1.00
C930   C     0.91338   0.83333   0.75003   0.00000  Uiso   1.00
C931   C     0.85205   0.79747   0.59314   0.00000  Uiso   1.00
C932   C     0.83334   0.83335   0.61603   0.00000  Uiso   1.00
C933   C     0.83342   0.83334   0.88397   0.00000  Uiso   1.00
C934   C     0.83345   0.83340   0.52403   0.00000  Uiso   1.00
C935   C     0.83346   0.83338   0.97597   0.00000  Uiso   1.00
C936   C     0.95753   0.83333   0.75004   0.00000  Uiso   1.00
C937   C     0.70914   0.83334   0.74996   0.00000  Uiso   1.00
C938   C     0.83331   0.83334   0.66391   0.00000  Uiso   1.00
C939   C     0.83337   0.83333   0.83609   0.00000  Uiso   1.00
C940   C     0.85983   0.69065   0.77706   0.00000  Uiso   1.00
C941   C     0.80684   0.97602   0.72293   0.00000  Uiso   1.00
C942   C     0.80684   0.69066   0.72294   0.00000  Uiso   1.00
C943   C     0.85983   0.97600   0.77707   0.00000  Uiso   1.00
C944   C     0.68795   0.79272   0.74235   0.00000  Uiso   1.00
F945   F     0.79508   0.90330   0.52469   0.00000  Uiso   1.00
F946   F     0.79509   0.76349   0.97517   0.00000  Uiso   1.00
F947   F     0.87181   0.90327   0.97524   0.00000  Uiso   1.00
F948   F     0.87181   0.76349   0.52491   0.00000  Uiso   1.00
H949   H     0.88101   0.70884   0.79869   0.00000  Uiso   1.00
H950   H     0.96251   0.90553   0.76387   0.00000  Uiso   1.00
H951   H     0.96248   0.76112   0.73623   0.00000  Uiso   1.00
H952   H     0.70419   0.90554   0.76377   0.00000  Uiso   1.00
H953   H     0.78567   0.95782   0.70129   0.00000  Uiso   1.00
H954   H     0.78566   0.70887   0.70131   0.00000  Uiso   1.00
H955   H     0.88100   0.95779   0.79871   0.00000  Uiso   1.00
H956   H     0.79980   0.89686   0.61073   0.00000  Uiso   1.00
H957   H     0.79988   0.76985   0.88915   0.00000  Uiso   1.00
H958   H     0.86697   0.89683   0.88920   0.00000  Uiso   1.00
H959   H     0.86690   0.76985   0.61091   0.00000  Uiso   1.00
H960   H     0.70415   0.76114   0.73613   0.00000  Uiso   1.00
N961   N     0.83333   0.95240   0.75000   0.00000  Uiso   1.00
N962   N     0.83333   0.71427   0.75000   0.00000  Uiso   1.00
O963   O     0.77226   0.87154   0.74999   0.00000  Uiso   1.00
O964   O     0.89441   0.79513   0.75000   0.00000  Uiso   1.00
O965   O     0.89441   0.87154   0.75000   0.00000  Uiso   1.00
O966   O     0.77226   0.79513   0.74999   0.00000  Uiso   1.00
O967   O     0.83333   0.87155   0.68453   0.00000  Uiso   1.00
O968   O     0.83334   0.79511   0.81547   0.00000  Uiso   1.00
O969   O     0.83334   0.87155   0.81547   0.00000  Uiso   1.00
O970   O     0.83333   0.79511   0.68453   0.00000  Uiso   1.00
Zn971  Zn    0.83333   0.88437   0.75000   0.00000  Uiso   1.00
Zn972  Zn    0.83333   0.78229   0.75000   0.00000  Uiso   1.00
loop_
_geom_bond_atom_site_label_1
_geom_bond_atom_site_label_2
_geom_bond_distance
_geom_bond_site_symmetry_2
_ccdc_geom_bond_type
C1     O48     1.282   .     A
C1     C19     1.420   .     S
C1     O45     1.282   .     A
C2     C18     1.397   .     A
C2     H32     1.084   .     S
C2     C58     1.370   .     S
C3     H33     1.084   .     S
C3     C18     1.397   .     A
C3     C80     1.370   .     S
C4     H34     1.084   .     S
C4     C19     1.397   .     A
C4     C110    1.370   1_455 S
C5     C9      1.381   .     A
C5     C16     1.400   .     A
C5     F27     1.358   .     S
C6     C10     1.381   .     A
C6     C17     1.400   .     A
C6     F28     1.358   .     S
C7     F29     1.358   .     S
C7     C11     1.381   .     A
C7     C17     1.400   .     A
C8     C13     1.381   .     A
C8     F30     1.358   .     S
C8     C16     1.400   .     A
C9     C14     1.398   .     A
C9     H38     1.084   .     S
C10    C15     1.398   .     A
C10    H39     1.084   .     S
C11    H40     1.084   .     S
C11    C15     1.398   .     A
C12    O47     1.282   .     A
C12    O46     1.282   .     A
C12    C18     1.420   .     S
C13    H41     1.084   .     S
C13    C14     1.398   .     A
C14    C20     1.435   .     S
C15    C21     1.435   .     S
C16    C503    1.440   1_554 S
C17    C502    1.440   .     S
C19    C26     1.397   .     A
C20    O52     1.286   .     A
C20    O49     1.286   .     A
C21    O51     1.286   .     A
C21    O50     1.286   .     A
C22    H31     1.082   .     S
C22    N44     1.366   .     A
C22    C349    1.416   1_545 S
C23    H35     1.082   .     S
C23    N43     1.366   .     A
C23    C186    1.416   .     S
C24    H36     1.082   .     S
C24    N44     1.366   .     A
C24    C347    1.416   1_545 S
C25    N43     1.366   .     A
C25    H37     1.082   .     S
C25    C184    1.416   .     S
C26    H42     1.084   .     S
C26    C111    1.370   1_455 S
N43    Zn53    2.007   .     S
N44    Zn54    2.007   .     S
O45    Zn53    2.000   .     S
O46    Zn54    2.000   .     S
O47    Zn53    2.000   .     S
O48    Zn54    2.000   .     S
O49    Zn53    1.998   .     S
O50    Zn54    1.998   .     S
O51    Zn53    1.998   .     S
O52    Zn54    1.998   .     S
C55    O102    1.282   .     A
C55    C73     1.420   .     S
C55    O99     1.282   .     A
C56    C72     1.397   .     A
C56    H86     1.084   .     S
C56    C112    1.370   .     S
C57    H87     1.084   .     S
C57    C72     1.397   .     A
C57    C134    1.370   .     S
C58    H88     1.084   .     S
C58    C73     1.397   .     A
C59    C63     1.381   .     A
C59    C70     1.400   .     A
C59    F81     1.358   .     S
C60    C64     1.381   .     A
C60    C71     1.400   .     A
C60    F82     1.358   .     S
C61    F83     1.358   .     S
C61    C65     1.381   .     A
C61    C71     1.400   .     A
C62    C67     1.381   .     A
C62    F84     1.358   .     S
C62    C70     1.400   .     A
C63    C68     1.398   .     A
C63    H92     1.084   .     S
C64    C69     1.398   .     A
C64    H93     1.084   .     S
C65    H94     1.084   .     S
C65    C69     1.398   .     A
C66    O101    1.282   .     A
C66    O100    1.282   .     A
C66    C72     1.420   .     S
C67    H95     1.084   .     S
C67    C68     1.398   .     A
C68    C74     1.435   .     S
C69    C75     1.435   .     S
C70    C557    1.440   1_554 S
C71    C556    1.440   .     S
C73    C80     1.397   .     A
C74    O106    1.286   .     A
C74    O103    1.286   .     A
C75    O105    1.286   .     A
C75    O104    1.286   .     A
C76    H85     1.082   .     S
C76    N98     1.366   .     A
C76    C403    1.416   1_545 S
C77    H89     1.082   .     S
C77    N97     1.366   .     A
C77    C240    1.416   .     S
C78    H90     1.082   .     S
C78    N98     1.366   .     A
C78    C401    1.416   1_545 S
C79    N97     1.366   .     A
C79    H91     1.082   .     S
C79    C238    1.416   .     S
C80    H96     1.084   .     S
N97    Zn107   2.007   .     S
N98    Zn108   2.007   .     S
O99    Zn107   2.000   .     S
O100   Zn108   2.000   .     S
O101   Zn107   2.000   .     S
O102   Zn108   2.000   .     S
O103   Zn107   1.998   .     S
O104   Zn108   1.998   .     S
O105   Zn107   1.998   .     S
O106   Zn108   1.998   .     S
C109   O156    1.282   .     A
C109   C127    1.420   .     S
C109   O153    1.282   .     A
C110   C126    1.397   .     A
C110   H140    1.084   .     S
C110   C4      1.370   1_655 S
C111   H141    1.084   .     S
C111   C126    1.397   .     A
C111   C26     1.370   1_655 S
C112   H142    1.084   .     S
C112   C127    1.397   .     A
C113   C117    1.381   .     A
C113   C124    1.400   .     A
C113   F135    1.358   .     S
C114   C118    1.381   .     A
C114   C125    1.400   .     A
C114   F136    1.358   .     S
C115   F137    1.358   .     S
C115   C119    1.381   .     A
C115   C125    1.400   .     A
C116   C121    1.381   .     A
C116   F138    1.358   .     S
C116   C124    1.400   .     A
C117   C122    1.398   .     A
C117   H146    1.084   .     S
C118   C123    1.398   .     A
C118   H147    1.084   .     S
C119   H148    1.084   .     S
C119   C123    1.398   .     A
C120   O155    1.282   .     A
C120   O154    1.282   .     A
C120   C126    1.420   .     S
C121   H149    1.084   .     S
C121   C122    1.398   .     A
C122   C128    1.435   .     S
C123   C129    1.435   .     S
C124   C611    1.440   1_554 S
C125   C610    1.440   .     S
C127   C134    1.397   .     A
C128   O160    1.286   .     A
C128   O157    1.286   .     A
C129   O159    1.286   .     A
C129   O158    1.286   .     A
C130   H139    1.082   .     S
C130   N152    1.366   .     A
C130   C457    1.416   1_545 S
C131   H143    1.082   .     S
C131   N151    1.366   .     A
C131   C294    1.416   .     S
C132   H144    1.082   .     S
C132   N152    1.366   .     A
C132   C455    1.416   1_545 S
C133   N151    1.366   .     A
C133   H145    1.082   .     S
C133   C292    1.416   .     S
C134   H150    1.084   .     S
N151   Zn161   2.007   .     S
N152   Zn162   2.007   .     S
O153   Zn161   2.000   .     S
O154   Zn162   2.000   .     S
O155   Zn161   2.000   .     S
O156   Zn162   2.000   .     S
O157   Zn161   1.998   .     S
O158   Zn162   1.998   .     S
O159   Zn161   1.998   .     S
O160   Zn162   1.998   .     S
C163   O210    1.282   .     A
C163   C181    1.420   .     S
C163   O207    1.282   .     A
C164   C180    1.397   .     A
C164   H194    1.084   .     S
C164   C220    1.370   .     S
C165   H195    1.084   .     S
C165   C180    1.397   .     A
C165   C242    1.370   .     S
C166   H196    1.084   .     S
C166   C181    1.397   .     A
C166   C272    1.370   1_455 S
C167   C171    1.381   .     A
C167   C178    1.400   .     A
C167   F189    1.358   .     S
C168   C172    1.381   .     A
C168   C179    1.400   .     A
C168   F190    1.358   .     S
C169   F191    1.358   .     S
C169   C173    1.381   .     A
C169   C179    1.400   .     A
C170   C175    1.381   .     A
C170   F192    1.358   .     S
C170   C178    1.400   .     A
C171   C176    1.398   .     A
C171   H200    1.084   .     S
C172   C177    1.398   .     A
C172   H201    1.084   .     S
C173   H202    1.084   .     S
C173   C177    1.398   .     A
C174   O209    1.282   .     A
C174   O208    1.282   .     A
C174   C180    1.420   .     S
C175   H203    1.084   .     S
C175   C176    1.398   .     A
C176   C182    1.435   .     S
C177   C183    1.435   .     S
C178   C665    1.440   1_554 S
C179   C664    1.440   .     S
C181   C188    1.397   .     A
C182   O214    1.286   .     A
C182   O211    1.286   .     A
C183   O213    1.286   .     A
C183   O212    1.286   .     A
C184   H193    1.082   .     S
C184   N206    1.366   .     A
C185   H197    1.082   .     S
C185   N205    1.366   .     A
C185   C348    1.416   .     S
C186   H198    1.082   .     S
C186   N206    1.366   .     A
C187   N205    1.366   .     A
C187   H199    1.082   .     S
C187   C346    1.416   .     S
C188   H204    1.084   .     S
C188   C273    1.370   1_455 S
N205   Zn215   2.007   .     S
N206   Zn216   2.007   .     S
O207   Zn215   2.000   .     S
O208   Zn216   2.000   .     S
O209   Zn215   2.000   .     S
O210   Zn216   2.000   .     S
O211   Zn215   1.998   .     S
O212   Zn216   1.998   .     S
O213   Zn215   1.998   .     S
O214   Zn216   1.998   .     S
C217   O264    1.282   .     A
C217   C235    1.420   .     S
C217   O261    1.282   .     A
C218   C234    1.397   .     A
C218   H248    1.084   .     S
C218   C274    1.370   .     S
C219   H249    1.084   .     S
C219   C234    1.397   .     A
C219   C296    1.370   .     S
C220   H250    1.084   .     S
C220   C235    1.397   .     A
C221   C225    1.381   .     A
C221   C232    1.400   .     A
C221   F243    1.358   .     S
C222   C226    1.381   .     A
C222   C233    1.400   .     A
C222   F244    1.358   .     S
C223   F245    1.358   .     S
C223   C227    1.381   .     A
C223   C233    1.400   .     A
C224   C229    1.381   .     A
C224   F246    1.358   .     S
C224   C232    1.400   .     A
C225   C230    1.398   .     A
C225   H254    1.084   .     S
C226   C231    1.398   .     A
C226   H255    1.084   .     S
C227   H256    1.084   .     S
C227   C231    1.398   .     A
C228   O263    1.282   .     A
C228   O262    1.282   .     A
C228   C234    1.420   .     S
C229   H257    1.084   .     S
C229   C230    1.398   .     A
C230   C236    1.435   .     S
C231   C237    1.435   .     S
C232   C719    1.440   1_554 S
C233   C718    1.440   .     S
C235   C242    1.397   .     A
C236   O268    1.286   .     A
C236   O265    1.286   .     A
C237   O267    1.286   .     A
C237   O266    1.286   .     A
C238   H247    1.082   .     S
C238   N260    1.366   .     A
C239   H251    1.082   .     S
C239   N259    1.366   .     A
C239   C402    1.416   .     S
C240   H252    1.082   .     S
C240   N260    1.366   .     A
C241   N259    1.366   .     A
C241   H253    1.082   .     S
C241   C400    1.416   .     S
C242   H258    1.084   .     S
N259   Zn269   2.007   .     S
N260   Zn270   2.007   .     S
O261   Zn269   2.000   .     S
O262   Zn270   2.000   .     S
O263   Zn269   2.000   .     S
O264   Zn270   2.000   .     S
O265   Zn269   1.998   .     S
O266   Zn270   1.998   .     S
O267   Zn269   1.998   .     S
O268   Zn270   1.998   .     S
C271   O318    1.282   .     A
C271   C289    1.420   .     S
C271   O315    1.282   .     A
C272   C288    1.397   .     A
C272   H302    1.084   .     S
C272   C166    1.370   1_655 S
C273   H303    1.084   .     S
C273   C288    1.397   .     A
C273   C188    1.370   1_655 S
C274   H304    1.084   .     S
C274   C289    1.397   .     A
C275   C279    1.381   .     A
C275   C286    1.400   .     A
C275   F297    1.358   .     S
C276   C280    1.381   .     A
C276   C287    1.400   .     A
C276   F298    1.358   .     S
C277   F299    1.358   .     S
C277   C281    1.381   .     A
C277   C287    1.400   .     A
C278   C283    1.381   .     A
C278   F300    1.358   .     S
C278   C286    1.400   .     A
C279   C284    1.398   .     A
C279   H308    1.084   .     S
C280   C285    1.398   .     A
C280   H309    1.084   .     S
C281   H310    1.084   .     S
C281   C285    1.398   .     A
C282   O317    1.282   .     A
C282   O316    1.282   .     A
C282   C288    1.420   .     S
C283   H311    1.084   .     S
C283   C284    1.398   .     A
C284   C290    1.435   .     S
C285   C291    1.435   .     S
C286   C773    1.440   1_554 S
C287   C772    1.440   .     S
C289   C296    1.397   .     A
C290   O322    1.286   .     A
C290   O319    1.286   .     A
C291   O321    1.286   .     A
C291   O320    1.286   .     A
C292   H301    1.082   .     S
C292   N314    1.366   .     A
C293   H305    1.082   .     S
C293   N313    1.366   .     A
C293   C456    1.416   .     S
C294   H306    1.082   .     S
C294   N314    1.366   .     A
C295   N313    1.366   .     A
C295   H307    1.082   .     S
C295   C454    1.416   .     S
C296   H312    1.084   .     S
N313   Zn323   2.007   .     S
N314   Zn324   2.007   .     S
O315   Zn323   2.000   .     S
O316   Zn324   2.000   .     S
O317   Zn323   2.000   .     S
O318   Zn324   2.000   .     S
O319   Zn323   1.998   .     S
O320   Zn324   1.998   .     S
O321   Zn323   1.998   .     S
O322   Zn324   1.998   .     S
C325   O372    1.282   .     A
C325   C343    1.420   .     S
C325   O369    1.282   .     A
C326   C342    1.397   .     A
C326   H356    1.084   .     S
C326   C382    1.370   .     S
C327   H357    1.084   .     S
C327   C342    1.397   .     A
C327   C404    1.370   .     S
C328   H358    1.084   .     S
C328   C343    1.397   .     A
C328   C434    1.370   1_455 S
C329   C333    1.381   .     A
C329   C340    1.400   .     A
C329   F351    1.358   .     S
C330   C334    1.381   .     A
C330   C341    1.400   .     A
C330   F352    1.358   .     S
C331   F353    1.358   .     S
C331   C335    1.381   .     A
C331   C341    1.400   .     A
C332   C337    1.381   .     A
C332   F354    1.358   .     S
C332   C340    1.400   .     A
C333   C338    1.398   .     A
C333   H362    1.084   .     S
C334   C339    1.398   .     A
C334   H363    1.084   .     S
C335   H364    1.084   .     S
C335   C339    1.398   .     A
C336   O371    1.282   .     A
C336   O370    1.282   .     A
C336   C342    1.420   .     S
C337   H365    1.084   .     S
C337   C338    1.398   .     A
C338   C344    1.435   .     S
C339   C345    1.435   .     S
C340   C827    1.440   1_554 S
C341   C826    1.440   .     S
C343   C350    1.397   .     A
C344   O376    1.286   .     A
C344   O373    1.286   .     A
C345   O375    1.286   .     A
C345   O374    1.286   .     A
C346   H355    1.082   .     S
C346   N368    1.366   .     A
C347   H359    1.082   .     S
C347   N367    1.366   .     A
C347   C24     1.416   1_565 S
C348   H360    1.082   .     S
C348   N368    1.366   .     A
C349   N367    1.366   .     A
C349   H361    1.082   .     S
C349   C22     1.416   1_565 S
C350   H366    1.084   .     S
C350   C435    1.370   1_455 S
N367   Zn377   2.007   .     S
N368   Zn378   2.007   .     S
O369   Zn377   2.000   .     S
O370   Zn378   2.000   .     S
O371   Zn377   2.000   .     S
O372   Zn378   2.000   .     S
O373   Zn377   1.998   .     S
O374   Zn378   1.998   .     S
O375   Zn377   1.998   .     S
O376   Zn378   1.998   .     S
C379   O426    1.282   .     A
C379   C397    1.420   .     S
C379   O423    1.282   .     A
C380   C396    1.397   .     A
C380   H410    1.084   .     S
C380   C436    1.370   .     S
C381   H411    1.084   .     S
C381   C396    1.397   .     A
C381   C458    1.370   .     S
C382   H412    1.084   .     S
C382   C397    1.397   .     A
C383   C387    1.381   .     A
C383   C394    1.400   .     A
C383   F405    1.358   .     S
C384   C388    1.381   .     A
C384   C395    1.400   .     A
C384   F406    1.358   .     S
C385   F407    1.358   .     S
C385   C389    1.381   .     A
C385   C395    1.400   .     A
C386   C391    1.381   .     A
C386   F408    1.358   .     S
C386   C394    1.400   .     A
C387   C392    1.398   .     A
C387   H416    1.084   .     S
C388   C393    1.398   .     A
C388   H417    1.084   .     S
C389   H418    1.084   .     S
C389   C393    1.398   .     A
C390   O425    1.282   .     A
C390   O424    1.282   .     A
C390   C396    1.420   .     S
C391   H419    1.084   .     S
C391   C392    1.398   .     A
C392   C398    1.435   .     S
C393   C399    1.435   .     S
C394   C881    1.440   1_554 S
C395   C880    1.440   .     S
C397   C404    1.397   .     A
C398   O430    1.286   .     A
C398   O427    1.286   .     A
C399   O429    1.286   .     A
C399   O428    1.286   .     A
C400   H409    1.082   .     S
C400   N422    1.366   .     A
C401   H413    1.082   .     S
C401   N421    1.366   .     A
C401   C78     1.416   1_565 S
C402   H414    1.082   .     S
C402   N422    1.366   .     A
C403   N421    1.366   .     A
C403   H415    1.082   .     S
C403   C76     1.416   1_565 S
C404   H420    1.084   .     S
N421   Zn431   2.007   .     S
N422   Zn432   2.007   .     S
O423   Zn431   2.000   .     S
O424   Zn432   2.000   .     S
O425   Zn431   2.000   .     S
O426   Zn432   2.000   .     S
O427   Zn431   1.998   .     S
O428   Zn432   1.998   .     S
O429   Zn431   1.998   .     S
O430   Zn432   1.998   .     S
C433   O480    1.282   .     A
C433   C451    1.420   .     S
C433   O477    1.282   .     A
C434   C450    1.397   .     A
C434   H464    1.084   .     S
C434   C328    1.370   1_655 S
C435   H465    1.084   .     S
C435   C450    1.397   .     A
C435   C350    1.370   1_655 S
C436   H466    1.084   .     S
C436   C451    1.397   .     A
C437   C441    1.381   .     A
C437   C448    1.400   .     A
C437   F459    1.358   .     S
C438   C442    1.381   .     A
C438   C449    1.400   .     A
C438   F460    1.358   .     S
C439   F461    1.358   .     S
C439   C443    1.381   .     A
C439   C449    1.400   .     A
C440   C445    1.381   .     A
C440   F462    1.358   .     S
C440   C448    1.400   .     A
C441   C446    1.398   .     A
C441   H470    1.084   .     S
C442   C447    1.398   .     A
C442   H471    1.084   .     S
C443   H472    1.084   .     S
C443   C447    1.398   .     A
C444   O479    1.282   .     A
C444   O478    1.282   .     A
C444   C450    1.420   .     S
C445   H473    1.084   .     S
C445   C446    1.398   .     A
C446   C452    1.435   .     S
C447   C453    1.435   .     S
C448   C935    1.440   1_554 S
C449   C934    1.440   .     S
C451   C458    1.397   .     A
C452   O484    1.286   .     A
C452   O481    1.286   .     A
C453   O483    1.286   .     A
C453   O482    1.286   .     A
C454   H463    1.082   .     S
C454   N476    1.366   .     A
C455   H467    1.082   .     S
C455   N475    1.366   .     A
C455   C132    1.416   1_565 S
C456   H468    1.082   .     S
C456   N476    1.366   .     A
C457   N475    1.366   .     A
C457   H469    1.082   .     S
C457   C130    1.416   1_565 S
C458   H474    1.084   .     S
N475   Zn485   2.007   .     S
N476   Zn486   2.007   .     S
O477   Zn485   2.000   .     S
O478   Zn486   2.000   .     S
O479   Zn485   2.000   .     S
O480   Zn486   2.000   .     S
O481   Zn485   1.998   .     S
O482   Zn486   1.998   .     S
O483   Zn485   1.998   .     S
O484   Zn486   1.998   .     S
C487   O534    1.282   .     A
C487   C505    1.420   .     S
C487   O531    1.282   .     A
C488   C504    1.397   .     A
C488   H518    1.084   .     S
C488   C544    1.370   .     S
C489   H519    1.084   .     S
C489   C504    1.397   .     A
C489   C566    1.370   .     S
C490   H520    1.084   .     S
C490   C505    1.397   .     A
C490   C596    1.370   1_455 S
C491   C495    1.381   .     A
C491   C502    1.400   .     A
C491   F513    1.358   .     S
C492   C496    1.381   .     A
C492   C503    1.400   .     A
C492   F514    1.358   .     S
C493   F515    1.358   .     S
C493   C497    1.381   .     A
C493   C503    1.400   .     A
C494   C499    1.381   .     A
C494   F516    1.358   .     S
C494   C502    1.400   .     A
C495   C500    1.398   .     A
C495   H524    1.084   .     S
C496   C501    1.398   .     A
C496   H525    1.084   .     S
C497   H526    1.084   .     S
C497   C501    1.398   .     A
C498   O533    1.282   .     A
C498   O532    1.282   .     A
C498   C504    1.420   .     S
C499   H527    1.084   .     S
C499   C500    1.398   .     A
C500   C506    1.435   .     S
C501   C507    1.435   .     S
C503   C16     1.440   1_556 S
C505   C512    1.397   .     A
C506   O538    1.286   .     A
C506   O535    1.286   .     A
C507   O537    1.286   .     A
C507   O536    1.286   .     A
C508   H517    1.082   .     S
C508   N530    1.366   .     A
C508   C835    1.416   1_545 S
C509   H521    1.082   .     S
C509   N529    1.366   .     A
C509   C672    1.416   .     S
C510   H522    1.082   .     S
C510   N530    1.366   .     A
C510   C833    1.416   1_545 S
C511   N529    1.366   .     A
C511   H523    1.082   .     S
C511   C670    1.416   .     S
C512   H528    1.084   .     S
C512   C597    1.370   1_455 S
N529   Zn539   2.007   .     S
N530   Zn540   2.007   .     S
O531   Zn539   2.000   .     S
O532   Zn540   2.000   .     S
O533   Zn539   2.000   .     S
O534   Zn540   2.000   .     S
O535   Zn539   1.998   .     S
O536   Zn540   1.998   .     S
O537   Zn539   1.998   .     S
O538   Zn540   1.998   .     S
C541   O588    1.282   .     A
C541   C559    1.420   .     S
C541   O585    1.282   .     A
C542   C558    1.397   .     A
C542   H572    1.084   .     S
C542   C598    1.370   .     S
C543   H573    1.084   .     S
C543   C558    1.397   .     A
C543   C620    1.370   .     S
C544   H574    1.084   .     S
C544   C559    1.397   .     A
C545   C549    1.381   .     A
C545   C556    1.400   .     A
C545   F567    1.358   .     S
C546   C550    1.381   .     A
C546   C557    1.400   .     A
C546   F568    1.358   .     S
C547   F569    1.358   .     S
C547   C551    1.381   .     A
C547   C557    1.400   .     A
C548   C553    1.381   .     A
C548   F570    1.358   .     S
C548   C556    1.400   .     A
C549   C554    1.398   .     A
C549   H578    1.084   .     S
C550   C555    1.398   .     A
C550   H579    1.084   .     S
C551   H580    1.084   .     S
C551   C555    1.398   .     A
C552   O587    1.282   .     A
C552   O586    1.282   .     A
C552   C558    1.420   .     S
C553   H581    1.084   .     S
C553   C554    1.398   .     A
C554   C560    1.435   .     S
C555   C561    1.435   .     S
C557   C70     1.440   1_556 S
C559   C566    1.397   .     A
C560   O592    1.286   .     A
C560   O589    1.286   .     A
C561   O591    1.286   .     A
C561   O590    1.286   .     A
C562   H571    1.082   .     S
C562   N584    1.366   .     A
C562   C889    1.416   1_545 S
C563   H575    1.082   .     S
C563   N583    1.366   .     A
C563   C726    1.416   .     S
C564   H576    1.082   .     S
C564   N584    1.366   .     A
C564   C887    1.416   1_545 S
C565   N583    1.366   .     A
C565   H577    1.082   .     S
C565   C724    1.416   .     S
C566   H582    1.084   .     S
N583   Zn593   2.007   .     S
N584   Zn594   2.007   .     S
O585   Zn593   2.000   .     S
O586   Zn594   2.000   .     S
O587   Zn593   2.000   .     S
O588   Zn594   2.000   .     S
O589   Zn593   1.998   .     S
O590   Zn594   1.998   .     S
O591   Zn593   1.998   .     S
O592   Zn594   1.998   .     S
C595   O642    1.282   .     A
C595   C613    1.420   .     S
C595   O639    1.282   .     A
C596   C612    1.397   .     A
C596   H626    1.084   .     S
C596   C490    1.370   1_655 S
C597   H627    1.084   .     S
C597   C612    1.397   .     A
C597   C512    1.370   1_655 S
C598   H628    1.084   .     S
C598   C613    1.397   .     A
C599   C603    1.381   .     A
C599   C610    1.400   .     A
C599   F621    1.358   .     S
C600   C604    1.381   .     A
C600   C611    1.400   .     A
C600   F622    1.358   .     S
C601   F623    1.358   .     S
C601   C605    1.381   .     A
C601   C611    1.400   .     A
C602   C607    1.381   .     A
C602   F624    1.358   .     S
C602   C610    1.400   .     A
C603   C608    1.398   .     A
C603   H632    1.084   .     S
C604   C609    1.398   .     A
C604   H633    1.084   .     S
C605   H634    1.084   .     S
C605   C609    1.398   .     A
C606   O641    1.282   .     A
C606   O640    1.282   .     A
C606   C612    1.420   .     S
C607   H635    1.084   .     S
C607   C608    1.398   .     A
C608   C614    1.435   .     S
C609   C615    1.435   .     S
C611   C124    1.440   1_556 S
C613   C620    1.397   .     A
C614   O646    1.286   .     A
C614   O643    1.286   .     A
C615   O645    1.286   .     A
C615   O644    1.286   .     A
C616   H625    1.082   .     S
C616   N638    1.366   .     A
C616   C943    1.416   1_545 S
C617   H629    1.082   .     S
C617   N637    1.366   .     A
C617   C780    1.416   .     S
C618   H630    1.082   .     S
C618   N638    1.366   .     A
C618   C941    1.416   1_545 S
C619   N637    1.366   .     A
C619   H631    1.082   .     S
C619   C778    1.416   .     S
C620   H636    1.084   .     S
N637   Zn647   2.007   .     S
N638   Zn648   2.007   .     S
O639   Zn647   2.000   .     S
O640   Zn648   2.000   .     S
O641   Zn647   2.000   .     S
O642   Zn648   2.000   .     S
O643   Zn647   1.998   .     S
O644   Zn648   1.998   .     S
O645   Zn647   1.998   .     S
O646   Zn648   1.998   .     S
C649   O696    1.282   .     A
C649   C667    1.420   .     S
C649   O693    1.282   .     A
C650   C666    1.397   .     A
C650   H680    1.084   .     S
C650   C706    1.370   .     S
C651   H681    1.084   .     S
C651   C666    1.397   .     A
C651   C728    1.370   .     S
C652   H682    1.084   .     S
C652   C667    1.397   .     A
C652   C758    1.370   1_455 S
C653   C657    1.381   .     A
C653   C664    1.400   .     A
C653   F675    1.358   .     S
C654   C658    1.381   .     A
C654   C665    1.400   .     A
C654   F676    1.358   .     S
C655   F677    1.358   .     S
C655   C659    1.381   .     A
C655   C665    1.400   .     A
C656   C661    1.381   .     A
C656   F678    1.358   .     S
C656   C664    1.400   .     A
C657   C662    1.398   .     A
C657   H686    1.084   .     S
C658   C663    1.398   .     A
C658   H687    1.084   .     S
C659   H688    1.084   .     S
C659   C663    1.398   .     A
C660   O695    1.282   .     A
C660   O694    1.282   .     A
C660   C666    1.420   .     S
C661   H689    1.084   .     S
C661   C662    1.398   .     A
C662   C668    1.435   .     S
C663   C669    1.435   .     S
C665   C178    1.440   1_556 S
C667   C674    1.397   .     A
C668   O700    1.286   .     A
C668   O697    1.286   .     A
C669   O699    1.286   .     A
C669   O698    1.286   .     A
C670   H679    1.082   .     S
C670   N692    1.366   .     A
C671   H683    1.082   .     S
C671   N691    1.366   .     A
C671   C834    1.416   .     S
C672   H684    1.082   .     S
C672   N692    1.366   .     A
C673   N691    1.366   .     A
C673   H685    1.082   .     S
C673   C832    1.416   .     S
C674   H690    1.084   .     S
C674   C759    1.370   1_455 S
N691   Zn701   2.007   .     S
N692   Zn702   2.007   .     S
O693   Zn701   2.000   .     S
O694   Zn702   2.000   .     S
O695   Zn701   2.000   .     S
O696   Zn702   2.000   .     S
O697   Zn701   1.998   .     S
O698   Zn702   1.998   .     S
O699   Zn701   1.998   .     S
O700   Zn702   1.998   .     S
C703   O750    1.282   .     A
C703   C721    1.420   .     S
C703   O747    1.282   .     A
C704   C720    1.397   .     A
C704   H734    1.084   .     S
C704   C760    1.370   .     S
C705   H735    1.084   .     S
C705   C720    1.397   .     A
C705   C782    1.370   .     S
C706   H736    1.084   .     S
C706   C721    1.397   .     A
C707   C711    1.381   .     A
C707   C718    1.400   .     A
C707   F729    1.358   .     S
C708   C712    1.381   .     A
C708   C719    1.400   .     A
C708   F730    1.358   .     S
C709   F731    1.358   .     S
C709   C713    1.381   .     A
C709   C719    1.400   .     A
C710   C715    1.381   .     A
C710   F732    1.358   .     S
C710   C718    1.400   .     A
C711   C716    1.398   .     A
C711   H740    1.084   .     S
C712   C717    1.398   .     A
C712   H741    1.084   .     S
C713   H742    1.084   .     S
C713   C717    1.398   .     A
C714   O749    1.282   .     A
C714   O748    1.282   .     A
C714   C720    1.420   .     S
C715   H743    1.084   .     S
C715   C716    1.398   .     A
C716   C722    1.435   .     S
C717   C723    1.435   .     S
C719   C232    1.440   1_556 S
C721   C728    1.397   .     A
C722   O754    1.286   .     A
C722   O751    1.286   .     A
C723   O753    1.286   .     A
C723   O752    1.286   .     A
C724   H733    1.082   .     S
C724   N746    1.366   .     A
C725   H737    1.082   .     S
C725   N745    1.366   .     A
C725   C888    1.416   .     S
C726   H738    1.082   .     S
C726   N746    1.366   .     A
C727   N745    1.366   .     A
C727   H739    1.082   .     S
C727   C886    1.416   .     S
C728   H744    1.084   .     S
N745   Zn755   2.007   .     S
N746   Zn756   2.007   .     S
O747   Zn755   2.000   .     S
O748   Zn756   2.000   .     S
O749   Zn755   2.000   .     S
O750   Zn756   2.000   .     S
O751   Zn755   1.998   .     S
O752   Zn756   1.998   .     S
O753   Zn755   1.998   .     S
O754   Zn756   1.998   .     S
C757   O804    1.282   .     A
C757   C775    1.420   .     S
C757   O801    1.282   .     A
C758   C774    1.397   .     A
C758   H788    1.084   .     S
C758   C652    1.370   1_655 S
C759   H789    1.084   .     S
C759   C774    1.397   .     A
C759   C674    1.370   1_655 S
C760   H790    1.084   .     S
C760   C775    1.397   .     A
C761   C765    1.381   .     A
C761   C772    1.400   .     A
C761   F783    1.358   .     S
C762   C766    1.381   .     A
C762   C773    1.400   .     A
C762   F784    1.358   .     S
C763   F785    1.358   .     S
C763   C767    1.381   .     A
C763   C773    1.400   .     A
C764   C769    1.381   .     A
C764   F786    1.358   .     S
C764   C772    1.400   .     A
C765   C770    1.398   .     A
C765   H794    1.084   .     S
C766   C771    1.398   .     A
C766   H795    1.084   .     S
C767   H796    1.084   .     S
C767   C771    1.398   .     A
C768   O803    1.282   .     A
C768   O802    1.282   .     A
C768   C774    1.420   .     S
C769   H797    1.084   .     S
C769   C770    1.398   .     A
C770   C776    1.435   .     S
C771   C777    1.435   .     S
C773   C286    1.440   1_556 S
C775   C782    1.397   .     A
C776   O808    1.286   .     A
C776   O805    1.286   .     A
C777   O807    1.286   .     A
C777   O806    1.286   .     A
C778   H787    1.082   .     S
C778   N800    1.366   .     A
C779   H791    1.082   .     S
C779   N799    1.366   .     A
C779   C942    1.416   .     S
C780   H792    1.082   .     S
C780   N800    1.366   .     A
C781   N799    1.366   .     A
C781   H793    1.082   .     S
C781   C940    1.416   .     S
C782   H798    1.084   .     S
N799   Zn809   2.007   .     S
N800   Zn810   2.007   .     S
O801   Zn809   2.000   .     S
O802   Zn810   2.000   .     S
O803   Zn809   2.000   .     S
O804   Zn810   2.000   .     S
O805   Zn809   1.998   .     S
O806   Zn810   1.998   .     S
O807   Zn809   1.998   .     S
O808   Zn810   1.998   .     S
C811   O858    1.282   .     A
C811   C829    1.420   .     S
C811   O855    1.282   .     A
C812   C828    1.397   .     A
C812   H842    1.084   .     S
C812   C868    1.370   .     S
C813   H843    1.084   .     S
C813   C828    1.397   .     A
C813   C890    1.370   .     S
C814   H844    1.084   .     S
C814   C829    1.397   .     A
C814   C920    1.370   1_455 S
C815   C819    1.381   .     A
C815   C826    1.400   .     A
C815   F837    1.358   .     S
C816   C820    1.381   .     A
C816   C827    1.400   .     A
C816   F838    1.358   .     S
C817   F839    1.358   .     S
C817   C821    1.381   .     A
C817   C827    1.400   .     A
C818   C823    1.381   .     A
C818   F840    1.358   .     S
C818   C826    1.400   .     A
C819   C824    1.398   .     A
C819   H848    1.084   .     S
C820   C825    1.398   .     A
C820   H849    1.084   .     S
C821   H850    1.084   .     S
C821   C825    1.398   .     A
C822   O857    1.282   .     A
C822   O856    1.282   .     A
C822   C828    1.420   .     S
C823   H851    1.084   .     S
C823   C824    1.398   .     A
C824   C830    1.435   .     S
C825   C831    1.435   .     S
C827   C340    1.440   1_556 S
C829   C836    1.397   .     A
C830   O862    1.286   .     A
C830   O859    1.286   .     A
C831   O861    1.286   .     A
C831   O860    1.286   .     A
C832   H841    1.082   .     S
C832   N854    1.366   .     A
C833   H845    1.082   .     S
C833   N853    1.366   .     A
C833   C510    1.416   1_565 S
C834   H846    1.082   .     S
C834   N854    1.366   .     A
C835   N853    1.366   .     A
C835   H847    1.082   .     S
C835   C508    1.416   1_565 S
C836   H852    1.084   .     S
C836   C921    1.370   1_455 S
N853   Zn863   2.007   .     S
N854   Zn864   2.007   .     S
O855   Zn863   2.000   .     S
O856   Zn864   2.000   .     S
O857   Zn863   2.000   .     S
O858   Zn864   2.000   .     S
O859   Zn863   1.998   .     S
O860   Zn864   1.998   .     S
O861   Zn863   1.998   .     S
O862   Zn864   1.998   .     S
C865   O912    1.282   .     A
C865   C883    1.420   .     S
C865   O909    1.282   .     A
C866   C882    1.397   .     A
C866   H896    1.084   .     S
C866   C922    1.370   .     S
C867   H897    1.084   .     S
C867   C882    1.397   .     A
C867   C944    1.370   .     S
C868   H898    1.084   .     S
C868   C883    1.397   .     A
C869   C873    1.381   .     A
C869   C880    1.400   .     A
C869   F891    1.358   .     S
C870   C874    1.381   .     A
C870   C881    1.400   .     A
C870   F892    1.358   .     S
C871   F893    1.358   .     S
C871   C875    1.381   .     A
C871   C881    1.400   .     A
C872   C877    1.381   .     A
C872   F894    1.358   .     S
C872   C880    1.400   .     A
C873   C878    1.398   .     A
C873   H902    1.084   .     S
C874   C879    1.398   .     A
C874   H903    1.084   .     S
C875   H904    1.084   .     S
C875   C879    1.398   .     A
C876   O911    1.282   .     A
C876   O910    1.282   .     A
C876   C882    1.420   .     S
C877   H905    1.084   .     S
C877   C878    1.398   .     A
C878   C884    1.435   .     S
C879   C885    1.435   .     S
C881   C394    1.440   1_556 S
C883   C890    1.397   .     A
C884   O916    1.286   .     A
C884   O913    1.286   .     A
C885   O915    1.286   .     A
C885   O914    1.286   .     A
C886   H895    1.082   .     S
C886   N908    1.366   .     A
C887   H899    1.082   .     S
C887   N907    1.366   .     A
C887   C564    1.416   1_565 S
C888   H900    1.082   .     S
C888   N908    1.366   .     A
C889   N907    1.366   .     A
C889   H901    1.082   .     S
C889   C562    1.416   1_565 S
C890   H906    1.084   .     S
N907   Zn917   2.007   .     S
N908   Zn918   2.007   .     S
O909   Zn917   2.000   .     S
O910   Zn918   2.000   .     S
O911   Zn917   2.000   .     S
O912   Zn918   2.000   .     S
O913   Zn917   1.998   .     S
O914   Zn918   1.998   .     S
O915   Zn917   1.998   .     S
O916   Zn918   1.998   .     S
C919   O966    1.282   .     A
C919   C937    1.420   .     S
C919   O963    1.282   .     A
C920   C936    1.397   .     A
C920   H950    1.084   .     S
C920   C814    1.370   1_655 S
C921   H951    1.084   .     S
C921   C936    1.397   .     A
C921   C836    1.370   1_655 S
C922   H952    1.084   .     S
C922   C937    1.397   .     A
C923   C927    1.381   .     A
C923   C934    1.400   .     A
C923   F945    1.358   .     S
C924   C928    1.381   .     A
C924   C935    1.400   .     A
C924   F946    1.358   .     S
C925   F947    1.358   .     S
C925   C929    1.381   .     A
C925   C935    1.400   .     A
C926   C931    1.381   .     A
C926   F948    1.358   .     S
C926   C934    1.400   .     A
C927   C932    1.398   .     A
C927   H956    1.084   .     S
C928   C933    1.398   .     A
C928   H957    1.084   .     S
C929   H958    1.084   .     S
C929   C933    1.398   .     A
C930   O965    1.282   .     A
C930   O964    1.282   .     A
C930   C936    1.420   .     S
C931   H959    1.084   .     S
C931   C932    1.398   .     A
C932   C938    1.435   .     S
C933   C939    1.435   .     S
C935   C448    1.440   1_556 S
C937   C944    1.397   .     A
C938   O970    1.286   .     A
C938   O967    1.286   .     A
C939   O969    1.286   .     A
C939   O968    1.286   .     A
C940   H949    1.082   .     S
C940   N962    1.366   .     A
C941   H953    1.082   .     S
C941   N961    1.366   .     A
C941   C618    1.416   1_565 S
C942   H954    1.082   .     S
C942   N962    1.366   .     A
C943   N961    1.366   .     A
C943   H955    1.082   .     S
C943   C616    1.416   1_565 S
C944   H960    1.084   .     S
N961   Zn971   2.007   .     S
N962   Zn972   2.007   .     S
O963   Zn971   2.000   .     S
O964   Zn972   2.000   .     S
O965   Zn971   2.000   .     S
O966   Zn972   2.000   .     S
O967   Zn971   1.998   .     S
O968   Zn972   1.998   .     S
O969   Zn971   1.998   .     S
O970   Zn972   1.998   .     S
