data_str_m3_o1_o2_pcu_sym.4
_audit_creation_date              2020-01-03
_audit_creation_method            'Materials Studio'
_symmetry_space_group_name_H-M    'P1'
_symmetry_Int_Tables_number       1
_symmetry_cell_setting            triclinic
loop_
_symmetry_equiv_pos_as_xyz
  x,y,z
_cell_length_a                    32.5434
_cell_length_b                    29.4442
_cell_length_c                    30.0011
_cell_angle_alpha                 90.0011
_cell_angle_beta                  90.1029
_cell_angle_gamma                 89.9912
loop_
_atom_site_label
_atom_site_type_symbol
_atom_site_fract_x
_atom_site_fract_y
_atom_site_fract_z
_atom_site_U_iso_or_equiv
_atom_site_adp_type
_atom_site_occupancy
C1     C     0.08659   0.16663   0.25032   0.00000  Uiso   1.00
C2     C     0.31234   0.20789   0.24636   0.00000  Uiso   1.00
C3     C     0.31224   0.12493   0.25176   0.00000  Uiso   1.00
C4     C     0.02095   0.20792   0.25289   0.00000  Uiso   1.00
C5     C     0.18138   0.20480   0.04710   0.00000  Uiso   1.00
C6     C     0.18127   0.12870   0.45301   0.00000  Uiso   1.00
C7     C     0.15217   0.20487   0.45292   0.00000  Uiso   1.00
C8     C     0.15201   0.12876   0.04699   0.00000  Uiso   1.00
C9     C     0.18120   0.20485   0.09312   0.00000  Uiso   1.00
C10    C     0.18104   0.12855   0.40701   0.00000  Uiso   1.00
C11    C     0.15233   0.20493   0.40691   0.00000  Uiso   1.00
C12    C     0.24674   0.16662   0.24951   0.00000  Uiso   1.00
C13    C     0.15221   0.12862   0.09299   0.00000  Uiso   1.00
C14    C     0.16670   0.16671   0.11602   0.00000  Uiso   1.00
C15    C     0.16667   0.16671   0.38399   0.00000  Uiso   1.00
C16    C     0.16670   0.16680   0.02406   0.00000  Uiso   1.00
C17    C     0.16672   0.16680   0.47595   0.00000  Uiso   1.00
C18    C     0.29088   0.16644   0.24902   0.00000  Uiso   1.00
C19    C     0.04245   0.16648   0.25042   0.00000  Uiso   1.00
C20    C     0.04061   0.06896   0.19936   0.00000  Uiso   1.00
C21    C     0.04547   0.01764   0.19799   0.00000  Uiso   1.00
C22    C     0.29285   0.25751   0.19276   0.00000  Uiso   1.00
C23    C     0.16667   0.16667   0.16389   0.00000  Uiso   1.00
C24    C     0.26746   0.29965   0.18282   0.00000  Uiso   1.00
C25    C     0.29305   0.06825   0.29917   0.00000  Uiso   1.00
C26    C     0.28775   0.01698   0.29987   0.00000  Uiso   1.00
C27    C     0.04030   0.25802   0.30612   0.00000  Uiso   1.00
C28    C     0.06537   0.30048   0.31571   0.00000  Uiso   1.00
C29    C     0.16666   0.16667   0.33612   0.00000  Uiso   1.00
C30    C     0.17818   0.02400   0.28714   0.00000  Uiso   1.00
C31    C     0.15470   0.30935   0.21302   0.00000  Uiso   1.00
C32    C     0.15513   0.02400   0.21287   0.00000  Uiso   1.00
C33    C     0.17861   0.30935   0.28699   0.00000  Uiso   1.00
C34    C     0.02112   0.12496   0.24740   0.00000  Uiso   1.00
H35    H     0.18766   0.04210   0.31676   0.00000  Uiso   1.00
H36    H     0.19310   0.09937   0.47068   0.00000  Uiso   1.00
H37    H     0.14036   0.23423   0.47051   0.00000  Uiso   1.00
H38    H     0.14008   0.09949   0.02931   0.00000  Uiso   1.00
H39    H     0.06666   0.08479   0.18113   0.00000  Uiso   1.00
H40    H     0.01143   0.07741   0.18156   0.00000  Uiso   1.00
H41    H     0.07341   0.00723   0.21638   0.00000  Uiso   1.00
H42    H     0.01867   0.00131   0.21402   0.00000  Uiso   1.00
H43    H     0.04769   0.00583   0.16293   0.00000  Uiso   1.00
H44    H     0.27911   0.22869   0.17374   0.00000  Uiso   1.00
H45    H     0.32478   0.26337   0.18078   0.00000  Uiso   1.00
H46    H     0.14495   0.29125   0.18349   0.00000  Uiso   1.00
H47    H     0.27977   0.32944   0.20110   0.00000  Uiso   1.00
H48    H     0.26817   0.30696   0.14653   0.00000  Uiso   1.00
H49    H     0.23522   0.29384   0.19301   0.00000  Uiso   1.00
H50    H     0.26731   0.08409   0.31790   0.00000  Uiso   1.00
H51    H     0.32247   0.07613   0.31675   0.00000  Uiso   1.00
H52    H     0.31424   0.00060   0.28330   0.00000  Uiso   1.00
H53    H     0.28574   0.00468   0.33478   0.00000  Uiso   1.00
H54    H     0.25957   0.00716   0.28162   0.00000  Uiso   1.00
H55    H     0.05424   0.22948   0.32538   0.00000  Uiso   1.00
H56    H     0.00833   0.26372   0.31805   0.00000  Uiso   1.00
H57    H     0.14565   0.04211   0.18325   0.00000  Uiso   1.00
H58    H     0.05288   0.32998   0.29713   0.00000  Uiso   1.00
H59    H     0.06456   0.30814   0.35193   0.00000  Uiso   1.00
H60    H     0.09766   0.29485   0.30562   0.00000  Uiso   1.00
H61    H     0.18835   0.29124   0.31652   0.00000  Uiso   1.00
H62    H     0.19284   0.23432   0.11072   0.00000  Uiso   1.00
H63    H     0.19258   0.09900   0.38950   0.00000  Uiso   1.00
H64    H     0.14078   0.23445   0.38931   0.00000  Uiso   1.00
H65    H     0.14055   0.09912   0.11049   0.00000  Uiso   1.00
H66    H     0.19331   0.23410   0.02952   0.00000  Uiso   1.00
N67    N     0.16667   0.28573   0.25000   0.00000  Uiso   1.00
N68    N     0.16667   0.04760   0.25000   0.00000  Uiso   1.00
O69    O     0.10559   0.20487   0.24999   0.00000  Uiso   1.00
O70    O     0.29260   0.24889   0.23914   0.00000  Uiso   1.00
O71    O     0.29229   0.08348   0.25444   0.00000  Uiso   1.00
O72    O     0.04064   0.24899   0.25982   0.00000  Uiso   1.00
O73    O     0.22774   0.12846   0.25000   0.00000  Uiso   1.00
O74    O     0.22774   0.20487   0.25000   0.00000  Uiso   1.00
O75    O     0.10559   0.12846   0.24999   0.00000  Uiso   1.00
O76    O     0.16666   0.20489   0.18453   0.00000  Uiso   1.00
O77    O     0.16667   0.12845   0.31547   0.00000  Uiso   1.00
O78    O     0.16667   0.20489   0.31547   0.00000  Uiso   1.00
O79    O     0.16666   0.12845   0.18453   0.00000  Uiso   1.00
O80    O     0.04109   0.08355   0.24430   0.00000  Uiso   1.00
Zn81   Zn    0.16667   0.21771   0.25000   0.00000  Uiso   1.00
Zn82   Zn    0.16667   0.11563   0.25000   0.00000  Uiso   1.00
C83    C     0.41992   0.16663   0.25032   0.00000  Uiso   1.00
C84    C     0.64567   0.20789   0.24636   0.00000  Uiso   1.00
C85    C     0.64558   0.12493   0.25176   0.00000  Uiso   1.00
C86    C     0.35428   0.20792   0.25289   0.00000  Uiso   1.00
C87    C     0.51472   0.20480   0.04710   0.00000  Uiso   1.00
C88    C     0.51460   0.12870   0.45301   0.00000  Uiso   1.00
C89    C     0.48550   0.20487   0.45292   0.00000  Uiso   1.00
C90    C     0.48534   0.12876   0.04699   0.00000  Uiso   1.00
C91    C     0.51453   0.20485   0.09312   0.00000  Uiso   1.00
C92    C     0.51438   0.12855   0.40701   0.00000  Uiso   1.00
C93    C     0.48566   0.20493   0.40691   0.00000  Uiso   1.00
C94    C     0.58007   0.16662   0.24951   0.00000  Uiso   1.00
C95    C     0.48554   0.12862   0.09299   0.00000  Uiso   1.00
C96    C     0.50003   0.16671   0.11602   0.00000  Uiso   1.00
C97    C     0.50000   0.16671   0.38399   0.00000  Uiso   1.00
C98    C     0.50003   0.16680   0.02406   0.00000  Uiso   1.00
C99    C     0.50006   0.16680   0.47595   0.00000  Uiso   1.00
C100   C     0.62421   0.16644   0.24902   0.00000  Uiso   1.00
C101   C     0.37578   0.16648   0.25042   0.00000  Uiso   1.00
C102   C     0.37394   0.06896   0.19936   0.00000  Uiso   1.00
C103   C     0.37881   0.01764   0.19799   0.00000  Uiso   1.00
C104   C     0.62618   0.25751   0.19276   0.00000  Uiso   1.00
C105   C     0.50001   0.16667   0.16389   0.00000  Uiso   1.00
C106   C     0.60079   0.29965   0.18282   0.00000  Uiso   1.00
C107   C     0.62638   0.06825   0.29917   0.00000  Uiso   1.00
C108   C     0.62108   0.01698   0.29987   0.00000  Uiso   1.00
C109   C     0.37363   0.25802   0.30612   0.00000  Uiso   1.00
C110   C     0.39871   0.30048   0.31571   0.00000  Uiso   1.00
C111   C     0.50000   0.16667   0.33612   0.00000  Uiso   1.00
C112   C     0.51151   0.02400   0.28714   0.00000  Uiso   1.00
C113   C     0.48803   0.30935   0.21302   0.00000  Uiso   1.00
C114   C     0.48847   0.02400   0.21287   0.00000  Uiso   1.00
C115   C     0.51194   0.30935   0.28699   0.00000  Uiso   1.00
C116   C     0.35446   0.12496   0.24740   0.00000  Uiso   1.00
H117   H     0.52099   0.04210   0.31676   0.00000  Uiso   1.00
H118   H     0.52643   0.09937   0.47068   0.00000  Uiso   1.00
H119   H     0.47369   0.23423   0.47051   0.00000  Uiso   1.00
H120   H     0.47341   0.09949   0.02931   0.00000  Uiso   1.00
H121   H     0.40000   0.08479   0.18113   0.00000  Uiso   1.00
H122   H     0.34477   0.07741   0.18156   0.00000  Uiso   1.00
H123   H     0.40675   0.00723   0.21638   0.00000  Uiso   1.00
H124   H     0.35200   0.00131   0.21402   0.00000  Uiso   1.00
H125   H     0.38102   0.00583   0.16293   0.00000  Uiso   1.00
H126   H     0.61244   0.22869   0.17374   0.00000  Uiso   1.00
H127   H     0.65811   0.26337   0.18078   0.00000  Uiso   1.00
H128   H     0.47829   0.29125   0.18349   0.00000  Uiso   1.00
H129   H     0.61310   0.32944   0.20110   0.00000  Uiso   1.00
H130   H     0.60150   0.30696   0.14653   0.00000  Uiso   1.00
H131   H     0.56855   0.29384   0.19301   0.00000  Uiso   1.00
H132   H     0.60064   0.08409   0.31790   0.00000  Uiso   1.00
H133   H     0.65580   0.07613   0.31675   0.00000  Uiso   1.00
H134   H     0.64758   0.00060   0.28330   0.00000  Uiso   1.00
H135   H     0.61907   0.00468   0.33478   0.00000  Uiso   1.00
H136   H     0.59290   0.00716   0.28162   0.00000  Uiso   1.00
H137   H     0.38757   0.22948   0.32538   0.00000  Uiso   1.00
H138   H     0.34166   0.26372   0.31805   0.00000  Uiso   1.00
H139   H     0.47898   0.04211   0.18325   0.00000  Uiso   1.00
H140   H     0.38622   0.32998   0.29713   0.00000  Uiso   1.00
H141   H     0.39789   0.30814   0.35193   0.00000  Uiso   1.00
H142   H     0.43100   0.29485   0.30562   0.00000  Uiso   1.00
H143   H     0.52169   0.29124   0.31652   0.00000  Uiso   1.00
H144   H     0.52617   0.23432   0.11072   0.00000  Uiso   1.00
H145   H     0.52591   0.09900   0.38950   0.00000  Uiso   1.00
H146   H     0.47412   0.23445   0.38931   0.00000  Uiso   1.00
H147   H     0.47389   0.09912   0.11049   0.00000  Uiso   1.00
H148   H     0.52664   0.23410   0.02952   0.00000  Uiso   1.00
N149   N     0.50000   0.28573   0.25000   0.00000  Uiso   1.00
N150   N     0.50000   0.04760   0.25000   0.00000  Uiso   1.00
O151   O     0.43892   0.20487   0.24999   0.00000  Uiso   1.00
O152   O     0.62594   0.24889   0.23914   0.00000  Uiso   1.00
O153   O     0.62563   0.08348   0.25444   0.00000  Uiso   1.00
O154   O     0.37398   0.24899   0.25982   0.00000  Uiso   1.00
O155   O     0.56108   0.12846   0.25000   0.00000  Uiso   1.00
O156   O     0.56108   0.20487   0.25000   0.00000  Uiso   1.00
O157   O     0.43892   0.12846   0.24999   0.00000  Uiso   1.00
O158   O     0.50000   0.20489   0.18453   0.00000  Uiso   1.00
O159   O     0.50000   0.12845   0.31547   0.00000  Uiso   1.00
O160   O     0.50000   0.20489   0.31547   0.00000  Uiso   1.00
O161   O     0.50000   0.12845   0.18453   0.00000  Uiso   1.00
O162   O     0.37443   0.08355   0.24430   0.00000  Uiso   1.00
Zn163  Zn    0.50000   0.21771   0.25000   0.00000  Uiso   1.00
Zn164  Zn    0.50000   0.11563   0.25000   0.00000  Uiso   1.00
C165   C     0.75326   0.16663   0.25032   0.00000  Uiso   1.00
C166   C     0.97900   0.20789   0.24636   0.00000  Uiso   1.00
C167   C     0.97891   0.12493   0.25176   0.00000  Uiso   1.00
C168   C     0.68762   0.20792   0.25289   0.00000  Uiso   1.00
C169   C     0.84805   0.20480   0.04710   0.00000  Uiso   1.00
C170   C     0.84793   0.12870   0.45301   0.00000  Uiso   1.00
C171   C     0.81884   0.20487   0.45292   0.00000  Uiso   1.00
C172   C     0.81868   0.12876   0.04699   0.00000  Uiso   1.00
C173   C     0.84786   0.20485   0.09312   0.00000  Uiso   1.00
C174   C     0.84771   0.12855   0.40701   0.00000  Uiso   1.00
C175   C     0.81899   0.20493   0.40691   0.00000  Uiso   1.00
C176   C     0.91341   0.16662   0.24951   0.00000  Uiso   1.00
C177   C     0.81887   0.12862   0.09299   0.00000  Uiso   1.00
C178   C     0.83337   0.16671   0.11602   0.00000  Uiso   1.00
C179   C     0.83333   0.16671   0.38399   0.00000  Uiso   1.00
C180   C     0.83337   0.16680   0.02406   0.00000  Uiso   1.00
C181   C     0.83339   0.16680   0.47595   0.00000  Uiso   1.00
C182   C     0.95755   0.16644   0.24902   0.00000  Uiso   1.00
C183   C     0.70912   0.16648   0.25042   0.00000  Uiso   1.00
C184   C     0.70728   0.06896   0.19936   0.00000  Uiso   1.00
C185   C     0.71214   0.01764   0.19799   0.00000  Uiso   1.00
C186   C     0.95952   0.25751   0.19276   0.00000  Uiso   1.00
C187   C     0.83334   0.16667   0.16389   0.00000  Uiso   1.00
C188   C     0.93412   0.29965   0.18282   0.00000  Uiso   1.00
C189   C     0.95972   0.06825   0.29917   0.00000  Uiso   1.00
C190   C     0.95441   0.01698   0.29987   0.00000  Uiso   1.00
C191   C     0.70696   0.25802   0.30612   0.00000  Uiso   1.00
C192   C     0.73204   0.30048   0.31571   0.00000  Uiso   1.00
C193   C     0.83333   0.16667   0.33612   0.00000  Uiso   1.00
C194   C     0.84484   0.02400   0.28714   0.00000  Uiso   1.00
C195   C     0.82137   0.30935   0.21302   0.00000  Uiso   1.00
C196   C     0.82180   0.02400   0.21287   0.00000  Uiso   1.00
C197   C     0.84528   0.30935   0.28699   0.00000  Uiso   1.00
C198   C     0.68779   0.12496   0.24740   0.00000  Uiso   1.00
H199   H     0.85433   0.04210   0.31676   0.00000  Uiso   1.00
H200   H     0.85976   0.09937   0.47068   0.00000  Uiso   1.00
H201   H     0.80703   0.23423   0.47051   0.00000  Uiso   1.00
H202   H     0.80675   0.09949   0.02931   0.00000  Uiso   1.00
H203   H     0.73333   0.08479   0.18113   0.00000  Uiso   1.00
H204   H     0.67810   0.07741   0.18156   0.00000  Uiso   1.00
H205   H     0.74008   0.00723   0.21638   0.00000  Uiso   1.00
H206   H     0.68534   0.00131   0.21402   0.00000  Uiso   1.00
H207   H     0.71436   0.00583   0.16293   0.00000  Uiso   1.00
H208   H     0.94577   0.22869   0.17374   0.00000  Uiso   1.00
H209   H     0.99144   0.26337   0.18078   0.00000  Uiso   1.00
H210   H     0.81162   0.29125   0.18349   0.00000  Uiso   1.00
H211   H     0.94643   0.32944   0.20110   0.00000  Uiso   1.00
H212   H     0.93483   0.30696   0.14653   0.00000  Uiso   1.00
H213   H     0.90188   0.29384   0.19301   0.00000  Uiso   1.00
H214   H     0.93397   0.08409   0.31790   0.00000  Uiso   1.00
H215   H     0.98913   0.07613   0.31675   0.00000  Uiso   1.00
H216   H     0.98091   0.00060   0.28330   0.00000  Uiso   1.00
H217   H     0.95240   0.00468   0.33478   0.00000  Uiso   1.00
H218   H     0.92623   0.00716   0.28162   0.00000  Uiso   1.00
H219   H     0.72091   0.22948   0.32538   0.00000  Uiso   1.00
H220   H     0.67499   0.26372   0.31805   0.00000  Uiso   1.00
H221   H     0.81232   0.04211   0.18325   0.00000  Uiso   1.00
H222   H     0.71955   0.32998   0.29713   0.00000  Uiso   1.00
H223   H     0.73123   0.30814   0.35193   0.00000  Uiso   1.00
H224   H     0.76433   0.29485   0.30562   0.00000  Uiso   1.00
H225   H     0.85502   0.29124   0.31652   0.00000  Uiso   1.00
H226   H     0.85950   0.23432   0.11072   0.00000  Uiso   1.00
H227   H     0.85924   0.09900   0.38950   0.00000  Uiso   1.00
H228   H     0.80745   0.23445   0.38931   0.00000  Uiso   1.00
H229   H     0.80722   0.09912   0.11049   0.00000  Uiso   1.00
H230   H     0.85997   0.23410   0.02952   0.00000  Uiso   1.00
N231   N     0.83333   0.28573   0.25000   0.00000  Uiso   1.00
N232   N     0.83333   0.04760   0.25000   0.00000  Uiso   1.00
O233   O     0.77226   0.20487   0.24999   0.00000  Uiso   1.00
O234   O     0.95927   0.24889   0.23914   0.00000  Uiso   1.00
O235   O     0.95896   0.08348   0.25444   0.00000  Uiso   1.00
O236   O     0.70731   0.24899   0.25982   0.00000  Uiso   1.00
O237   O     0.89441   0.12846   0.25000   0.00000  Uiso   1.00
O238   O     0.89441   0.20487   0.25000   0.00000  Uiso   1.00
O239   O     0.77226   0.12846   0.24999   0.00000  Uiso   1.00
O240   O     0.83333   0.20489   0.18453   0.00000  Uiso   1.00
O241   O     0.83334   0.12845   0.31547   0.00000  Uiso   1.00
O242   O     0.83334   0.20489   0.31547   0.00000  Uiso   1.00
O243   O     0.83333   0.12845   0.18453   0.00000  Uiso   1.00
O244   O     0.70776   0.08355   0.24430   0.00000  Uiso   1.00
Zn245  Zn    0.83333   0.21771   0.25000   0.00000  Uiso   1.00
Zn246  Zn    0.83333   0.11563   0.25000   0.00000  Uiso   1.00
C247   C     0.08659   0.49997   0.25032   0.00000  Uiso   1.00
C248   C     0.31234   0.54122   0.24636   0.00000  Uiso   1.00
C249   C     0.31224   0.45826   0.25176   0.00000  Uiso   1.00
C250   C     0.02095   0.54126   0.25289   0.00000  Uiso   1.00
C251   C     0.18138   0.53813   0.04710   0.00000  Uiso   1.00
C252   C     0.18127   0.46203   0.45301   0.00000  Uiso   1.00
C253   C     0.15217   0.53821   0.45292   0.00000  Uiso   1.00
C254   C     0.15201   0.46210   0.04699   0.00000  Uiso   1.00
C255   C     0.18120   0.53819   0.09312   0.00000  Uiso   1.00
C256   C     0.18104   0.46189   0.40701   0.00000  Uiso   1.00
C257   C     0.15233   0.53826   0.40691   0.00000  Uiso   1.00
C258   C     0.24674   0.49996   0.24951   0.00000  Uiso   1.00
C259   C     0.15221   0.46195   0.09299   0.00000  Uiso   1.00
C260   C     0.16670   0.50004   0.11602   0.00000  Uiso   1.00
C261   C     0.16667   0.50004   0.38399   0.00000  Uiso   1.00
C262   C     0.16670   0.50013   0.02406   0.00000  Uiso   1.00
C263   C     0.16672   0.50014   0.47595   0.00000  Uiso   1.00
C264   C     0.29088   0.49978   0.24902   0.00000  Uiso   1.00
C265   C     0.04245   0.49981   0.25042   0.00000  Uiso   1.00
C266   C     0.04061   0.40229   0.19936   0.00000  Uiso   1.00
C267   C     0.04547   0.35097   0.19799   0.00000  Uiso   1.00
C268   C     0.29285   0.59084   0.19276   0.00000  Uiso   1.00
C269   C     0.16667   0.50001   0.16389   0.00000  Uiso   1.00
C270   C     0.26746   0.63298   0.18282   0.00000  Uiso   1.00
C271   C     0.29305   0.40158   0.29917   0.00000  Uiso   1.00
C272   C     0.28775   0.35032   0.29987   0.00000  Uiso   1.00
C273   C     0.04030   0.59136   0.30612   0.00000  Uiso   1.00
C274   C     0.06537   0.63381   0.31571   0.00000  Uiso   1.00
C275   C     0.16666   0.50001   0.33612   0.00000  Uiso   1.00
C276   C     0.17818   0.35733   0.28714   0.00000  Uiso   1.00
C277   C     0.15470   0.64268   0.21302   0.00000  Uiso   1.00
C278   C     0.15513   0.35733   0.21287   0.00000  Uiso   1.00
C279   C     0.17861   0.64268   0.28699   0.00000  Uiso   1.00
C280   C     0.02112   0.45830   0.24740   0.00000  Uiso   1.00
H281   H     0.18766   0.37544   0.31676   0.00000  Uiso   1.00
H282   H     0.19310   0.43271   0.47068   0.00000  Uiso   1.00
H283   H     0.14036   0.56756   0.47051   0.00000  Uiso   1.00
H284   H     0.14008   0.43283   0.02931   0.00000  Uiso   1.00
H285   H     0.06666   0.41812   0.18113   0.00000  Uiso   1.00
H286   H     0.01143   0.41075   0.18156   0.00000  Uiso   1.00
H287   H     0.07341   0.34056   0.21638   0.00000  Uiso   1.00
H288   H     0.01867   0.33464   0.21402   0.00000  Uiso   1.00
H289   H     0.04769   0.33916   0.16293   0.00000  Uiso   1.00
H290   H     0.27911   0.56202   0.17374   0.00000  Uiso   1.00
H291   H     0.32478   0.59670   0.18078   0.00000  Uiso   1.00
H292   H     0.14495   0.62458   0.18349   0.00000  Uiso   1.00
H293   H     0.27977   0.66277   0.20110   0.00000  Uiso   1.00
H294   H     0.26817   0.64030   0.14653   0.00000  Uiso   1.00
H295   H     0.23522   0.62717   0.19301   0.00000  Uiso   1.00
H296   H     0.26731   0.41743   0.31790   0.00000  Uiso   1.00
H297   H     0.32247   0.40946   0.31675   0.00000  Uiso   1.00
H298   H     0.31424   0.33393   0.28330   0.00000  Uiso   1.00
H299   H     0.28574   0.33801   0.33478   0.00000  Uiso   1.00
H300   H     0.25957   0.34049   0.28162   0.00000  Uiso   1.00
H301   H     0.05424   0.56282   0.32538   0.00000  Uiso   1.00
H302   H     0.00833   0.59705   0.31805   0.00000  Uiso   1.00
H303   H     0.14565   0.37544   0.18325   0.00000  Uiso   1.00
H304   H     0.05288   0.66332   0.29713   0.00000  Uiso   1.00
H305   H     0.06456   0.64148   0.35193   0.00000  Uiso   1.00
H306   H     0.09766   0.62819   0.30562   0.00000  Uiso   1.00
H307   H     0.18835   0.62457   0.31652   0.00000  Uiso   1.00
H308   H     0.19284   0.56765   0.11072   0.00000  Uiso   1.00
H309   H     0.19258   0.43234   0.38950   0.00000  Uiso   1.00
H310   H     0.14078   0.56778   0.38931   0.00000  Uiso   1.00
H311   H     0.14055   0.43246   0.11049   0.00000  Uiso   1.00
H312   H     0.19331   0.56743   0.02952   0.00000  Uiso   1.00
N313   N     0.16667   0.61907   0.25000   0.00000  Uiso   1.00
N314   N     0.16667   0.38093   0.25000   0.00000  Uiso   1.00
O315   O     0.10559   0.53821   0.24999   0.00000  Uiso   1.00
O316   O     0.29260   0.58222   0.23914   0.00000  Uiso   1.00
O317   O     0.29229   0.41681   0.25444   0.00000  Uiso   1.00
O318   O     0.04064   0.58233   0.25982   0.00000  Uiso   1.00
O319   O     0.22774   0.46179   0.25000   0.00000  Uiso   1.00
O320   O     0.22774   0.53821   0.25000   0.00000  Uiso   1.00
O321   O     0.10559   0.46179   0.24999   0.00000  Uiso   1.00
O322   O     0.16666   0.53822   0.18453   0.00000  Uiso   1.00
O323   O     0.16667   0.46178   0.31547   0.00000  Uiso   1.00
O324   O     0.16667   0.53822   0.31547   0.00000  Uiso   1.00
O325   O     0.16666   0.46178   0.18453   0.00000  Uiso   1.00
O326   O     0.04109   0.41688   0.24430   0.00000  Uiso   1.00
Zn327  Zn    0.16667   0.55104   0.25000   0.00000  Uiso   1.00
Zn328  Zn    0.16667   0.44896   0.25000   0.00000  Uiso   1.00
C329   C     0.41992   0.49997   0.25032   0.00000  Uiso   1.00
C330   C     0.64567   0.54122   0.24636   0.00000  Uiso   1.00
C331   C     0.64558   0.45826   0.25176   0.00000  Uiso   1.00
C332   C     0.35428   0.54126   0.25289   0.00000  Uiso   1.00
C333   C     0.51472   0.53813   0.04710   0.00000  Uiso   1.00
C334   C     0.51460   0.46203   0.45301   0.00000  Uiso   1.00
C335   C     0.48550   0.53821   0.45292   0.00000  Uiso   1.00
C336   C     0.48534   0.46210   0.04699   0.00000  Uiso   1.00
C337   C     0.51453   0.53819   0.09312   0.00000  Uiso   1.00
C338   C     0.51438   0.46189   0.40701   0.00000  Uiso   1.00
C339   C     0.48566   0.53826   0.40691   0.00000  Uiso   1.00
C340   C     0.58007   0.49996   0.24951   0.00000  Uiso   1.00
C341   C     0.48554   0.46195   0.09299   0.00000  Uiso   1.00
C342   C     0.50003   0.50004   0.11602   0.00000  Uiso   1.00
C343   C     0.50000   0.50004   0.38399   0.00000  Uiso   1.00
C344   C     0.50003   0.50013   0.02406   0.00000  Uiso   1.00
C345   C     0.50006   0.50014   0.47595   0.00000  Uiso   1.00
C346   C     0.62421   0.49978   0.24902   0.00000  Uiso   1.00
C347   C     0.37578   0.49981   0.25042   0.00000  Uiso   1.00
C348   C     0.37394   0.40229   0.19936   0.00000  Uiso   1.00
C349   C     0.37881   0.35097   0.19799   0.00000  Uiso   1.00
C350   C     0.62618   0.59084   0.19276   0.00000  Uiso   1.00
C351   C     0.50001   0.50001   0.16389   0.00000  Uiso   1.00
C352   C     0.60079   0.63298   0.18282   0.00000  Uiso   1.00
C353   C     0.62638   0.40158   0.29917   0.00000  Uiso   1.00
C354   C     0.62108   0.35032   0.29987   0.00000  Uiso   1.00
C355   C     0.37363   0.59136   0.30612   0.00000  Uiso   1.00
C356   C     0.39871   0.63381   0.31571   0.00000  Uiso   1.00
C357   C     0.50000   0.50001   0.33612   0.00000  Uiso   1.00
C358   C     0.51151   0.35733   0.28714   0.00000  Uiso   1.00
C359   C     0.48803   0.64268   0.21302   0.00000  Uiso   1.00
C360   C     0.48847   0.35733   0.21287   0.00000  Uiso   1.00
C361   C     0.51194   0.64268   0.28699   0.00000  Uiso   1.00
C362   C     0.35446   0.45830   0.24740   0.00000  Uiso   1.00
H363   H     0.52099   0.37544   0.31676   0.00000  Uiso   1.00
H364   H     0.52643   0.43271   0.47068   0.00000  Uiso   1.00
H365   H     0.47369   0.56756   0.47051   0.00000  Uiso   1.00
H366   H     0.47341   0.43283   0.02931   0.00000  Uiso   1.00
H367   H     0.40000   0.41812   0.18113   0.00000  Uiso   1.00
H368   H     0.34477   0.41075   0.18156   0.00000  Uiso   1.00
H369   H     0.40675   0.34056   0.21638   0.00000  Uiso   1.00
H370   H     0.35200   0.33464   0.21402   0.00000  Uiso   1.00
H371   H     0.38102   0.33916   0.16293   0.00000  Uiso   1.00
H372   H     0.61244   0.56202   0.17374   0.00000  Uiso   1.00
H373   H     0.65811   0.59670   0.18078   0.00000  Uiso   1.00
H374   H     0.47829   0.62458   0.18349   0.00000  Uiso   1.00
H375   H     0.61310   0.66277   0.20110   0.00000  Uiso   1.00
H376   H     0.60150   0.64030   0.14653   0.00000  Uiso   1.00
H377   H     0.56855   0.62717   0.19301   0.00000  Uiso   1.00
H378   H     0.60064   0.41743   0.31790   0.00000  Uiso   1.00
H379   H     0.65580   0.40946   0.31675   0.00000  Uiso   1.00
H380   H     0.64758   0.33393   0.28330   0.00000  Uiso   1.00
H381   H     0.61907   0.33801   0.33478   0.00000  Uiso   1.00
H382   H     0.59290   0.34049   0.28162   0.00000  Uiso   1.00
H383   H     0.38757   0.56282   0.32538   0.00000  Uiso   1.00
H384   H     0.34166   0.59705   0.31805   0.00000  Uiso   1.00
H385   H     0.47898   0.37544   0.18325   0.00000  Uiso   1.00
H386   H     0.38622   0.66332   0.29713   0.00000  Uiso   1.00
H387   H     0.39789   0.64148   0.35193   0.00000  Uiso   1.00
H388   H     0.43100   0.62819   0.30562   0.00000  Uiso   1.00
H389   H     0.52169   0.62457   0.31652   0.00000  Uiso   1.00
H390   H     0.52617   0.56765   0.11072   0.00000  Uiso   1.00
H391   H     0.52591   0.43234   0.38950   0.00000  Uiso   1.00
H392   H     0.47412   0.56778   0.38931   0.00000  Uiso   1.00
H393   H     0.47389   0.43246   0.11049   0.00000  Uiso   1.00
H394   H     0.52664   0.56743   0.02952   0.00000  Uiso   1.00
N395   N     0.50000   0.61907   0.25000   0.00000  Uiso   1.00
N396   N     0.50000   0.38093   0.25000   0.00000  Uiso   1.00
O397   O     0.43892   0.53821   0.24999   0.00000  Uiso   1.00
O398   O     0.62594   0.58222   0.23914   0.00000  Uiso   1.00
O399   O     0.62563   0.41681   0.25444   0.00000  Uiso   1.00
O400   O     0.37398   0.58233   0.25982   0.00000  Uiso   1.00
O401   O     0.56108   0.46179   0.25000   0.00000  Uiso   1.00
O402   O     0.56108   0.53821   0.25000   0.00000  Uiso   1.00
O403   O     0.43892   0.46179   0.24999   0.00000  Uiso   1.00
O404   O     0.50000   0.53822   0.18453   0.00000  Uiso   1.00
O405   O     0.50000   0.46178   0.31547   0.00000  Uiso   1.00
O406   O     0.50000   0.53822   0.31547   0.00000  Uiso   1.00
O407   O     0.50000   0.46178   0.18453   0.00000  Uiso   1.00
O408   O     0.37443   0.41688   0.24430   0.00000  Uiso   1.00
Zn409  Zn    0.50000   0.55104   0.25000   0.00000  Uiso   1.00
Zn410  Zn    0.50000   0.44896   0.25000   0.00000  Uiso   1.00
C411   C     0.75326   0.49997   0.25032   0.00000  Uiso   1.00
C412   C     0.97900   0.54122   0.24636   0.00000  Uiso   1.00
C413   C     0.97891   0.45826   0.25176   0.00000  Uiso   1.00
C414   C     0.68762   0.54126   0.25289   0.00000  Uiso   1.00
C415   C     0.84805   0.53813   0.04710   0.00000  Uiso   1.00
C416   C     0.84793   0.46203   0.45301   0.00000  Uiso   1.00
C417   C     0.81884   0.53821   0.45292   0.00000  Uiso   1.00
C418   C     0.81868   0.46210   0.04699   0.00000  Uiso   1.00
C419   C     0.84786   0.53819   0.09312   0.00000  Uiso   1.00
C420   C     0.84771   0.46189   0.40701   0.00000  Uiso   1.00
C421   C     0.81899   0.53826   0.40691   0.00000  Uiso   1.00
C422   C     0.91341   0.49996   0.24951   0.00000  Uiso   1.00
C423   C     0.81887   0.46195   0.09299   0.00000  Uiso   1.00
C424   C     0.83337   0.50004   0.11602   0.00000  Uiso   1.00
C425   C     0.83333   0.50004   0.38399   0.00000  Uiso   1.00
C426   C     0.83337   0.50013   0.02406   0.00000  Uiso   1.00
C427   C     0.83339   0.50014   0.47595   0.00000  Uiso   1.00
C428   C     0.95755   0.49978   0.24902   0.00000  Uiso   1.00
C429   C     0.70912   0.49981   0.25042   0.00000  Uiso   1.00
C430   C     0.70728   0.40229   0.19936   0.00000  Uiso   1.00
C431   C     0.71214   0.35097   0.19799   0.00000  Uiso   1.00
C432   C     0.95952   0.59084   0.19276   0.00000  Uiso   1.00
C433   C     0.83334   0.50001   0.16389   0.00000  Uiso   1.00
C434   C     0.93412   0.63298   0.18282   0.00000  Uiso   1.00
C435   C     0.95972   0.40158   0.29917   0.00000  Uiso   1.00
C436   C     0.95441   0.35032   0.29987   0.00000  Uiso   1.00
C437   C     0.70696   0.59136   0.30612   0.00000  Uiso   1.00
C438   C     0.73204   0.63381   0.31571   0.00000  Uiso   1.00
C439   C     0.83333   0.50001   0.33612   0.00000  Uiso   1.00
C440   C     0.84484   0.35733   0.28714   0.00000  Uiso   1.00
C441   C     0.82137   0.64268   0.21302   0.00000  Uiso   1.00
C442   C     0.82180   0.35733   0.21287   0.00000  Uiso   1.00
C443   C     0.84528   0.64268   0.28699   0.00000  Uiso   1.00
C444   C     0.68779   0.45830   0.24740   0.00000  Uiso   1.00
H445   H     0.85433   0.37544   0.31676   0.00000  Uiso   1.00
H446   H     0.85976   0.43271   0.47068   0.00000  Uiso   1.00
H447   H     0.80703   0.56756   0.47051   0.00000  Uiso   1.00
H448   H     0.80675   0.43283   0.02931   0.00000  Uiso   1.00
H449   H     0.73333   0.41812   0.18113   0.00000  Uiso   1.00
H450   H     0.67810   0.41075   0.18156   0.00000  Uiso   1.00
H451   H     0.74008   0.34056   0.21638   0.00000  Uiso   1.00
H452   H     0.68534   0.33464   0.21402   0.00000  Uiso   1.00
H453   H     0.71436   0.33916   0.16293   0.00000  Uiso   1.00
H454   H     0.94577   0.56202   0.17374   0.00000  Uiso   1.00
H455   H     0.99144   0.59670   0.18078   0.00000  Uiso   1.00
H456   H     0.81162   0.62458   0.18349   0.00000  Uiso   1.00
H457   H     0.94643   0.66277   0.20110   0.00000  Uiso   1.00
H458   H     0.93483   0.64030   0.14653   0.00000  Uiso   1.00
H459   H     0.90188   0.62717   0.19301   0.00000  Uiso   1.00
H460   H     0.93397   0.41743   0.31790   0.00000  Uiso   1.00
H461   H     0.98913   0.40946   0.31675   0.00000  Uiso   1.00
H462   H     0.98091   0.33393   0.28330   0.00000  Uiso   1.00
H463   H     0.95240   0.33801   0.33478   0.00000  Uiso   1.00
H464   H     0.92623   0.34049   0.28162   0.00000  Uiso   1.00
H465   H     0.72091   0.56282   0.32538   0.00000  Uiso   1.00
H466   H     0.67499   0.59705   0.31805   0.00000  Uiso   1.00
H467   H     0.81232   0.37544   0.18325   0.00000  Uiso   1.00
H468   H     0.71955   0.66332   0.29713   0.00000  Uiso   1.00
H469   H     0.73123   0.64148   0.35193   0.00000  Uiso   1.00
H470   H     0.76433   0.62819   0.30562   0.00000  Uiso   1.00
H471   H     0.85502   0.62457   0.31652   0.00000  Uiso   1.00
H472   H     0.85950   0.56765   0.11072   0.00000  Uiso   1.00
H473   H     0.85924   0.43234   0.38950   0.00000  Uiso   1.00
H474   H     0.80745   0.56778   0.38931   0.00000  Uiso   1.00
H475   H     0.80722   0.43246   0.11049   0.00000  Uiso   1.00
H476   H     0.85997   0.56743   0.02952   0.00000  Uiso   1.00
N477   N     0.83333   0.61907   0.25000   0.00000  Uiso   1.00
N478   N     0.83333   0.38093   0.25000   0.00000  Uiso   1.00
O479   O     0.77226   0.53821   0.24999   0.00000  Uiso   1.00
O480   O     0.95927   0.58222   0.23914   0.00000  Uiso   1.00
O481   O     0.95896   0.41681   0.25444   0.00000  Uiso   1.00
O482   O     0.70731   0.58233   0.25982   0.00000  Uiso   1.00
O483   O     0.89441   0.46179   0.25000   0.00000  Uiso   1.00
O484   O     0.89441   0.53821   0.25000   0.00000  Uiso   1.00
O485   O     0.77226   0.46179   0.24999   0.00000  Uiso   1.00
O486   O     0.83333   0.53822   0.18453   0.00000  Uiso   1.00
O487   O     0.83334   0.46178   0.31547   0.00000  Uiso   1.00
O488   O     0.83334   0.53822   0.31547   0.00000  Uiso   1.00
O489   O     0.83333   0.46178   0.18453   0.00000  Uiso   1.00
O490   O     0.70776   0.41688   0.24430   0.00000  Uiso   1.00
Zn491  Zn    0.83333   0.55104   0.25000   0.00000  Uiso   1.00
Zn492  Zn    0.83333   0.44896   0.25000   0.00000  Uiso   1.00
C493   C     0.08659   0.83330   0.25032   0.00000  Uiso   1.00
C494   C     0.31234   0.87455   0.24636   0.00000  Uiso   1.00
C495   C     0.31224   0.79160   0.25176   0.00000  Uiso   1.00
C496   C     0.02095   0.87459   0.25289   0.00000  Uiso   1.00
C497   C     0.18138   0.87146   0.04710   0.00000  Uiso   1.00
C498   C     0.18127   0.79537   0.45301   0.00000  Uiso   1.00
C499   C     0.15217   0.87154   0.45292   0.00000  Uiso   1.00
C500   C     0.15201   0.79543   0.04699   0.00000  Uiso   1.00
C501   C     0.18120   0.87152   0.09312   0.00000  Uiso   1.00
C502   C     0.18104   0.79522   0.40701   0.00000  Uiso   1.00
C503   C     0.15233   0.87159   0.40691   0.00000  Uiso   1.00
C504   C     0.24674   0.83329   0.24951   0.00000  Uiso   1.00
C505   C     0.15221   0.79528   0.09299   0.00000  Uiso   1.00
C506   C     0.16670   0.83337   0.11602   0.00000  Uiso   1.00
C507   C     0.16667   0.83338   0.38399   0.00000  Uiso   1.00
C508   C     0.16670   0.83346   0.02406   0.00000  Uiso   1.00
C509   C     0.16672   0.83347   0.47595   0.00000  Uiso   1.00
C510   C     0.29088   0.83311   0.24902   0.00000  Uiso   1.00
C511   C     0.04245   0.83314   0.25042   0.00000  Uiso   1.00
C512   C     0.04061   0.73562   0.19936   0.00000  Uiso   1.00
C513   C     0.04547   0.68431   0.19799   0.00000  Uiso   1.00
C514   C     0.29285   0.92417   0.19276   0.00000  Uiso   1.00
C515   C     0.16667   0.83334   0.16389   0.00000  Uiso   1.00
C516   C     0.26746   0.96632   0.18282   0.00000  Uiso   1.00
C517   C     0.29305   0.73491   0.29917   0.00000  Uiso   1.00
C518   C     0.28775   0.68365   0.29987   0.00000  Uiso   1.00
C519   C     0.04030   0.92469   0.30612   0.00000  Uiso   1.00
C520   C     0.06537   0.96715   0.31571   0.00000  Uiso   1.00
C521   C     0.16666   0.83334   0.33612   0.00000  Uiso   1.00
C522   C     0.17818   0.69066   0.28714   0.00000  Uiso   1.00
C523   C     0.15470   0.97602   0.21302   0.00000  Uiso   1.00
C524   C     0.15513   0.69066   0.21287   0.00000  Uiso   1.00
C525   C     0.17861   0.97601   0.28699   0.00000  Uiso   1.00
C526   C     0.02112   0.79163   0.24740   0.00000  Uiso   1.00
H527   H     0.18766   0.70877   0.31676   0.00000  Uiso   1.00
H528   H     0.19310   0.76604   0.47068   0.00000  Uiso   1.00
H529   H     0.14036   0.90090   0.47051   0.00000  Uiso   1.00
H530   H     0.14008   0.76616   0.02931   0.00000  Uiso   1.00
H531   H     0.06666   0.75145   0.18113   0.00000  Uiso   1.00
H532   H     0.01143   0.74408   0.18156   0.00000  Uiso   1.00
H533   H     0.07341   0.67390   0.21638   0.00000  Uiso   1.00
H534   H     0.01867   0.66798   0.21402   0.00000  Uiso   1.00
H535   H     0.04769   0.67250   0.16293   0.00000  Uiso   1.00
H536   H     0.27911   0.89535   0.17374   0.00000  Uiso   1.00
H537   H     0.32478   0.93004   0.18078   0.00000  Uiso   1.00
H538   H     0.14495   0.95791   0.18349   0.00000  Uiso   1.00
H539   H     0.27977   0.99610   0.20110   0.00000  Uiso   1.00
H540   H     0.26817   0.97363   0.14653   0.00000  Uiso   1.00
H541   H     0.23522   0.96050   0.19301   0.00000  Uiso   1.00
H542   H     0.26731   0.75076   0.31790   0.00000  Uiso   1.00
H543   H     0.32247   0.74279   0.31675   0.00000  Uiso   1.00
H544   H     0.31424   0.66727   0.28330   0.00000  Uiso   1.00
H545   H     0.28574   0.67135   0.33478   0.00000  Uiso   1.00
H546   H     0.25957   0.67382   0.28162   0.00000  Uiso   1.00
H547   H     0.05424   0.89615   0.32538   0.00000  Uiso   1.00
H548   H     0.00833   0.93038   0.31805   0.00000  Uiso   1.00
H549   H     0.14565   0.70877   0.18325   0.00000  Uiso   1.00
H550   H     0.05288   0.99665   0.29713   0.00000  Uiso   1.00
H551   H     0.06456   0.97481   0.35193   0.00000  Uiso   1.00
H552   H     0.09766   0.96152   0.30562   0.00000  Uiso   1.00
H553   H     0.18835   0.95791   0.31652   0.00000  Uiso   1.00
H554   H     0.19284   0.90099   0.11072   0.00000  Uiso   1.00
H555   H     0.19258   0.76567   0.38950   0.00000  Uiso   1.00
H556   H     0.14078   0.90112   0.38931   0.00000  Uiso   1.00
H557   H     0.14055   0.76579   0.11049   0.00000  Uiso   1.00
H558   H     0.19331   0.90076   0.02952   0.00000  Uiso   1.00
N559   N     0.16667   0.95240   0.25000   0.00000  Uiso   1.00
N560   N     0.16667   0.71427   0.25000   0.00000  Uiso   1.00
O561   O     0.10559   0.87154   0.24999   0.00000  Uiso   1.00
O562   O     0.29260   0.91555   0.23914   0.00000  Uiso   1.00
O563   O     0.29229   0.75015   0.25444   0.00000  Uiso   1.00
O564   O     0.04064   0.91566   0.25982   0.00000  Uiso   1.00
O565   O     0.22774   0.79513   0.25000   0.00000  Uiso   1.00
O566   O     0.22774   0.87154   0.25000   0.00000  Uiso   1.00
O567   O     0.10559   0.79513   0.24999   0.00000  Uiso   1.00
O568   O     0.16666   0.87155   0.18453   0.00000  Uiso   1.00
O569   O     0.16667   0.79511   0.31547   0.00000  Uiso   1.00
O570   O     0.16667   0.87155   0.31547   0.00000  Uiso   1.00
O571   O     0.16666   0.79511   0.18453   0.00000  Uiso   1.00
O572   O     0.04109   0.75022   0.24430   0.00000  Uiso   1.00
Zn573  Zn    0.16667   0.88437   0.25000   0.00000  Uiso   1.00
Zn574  Zn    0.16667   0.78229   0.25000   0.00000  Uiso   1.00
C575   C     0.41992   0.83330   0.25032   0.00000  Uiso   1.00
C576   C     0.64567   0.87455   0.24636   0.00000  Uiso   1.00
C577   C     0.64558   0.79160   0.25176   0.00000  Uiso   1.00
C578   C     0.35428   0.87459   0.25289   0.00000  Uiso   1.00
C579   C     0.51472   0.87146   0.04710   0.00000  Uiso   1.00
C580   C     0.51460   0.79537   0.45301   0.00000  Uiso   1.00
C581   C     0.48550   0.87154   0.45292   0.00000  Uiso   1.00
C582   C     0.48534   0.79543   0.04699   0.00000  Uiso   1.00
C583   C     0.51453   0.87152   0.09312   0.00000  Uiso   1.00
C584   C     0.51438   0.79522   0.40701   0.00000  Uiso   1.00
C585   C     0.48566   0.87159   0.40691   0.00000  Uiso   1.00
C586   C     0.58007   0.83329   0.24951   0.00000  Uiso   1.00
C587   C     0.48554   0.79528   0.09299   0.00000  Uiso   1.00
C588   C     0.50003   0.83337   0.11602   0.00000  Uiso   1.00
C589   C     0.50000   0.83338   0.38399   0.00000  Uiso   1.00
C590   C     0.50003   0.83346   0.02406   0.00000  Uiso   1.00
C591   C     0.50006   0.83347   0.47595   0.00000  Uiso   1.00
C592   C     0.62421   0.83311   0.24902   0.00000  Uiso   1.00
C593   C     0.37578   0.83314   0.25042   0.00000  Uiso   1.00
C594   C     0.37394   0.73562   0.19936   0.00000  Uiso   1.00
C595   C     0.37881   0.68431   0.19799   0.00000  Uiso   1.00
C596   C     0.62618   0.92417   0.19276   0.00000  Uiso   1.00
C597   C     0.50001   0.83334   0.16389   0.00000  Uiso   1.00
C598   C     0.60079   0.96632   0.18282   0.00000  Uiso   1.00
C599   C     0.62638   0.73491   0.29917   0.00000  Uiso   1.00
C600   C     0.62108   0.68365   0.29987   0.00000  Uiso   1.00
C601   C     0.37363   0.92469   0.30612   0.00000  Uiso   1.00
C602   C     0.39871   0.96715   0.31571   0.00000  Uiso   1.00
C603   C     0.50000   0.83334   0.33612   0.00000  Uiso   1.00
C604   C     0.51151   0.69066   0.28714   0.00000  Uiso   1.00
C605   C     0.48803   0.97602   0.21302   0.00000  Uiso   1.00
C606   C     0.48847   0.69066   0.21287   0.00000  Uiso   1.00
C607   C     0.51194   0.97601   0.28699   0.00000  Uiso   1.00
C608   C     0.35446   0.79163   0.24740   0.00000  Uiso   1.00
H609   H     0.52099   0.70877   0.31676   0.00000  Uiso   1.00
H610   H     0.52643   0.76604   0.47068   0.00000  Uiso   1.00
H611   H     0.47369   0.90090   0.47051   0.00000  Uiso   1.00
H612   H     0.47341   0.76616   0.02931   0.00000  Uiso   1.00
H613   H     0.40000   0.75145   0.18113   0.00000  Uiso   1.00
H614   H     0.34477   0.74408   0.18156   0.00000  Uiso   1.00
H615   H     0.40675   0.67390   0.21638   0.00000  Uiso   1.00
H616   H     0.35200   0.66798   0.21402   0.00000  Uiso   1.00
H617   H     0.38102   0.67250   0.16293   0.00000  Uiso   1.00
H618   H     0.61244   0.89535   0.17374   0.00000  Uiso   1.00
H619   H     0.65811   0.93004   0.18078   0.00000  Uiso   1.00
H620   H     0.47829   0.95791   0.18349   0.00000  Uiso   1.00
H621   H     0.61310   0.99610   0.20110   0.00000  Uiso   1.00
H622   H     0.60150   0.97363   0.14653   0.00000  Uiso   1.00
H623   H     0.56855   0.96050   0.19301   0.00000  Uiso   1.00
H624   H     0.60064   0.75076   0.31790   0.00000  Uiso   1.00
H625   H     0.65580   0.74279   0.31675   0.00000  Uiso   1.00
H626   H     0.64758   0.66727   0.28330   0.00000  Uiso   1.00
H627   H     0.61907   0.67135   0.33478   0.00000  Uiso   1.00
H628   H     0.59290   0.67382   0.28162   0.00000  Uiso   1.00
H629   H     0.38757   0.89615   0.32538   0.00000  Uiso   1.00
H630   H     0.34166   0.93038   0.31805   0.00000  Uiso   1.00
H631   H     0.47898   0.70877   0.18325   0.00000  Uiso   1.00
H632   H     0.38622   0.99665   0.29713   0.00000  Uiso   1.00
H633   H     0.39789   0.97481   0.35193   0.00000  Uiso   1.00
H634   H     0.43100   0.96152   0.30562   0.00000  Uiso   1.00
H635   H     0.52169   0.95791   0.31652   0.00000  Uiso   1.00
H636   H     0.52617   0.90099   0.11072   0.00000  Uiso   1.00
H637   H     0.52591   0.76567   0.38950   0.00000  Uiso   1.00
H638   H     0.47412   0.90112   0.38931   0.00000  Uiso   1.00
H639   H     0.47389   0.76579   0.11049   0.00000  Uiso   1.00
H640   H     0.52664   0.90076   0.02952   0.00000  Uiso   1.00
N641   N     0.50000   0.95240   0.25000   0.00000  Uiso   1.00
N642   N     0.50000   0.71427   0.25000   0.00000  Uiso   1.00
O643   O     0.43892   0.87154   0.24999   0.00000  Uiso   1.00
O644   O     0.62594   0.91555   0.23914   0.00000  Uiso   1.00
O645   O     0.62563   0.75015   0.25444   0.00000  Uiso   1.00
O646   O     0.37398   0.91566   0.25982   0.00000  Uiso   1.00
O647   O     0.56108   0.79513   0.25000   0.00000  Uiso   1.00
O648   O     0.56108   0.87154   0.25000   0.00000  Uiso   1.00
O649   O     0.43892   0.79513   0.24999   0.00000  Uiso   1.00
O650   O     0.50000   0.87155   0.18453   0.00000  Uiso   1.00
O651   O     0.50000   0.79511   0.31547   0.00000  Uiso   1.00
O652   O     0.50000   0.87155   0.31547   0.00000  Uiso   1.00
O653   O     0.50000   0.79511   0.18453   0.00000  Uiso   1.00
O654   O     0.37443   0.75022   0.24430   0.00000  Uiso   1.00
Zn655  Zn    0.50000   0.88437   0.25000   0.00000  Uiso   1.00
Zn656  Zn    0.50000   0.78229   0.25000   0.00000  Uiso   1.00
C657   C     0.75326   0.83330   0.25032   0.00000  Uiso   1.00
C658   C     0.97900   0.87455   0.24636   0.00000  Uiso   1.00
C659   C     0.97891   0.79160   0.25176   0.00000  Uiso   1.00
C660   C     0.68762   0.87459   0.25289   0.00000  Uiso   1.00
C661   C     0.84805   0.87146   0.04710   0.00000  Uiso   1.00
C662   C     0.84793   0.79537   0.45301   0.00000  Uiso   1.00
C663   C     0.81884   0.87154   0.45292   0.00000  Uiso   1.00
C664   C     0.81868   0.79543   0.04699   0.00000  Uiso   1.00
C665   C     0.84786   0.87152   0.09312   0.00000  Uiso   1.00
C666   C     0.84771   0.79522   0.40701   0.00000  Uiso   1.00
C667   C     0.81899   0.87159   0.40691   0.00000  Uiso   1.00
C668   C     0.91341   0.83329   0.24951   0.00000  Uiso   1.00
C669   C     0.81887   0.79528   0.09299   0.00000  Uiso   1.00
C670   C     0.83337   0.83337   0.11602   0.00000  Uiso   1.00
C671   C     0.83333   0.83338   0.38399   0.00000  Uiso   1.00
C672   C     0.83337   0.83346   0.02406   0.00000  Uiso   1.00
C673   C     0.83339   0.83347   0.47595   0.00000  Uiso   1.00
C674   C     0.95755   0.83311   0.24902   0.00000  Uiso   1.00
C675   C     0.70912   0.83314   0.25042   0.00000  Uiso   1.00
C676   C     0.70728   0.73562   0.19936   0.00000  Uiso   1.00
C677   C     0.71214   0.68431   0.19799   0.00000  Uiso   1.00
C678   C     0.95952   0.92417   0.19276   0.00000  Uiso   1.00
C679   C     0.83334   0.83334   0.16389   0.00000  Uiso   1.00
C680   C     0.93412   0.96632   0.18282   0.00000  Uiso   1.00
C681   C     0.95972   0.73491   0.29917   0.00000  Uiso   1.00
C682   C     0.95441   0.68365   0.29987   0.00000  Uiso   1.00
C683   C     0.70696   0.92469   0.30612   0.00000  Uiso   1.00
C684   C     0.73204   0.96715   0.31571   0.00000  Uiso   1.00
C685   C     0.83333   0.83334   0.33612   0.00000  Uiso   1.00
C686   C     0.84484   0.69066   0.28714   0.00000  Uiso   1.00
C687   C     0.82137   0.97602   0.21302   0.00000  Uiso   1.00
C688   C     0.82180   0.69066   0.21287   0.00000  Uiso   1.00
C689   C     0.84528   0.97601   0.28699   0.00000  Uiso   1.00
C690   C     0.68779   0.79163   0.24740   0.00000  Uiso   1.00
H691   H     0.85433   0.70877   0.31676   0.00000  Uiso   1.00
H692   H     0.85976   0.76604   0.47068   0.00000  Uiso   1.00
H693   H     0.80703   0.90090   0.47051   0.00000  Uiso   1.00
H694   H     0.80675   0.76616   0.02931   0.00000  Uiso   1.00
H695   H     0.73333   0.75145   0.18113   0.00000  Uiso   1.00
H696   H     0.67810   0.74408   0.18156   0.00000  Uiso   1.00
H697   H     0.74008   0.67390   0.21638   0.00000  Uiso   1.00
H698   H     0.68534   0.66798   0.21402   0.00000  Uiso   1.00
H699   H     0.71436   0.67250   0.16293   0.00000  Uiso   1.00
H700   H     0.94577   0.89535   0.17374   0.00000  Uiso   1.00
H701   H     0.99144   0.93004   0.18078   0.00000  Uiso   1.00
H702   H     0.81162   0.95791   0.18349   0.00000  Uiso   1.00
H703   H     0.94643   0.99610   0.20110   0.00000  Uiso   1.00
H704   H     0.93483   0.97363   0.14653   0.00000  Uiso   1.00
H705   H     0.90188   0.96050   0.19301   0.00000  Uiso   1.00
H706   H     0.93397   0.75076   0.31790   0.00000  Uiso   1.00
H707   H     0.98913   0.74279   0.31675   0.00000  Uiso   1.00
H708   H     0.98091   0.66727   0.28330   0.00000  Uiso   1.00
H709   H     0.95240   0.67135   0.33478   0.00000  Uiso   1.00
H710   H     0.92623   0.67382   0.28162   0.00000  Uiso   1.00
H711   H     0.72091   0.89615   0.32538   0.00000  Uiso   1.00
H712   H     0.67499   0.93038   0.31805   0.00000  Uiso   1.00
H713   H     0.81232   0.70877   0.18325   0.00000  Uiso   1.00
H714   H     0.71955   0.99665   0.29713   0.00000  Uiso   1.00
H715   H     0.73123   0.97481   0.35193   0.00000  Uiso   1.00
H716   H     0.76433   0.96152   0.30562   0.00000  Uiso   1.00
H717   H     0.85502   0.95791   0.31652   0.00000  Uiso   1.00
H718   H     0.85950   0.90099   0.11072   0.00000  Uiso   1.00
H719   H     0.85924   0.76567   0.38950   0.00000  Uiso   1.00
H720   H     0.80745   0.90112   0.38931   0.00000  Uiso   1.00
H721   H     0.80722   0.76579   0.11049   0.00000  Uiso   1.00
H722   H     0.85997   0.90076   0.02952   0.00000  Uiso   1.00
N723   N     0.83333   0.95240   0.25000   0.00000  Uiso   1.00
N724   N     0.83333   0.71427   0.25000   0.00000  Uiso   1.00
O725   O     0.77226   0.87154   0.24999   0.00000  Uiso   1.00
O726   O     0.95927   0.91555   0.23914   0.00000  Uiso   1.00
O727   O     0.95896   0.75015   0.25444   0.00000  Uiso   1.00
O728   O     0.70731   0.91566   0.25982   0.00000  Uiso   1.00
O729   O     0.89441   0.79513   0.25000   0.00000  Uiso   1.00
O730   O     0.89441   0.87154   0.25000   0.00000  Uiso   1.00
O731   O     0.77226   0.79513   0.24999   0.00000  Uiso   1.00
O732   O     0.83333   0.87155   0.18453   0.00000  Uiso   1.00
O733   O     0.83334   0.79511   0.31547   0.00000  Uiso   1.00
O734   O     0.83334   0.87155   0.31547   0.00000  Uiso   1.00
O735   O     0.83333   0.79511   0.18453   0.00000  Uiso   1.00
O736   O     0.70776   0.75022   0.24430   0.00000  Uiso   1.00
Zn737  Zn    0.83333   0.88437   0.25000   0.00000  Uiso   1.00
Zn738  Zn    0.83333   0.78229   0.25000   0.00000  Uiso   1.00
C739   C     0.08659   0.16663   0.75032   0.00000  Uiso   1.00
C740   C     0.31234   0.20789   0.74636   0.00000  Uiso   1.00
C741   C     0.31224   0.12493   0.75176   0.00000  Uiso   1.00
C742   C     0.02095   0.20792   0.75289   0.00000  Uiso   1.00
C743   C     0.18138   0.20480   0.54710   0.00000  Uiso   1.00
C744   C     0.18127   0.12870   0.95301   0.00000  Uiso   1.00
C745   C     0.15217   0.20487   0.95292   0.00000  Uiso   1.00
C746   C     0.15201   0.12876   0.54699   0.00000  Uiso   1.00
C747   C     0.18120   0.20485   0.59312   0.00000  Uiso   1.00
C748   C     0.18104   0.12855   0.90701   0.00000  Uiso   1.00
C749   C     0.15233   0.20493   0.90691   0.00000  Uiso   1.00
C750   C     0.24674   0.16662   0.74951   0.00000  Uiso   1.00
C751   C     0.15221   0.12862   0.59299   0.00000  Uiso   1.00
C752   C     0.16670   0.16671   0.61602   0.00000  Uiso   1.00
C753   C     0.16667   0.16671   0.88399   0.00000  Uiso   1.00
C754   C     0.16670   0.16680   0.52406   0.00000  Uiso   1.00
C755   C     0.16672   0.16680   0.97595   0.00000  Uiso   1.00
C756   C     0.29088   0.16644   0.74902   0.00000  Uiso   1.00
C757   C     0.04245   0.16648   0.75042   0.00000  Uiso   1.00
C758   C     0.04061   0.06896   0.69936   0.00000  Uiso   1.00
C759   C     0.04547   0.01764   0.69799   0.00000  Uiso   1.00
C760   C     0.29285   0.25751   0.69276   0.00000  Uiso   1.00
C761   C     0.16667   0.16667   0.66389   0.00000  Uiso   1.00
C762   C     0.26746   0.29965   0.68282   0.00000  Uiso   1.00
C763   C     0.29305   0.06825   0.79917   0.00000  Uiso   1.00
C764   C     0.28775   0.01698   0.79987   0.00000  Uiso   1.00
C765   C     0.04030   0.25802   0.80612   0.00000  Uiso   1.00
C766   C     0.06537   0.30048   0.81571   0.00000  Uiso   1.00
C767   C     0.16666   0.16667   0.83612   0.00000  Uiso   1.00
C768   C     0.17818   0.02400   0.78714   0.00000  Uiso   1.00
C769   C     0.15470   0.30935   0.71302   0.00000  Uiso   1.00
C770   C     0.15513   0.02400   0.71287   0.00000  Uiso   1.00
C771   C     0.17861   0.30935   0.78699   0.00000  Uiso   1.00
C772   C     0.02112   0.12496   0.74740   0.00000  Uiso   1.00
H773   H     0.18766   0.04210   0.81676   0.00000  Uiso   1.00
H774   H     0.19310   0.09937   0.97068   0.00000  Uiso   1.00
H775   H     0.14036   0.23423   0.97051   0.00000  Uiso   1.00
H776   H     0.14008   0.09949   0.52931   0.00000  Uiso   1.00
H777   H     0.06666   0.08479   0.68113   0.00000  Uiso   1.00
H778   H     0.01143   0.07741   0.68156   0.00000  Uiso   1.00
H779   H     0.07341   0.00723   0.71638   0.00000  Uiso   1.00
H780   H     0.01867   0.00131   0.71402   0.00000  Uiso   1.00
H781   H     0.04769   0.00583   0.66293   0.00000  Uiso   1.00
H782   H     0.27911   0.22869   0.67374   0.00000  Uiso   1.00
H783   H     0.32478   0.26337   0.68078   0.00000  Uiso   1.00
H784   H     0.14495   0.29125   0.68349   0.00000  Uiso   1.00
H785   H     0.27977   0.32944   0.70110   0.00000  Uiso   1.00
H786   H     0.26817   0.30696   0.64653   0.00000  Uiso   1.00
H787   H     0.23522   0.29384   0.69301   0.00000  Uiso   1.00
H788   H     0.26731   0.08409   0.81790   0.00000  Uiso   1.00
H789   H     0.32247   0.07613   0.81675   0.00000  Uiso   1.00
H790   H     0.31424   0.00060   0.78330   0.00000  Uiso   1.00
H791   H     0.28574   0.00468   0.83478   0.00000  Uiso   1.00
H792   H     0.25957   0.00716   0.78162   0.00000  Uiso   1.00
H793   H     0.05424   0.22948   0.82538   0.00000  Uiso   1.00
H794   H     0.00833   0.26372   0.81805   0.00000  Uiso   1.00
H795   H     0.14565   0.04211   0.68325   0.00000  Uiso   1.00
H796   H     0.05288   0.32998   0.79713   0.00000  Uiso   1.00
H797   H     0.06456   0.30814   0.85193   0.00000  Uiso   1.00
H798   H     0.09766   0.29485   0.80562   0.00000  Uiso   1.00
H799   H     0.18835   0.29124   0.81652   0.00000  Uiso   1.00
H800   H     0.19284   0.23432   0.61072   0.00000  Uiso   1.00
H801   H     0.19258   0.09900   0.88950   0.00000  Uiso   1.00
H802   H     0.14078   0.23445   0.88931   0.00000  Uiso   1.00
H803   H     0.14055   0.09912   0.61049   0.00000  Uiso   1.00
H804   H     0.19331   0.23410   0.52952   0.00000  Uiso   1.00
N805   N     0.16667   0.28573   0.75000   0.00000  Uiso   1.00
N806   N     0.16667   0.04760   0.75000   0.00000  Uiso   1.00
O807   O     0.10559   0.20487   0.74999   0.00000  Uiso   1.00
O808   O     0.29260   0.24889   0.73914   0.00000  Uiso   1.00
O809   O     0.29229   0.08348   0.75444   0.00000  Uiso   1.00
O810   O     0.04064   0.24899   0.75982   0.00000  Uiso   1.00
O811   O     0.22774   0.12846   0.75000   0.00000  Uiso   1.00
O812   O     0.22774   0.20487   0.75000   0.00000  Uiso   1.00
O813   O     0.10559   0.12846   0.74999   0.00000  Uiso   1.00
O814   O     0.16666   0.20489   0.68453   0.00000  Uiso   1.00
O815   O     0.16667   0.12845   0.81547   0.00000  Uiso   1.00
O816   O     0.16667   0.20489   0.81547   0.00000  Uiso   1.00
O817   O     0.16666   0.12845   0.68453   0.00000  Uiso   1.00
O818   O     0.04109   0.08355   0.74430   0.00000  Uiso   1.00
Zn819  Zn    0.16667   0.21771   0.75000   0.00000  Uiso   1.00
Zn820  Zn    0.16667   0.11563   0.75000   0.00000  Uiso   1.00
C821   C     0.41992   0.16663   0.75032   0.00000  Uiso   1.00
C822   C     0.64567   0.20789   0.74636   0.00000  Uiso   1.00
C823   C     0.64558   0.12493   0.75176   0.00000  Uiso   1.00
C824   C     0.35428   0.20792   0.75289   0.00000  Uiso   1.00
C825   C     0.51472   0.20480   0.54710   0.00000  Uiso   1.00
C826   C     0.51460   0.12870   0.95301   0.00000  Uiso   1.00
C827   C     0.48550   0.20487   0.95292   0.00000  Uiso   1.00
C828   C     0.48534   0.12876   0.54699   0.00000  Uiso   1.00
C829   C     0.51453   0.20485   0.59312   0.00000  Uiso   1.00
C830   C     0.51438   0.12855   0.90701   0.00000  Uiso   1.00
C831   C     0.48566   0.20493   0.90691   0.00000  Uiso   1.00
C832   C     0.58007   0.16662   0.74951   0.00000  Uiso   1.00
C833   C     0.48554   0.12862   0.59299   0.00000  Uiso   1.00
C834   C     0.50003   0.16671   0.61602   0.00000  Uiso   1.00
C835   C     0.50000   0.16671   0.88399   0.00000  Uiso   1.00
C836   C     0.50003   0.16680   0.52406   0.00000  Uiso   1.00
C837   C     0.50006   0.16680   0.97595   0.00000  Uiso   1.00
C838   C     0.62421   0.16644   0.74902   0.00000  Uiso   1.00
C839   C     0.37578   0.16648   0.75042   0.00000  Uiso   1.00
C840   C     0.37394   0.06896   0.69936   0.00000  Uiso   1.00
C841   C     0.37881   0.01764   0.69799   0.00000  Uiso   1.00
C842   C     0.62618   0.25751   0.69276   0.00000  Uiso   1.00
C843   C     0.50001   0.16667   0.66389   0.00000  Uiso   1.00
C844   C     0.60079   0.29965   0.68282   0.00000  Uiso   1.00
C845   C     0.62638   0.06825   0.79917   0.00000  Uiso   1.00
C846   C     0.62108   0.01698   0.79987   0.00000  Uiso   1.00
C847   C     0.37363   0.25802   0.80612   0.00000  Uiso   1.00
C848   C     0.39871   0.30048   0.81571   0.00000  Uiso   1.00
C849   C     0.50000   0.16667   0.83612   0.00000  Uiso   1.00
C850   C     0.51151   0.02400   0.78714   0.00000  Uiso   1.00
C851   C     0.48803   0.30935   0.71302   0.00000  Uiso   1.00
C852   C     0.48847   0.02400   0.71287   0.00000  Uiso   1.00
C853   C     0.51194   0.30935   0.78699   0.00000  Uiso   1.00
C854   C     0.35446   0.12496   0.74740   0.00000  Uiso   1.00
H855   H     0.52099   0.04210   0.81676   0.00000  Uiso   1.00
H856   H     0.52643   0.09937   0.97068   0.00000  Uiso   1.00
H857   H     0.47369   0.23423   0.97051   0.00000  Uiso   1.00
H858   H     0.47341   0.09949   0.52931   0.00000  Uiso   1.00
H859   H     0.40000   0.08479   0.68113   0.00000  Uiso   1.00
H860   H     0.34477   0.07741   0.68156   0.00000  Uiso   1.00
H861   H     0.40675   0.00723   0.71638   0.00000  Uiso   1.00
H862   H     0.35200   0.00131   0.71402   0.00000  Uiso   1.00
H863   H     0.38102   0.00583   0.66293   0.00000  Uiso   1.00
H864   H     0.61244   0.22869   0.67374   0.00000  Uiso   1.00
H865   H     0.65811   0.26337   0.68078   0.00000  Uiso   1.00
H866   H     0.47829   0.29125   0.68349   0.00000  Uiso   1.00
H867   H     0.61310   0.32944   0.70110   0.00000  Uiso   1.00
H868   H     0.60150   0.30696   0.64653   0.00000  Uiso   1.00
H869   H     0.56855   0.29384   0.69301   0.00000  Uiso   1.00
H870   H     0.60064   0.08409   0.81790   0.00000  Uiso   1.00
H871   H     0.65580   0.07613   0.81675   0.00000  Uiso   1.00
H872   H     0.64758   0.00060   0.78330   0.00000  Uiso   1.00
H873   H     0.61907   0.00468   0.83478   0.00000  Uiso   1.00
H874   H     0.59290   0.00716   0.78162   0.00000  Uiso   1.00
H875   H     0.38757   0.22948   0.82538   0.00000  Uiso   1.00
H876   H     0.34166   0.26372   0.81805   0.00000  Uiso   1.00
H877   H     0.47898   0.04211   0.68325   0.00000  Uiso   1.00
H878   H     0.38622   0.32998   0.79713   0.00000  Uiso   1.00
H879   H     0.39789   0.30814   0.85193   0.00000  Uiso   1.00
H880   H     0.43100   0.29485   0.80562   0.00000  Uiso   1.00
H881   H     0.52169   0.29124   0.81652   0.00000  Uiso   1.00
H882   H     0.52617   0.23432   0.61072   0.00000  Uiso   1.00
H883   H     0.52591   0.09900   0.88950   0.00000  Uiso   1.00
H884   H     0.47412   0.23445   0.88931   0.00000  Uiso   1.00
H885   H     0.47389   0.09912   0.61049   0.00000  Uiso   1.00
H886   H     0.52664   0.23410   0.52952   0.00000  Uiso   1.00
N887   N     0.50000   0.28573   0.75000   0.00000  Uiso   1.00
N888   N     0.50000   0.04760   0.75000   0.00000  Uiso   1.00
O889   O     0.43892   0.20487   0.74999   0.00000  Uiso   1.00
O890   O     0.62594   0.24889   0.73914   0.00000  Uiso   1.00
O891   O     0.62563   0.08348   0.75444   0.00000  Uiso   1.00
O892   O     0.37398   0.24899   0.75982   0.00000  Uiso   1.00
O893   O     0.56108   0.12846   0.75000   0.00000  Uiso   1.00
O894   O     0.56108   0.20487   0.75000   0.00000  Uiso   1.00
O895   O     0.43892   0.12846   0.74999   0.00000  Uiso   1.00
O896   O     0.50000   0.20489   0.68453   0.00000  Uiso   1.00
O897   O     0.50000   0.12845   0.81547   0.00000  Uiso   1.00
O898   O     0.50000   0.20489   0.81547   0.00000  Uiso   1.00
O899   O     0.50000   0.12845   0.68453   0.00000  Uiso   1.00
O900   O     0.37443   0.08355   0.74430   0.00000  Uiso   1.00
Zn901  Zn    0.50000   0.21771   0.75000   0.00000  Uiso   1.00
Zn902  Zn    0.50000   0.11563   0.75000   0.00000  Uiso   1.00
C903   C     0.75326   0.16663   0.75032   0.00000  Uiso   1.00
C904   C     0.97900   0.20789   0.74636   0.00000  Uiso   1.00
C905   C     0.97891   0.12493   0.75176   0.00000  Uiso   1.00
C906   C     0.68762   0.20792   0.75289   0.00000  Uiso   1.00
C907   C     0.84805   0.20480   0.54710   0.00000  Uiso   1.00
C908   C     0.84793   0.12870   0.95301   0.00000  Uiso   1.00
C909   C     0.81884   0.20487   0.95292   0.00000  Uiso   1.00
C910   C     0.81868   0.12876   0.54699   0.00000  Uiso   1.00
C911   C     0.84786   0.20485   0.59312   0.00000  Uiso   1.00
C912   C     0.84771   0.12855   0.90701   0.00000  Uiso   1.00
C913   C     0.81899   0.20493   0.90691   0.00000  Uiso   1.00
C914   C     0.91341   0.16662   0.74951   0.00000  Uiso   1.00
C915   C     0.81887   0.12862   0.59299   0.00000  Uiso   1.00
C916   C     0.83337   0.16671   0.61602   0.00000  Uiso   1.00
C917   C     0.83333   0.16671   0.88399   0.00000  Uiso   1.00
C918   C     0.83337   0.16680   0.52406   0.00000  Uiso   1.00
C919   C     0.83339   0.16680   0.97595   0.00000  Uiso   1.00
C920   C     0.95755   0.16644   0.74902   0.00000  Uiso   1.00
C921   C     0.70912   0.16648   0.75042   0.00000  Uiso   1.00
C922   C     0.70728   0.06896   0.69936   0.00000  Uiso   1.00
C923   C     0.71214   0.01764   0.69799   0.00000  Uiso   1.00
C924   C     0.95952   0.25751   0.69276   0.00000  Uiso   1.00
C925   C     0.83334   0.16667   0.66389   0.00000  Uiso   1.00
C926   C     0.93412   0.29965   0.68282   0.00000  Uiso   1.00
C927   C     0.95972   0.06825   0.79917   0.00000  Uiso   1.00
C928   C     0.95441   0.01698   0.79987   0.00000  Uiso   1.00
C929   C     0.70696   0.25802   0.80612   0.00000  Uiso   1.00
C930   C     0.73204   0.30048   0.81571   0.00000  Uiso   1.00
C931   C     0.83333   0.16667   0.83612   0.00000  Uiso   1.00
C932   C     0.84484   0.02400   0.78714   0.00000  Uiso   1.00
C933   C     0.82137   0.30935   0.71302   0.00000  Uiso   1.00
C934   C     0.82180   0.02400   0.71287   0.00000  Uiso   1.00
C935   C     0.84528   0.30935   0.78699   0.00000  Uiso   1.00
C936   C     0.68779   0.12496   0.74740   0.00000  Uiso   1.00
H937   H     0.85433   0.04210   0.81676   0.00000  Uiso   1.00
H938   H     0.85976   0.09937   0.97068   0.00000  Uiso   1.00
H939   H     0.80703   0.23423   0.97051   0.00000  Uiso   1.00
H940   H     0.80675   0.09949   0.52931   0.00000  Uiso   1.00
H941   H     0.73333   0.08479   0.68113   0.00000  Uiso   1.00
H942   H     0.67810   0.07741   0.68156   0.00000  Uiso   1.00
H943   H     0.74008   0.00723   0.71638   0.00000  Uiso   1.00
H944   H     0.68534   0.00131   0.71402   0.00000  Uiso   1.00
H945   H     0.71436   0.00583   0.66293   0.00000  Uiso   1.00
H946   H     0.94577   0.22869   0.67374   0.00000  Uiso   1.00
H947   H     0.99144   0.26337   0.68078   0.00000  Uiso   1.00
H948   H     0.81162   0.29125   0.68349   0.00000  Uiso   1.00
H949   H     0.94643   0.32944   0.70110   0.00000  Uiso   1.00
H950   H     0.93483   0.30696   0.64653   0.00000  Uiso   1.00
H951   H     0.90188   0.29384   0.69301   0.00000  Uiso   1.00
H952   H     0.93397   0.08409   0.81790   0.00000  Uiso   1.00
H953   H     0.98913   0.07613   0.81675   0.00000  Uiso   1.00
H954   H     0.98091   0.00060   0.78330   0.00000  Uiso   1.00
H955   H     0.95240   0.00468   0.83478   0.00000  Uiso   1.00
H956   H     0.92623   0.00716   0.78162   0.00000  Uiso   1.00
H957   H     0.72091   0.22948   0.82538   0.00000  Uiso   1.00
H958   H     0.67499   0.26372   0.81805   0.00000  Uiso   1.00
H959   H     0.81232   0.04211   0.68325   0.00000  Uiso   1.00
H960   H     0.71955   0.32998   0.79713   0.00000  Uiso   1.00
H961   H     0.73123   0.30814   0.85193   0.00000  Uiso   1.00
H962   H     0.76433   0.29485   0.80562   0.00000  Uiso   1.00
H963   H     0.85502   0.29124   0.81652   0.00000  Uiso   1.00
H964   H     0.85950   0.23432   0.61072   0.00000  Uiso   1.00
H965   H     0.85924   0.09900   0.88950   0.00000  Uiso   1.00
H966   H     0.80745   0.23445   0.88931   0.00000  Uiso   1.00
H967   H     0.80722   0.09912   0.61049   0.00000  Uiso   1.00
H968   H     0.85997   0.23410   0.52952   0.00000  Uiso   1.00
N969   N     0.83333   0.28573   0.75000   0.00000  Uiso   1.00
N970   N     0.83333   0.04760   0.75000   0.00000  Uiso   1.00
O971   O     0.77226   0.20487   0.74999   0.00000  Uiso   1.00
O972   O     0.95927   0.24889   0.73914   0.00000  Uiso   1.00
O973   O     0.95896   0.08348   0.75444   0.00000  Uiso   1.00
O974   O     0.70731   0.24899   0.75982   0.00000  Uiso   1.00
O975   O     0.89441   0.12846   0.75000   0.00000  Uiso   1.00
O976   O     0.89441   0.20487   0.75000   0.00000  Uiso   1.00
O977   O     0.77226   0.12846   0.74999   0.00000  Uiso   1.00
O978   O     0.83333   0.20489   0.68453   0.00000  Uiso   1.00
O979   O     0.83334   0.12845   0.81547   0.00000  Uiso   1.00
O980   O     0.83334   0.20489   0.81547   0.00000  Uiso   1.00
O981   O     0.83333   0.12845   0.68453   0.00000  Uiso   1.00
O982   O     0.70776   0.08355   0.74430   0.00000  Uiso   1.00
Zn983  Zn    0.83333   0.21771   0.75000   0.00000  Uiso   1.00
Zn984  Zn    0.83333   0.11563   0.75000   0.00000  Uiso   1.00
C985   C     0.08659   0.49997   0.75032   0.00000  Uiso   1.00
C986   C     0.31234   0.54122   0.74636   0.00000  Uiso   1.00
C987   C     0.31224   0.45826   0.75176   0.00000  Uiso   1.00
C988   C     0.02095   0.54126   0.75289   0.00000  Uiso   1.00
C989   C     0.18138   0.53813   0.54710   0.00000  Uiso   1.00
C990   C     0.18127   0.46203   0.95301   0.00000  Uiso   1.00
C991   C     0.15217   0.53821   0.95292   0.00000  Uiso   1.00
C992   C     0.15201   0.46210   0.54699   0.00000  Uiso   1.00
C993   C     0.18120   0.53819   0.59312   0.00000  Uiso   1.00
C994   C     0.18104   0.46189   0.90701   0.00000  Uiso   1.00
C995   C     0.15233   0.53826   0.90691   0.00000  Uiso   1.00
C996   C     0.24674   0.49996   0.74951   0.00000  Uiso   1.00
C997   C     0.15221   0.46195   0.59299   0.00000  Uiso   1.00
C998   C     0.16670   0.50004   0.61602   0.00000  Uiso   1.00
C999   C     0.16667   0.50004   0.88399   0.00000  Uiso   1.00
C1000  C     0.16670   0.50013   0.52406   0.00000  Uiso   1.00
C1001  C     0.16672   0.50014   0.97595   0.00000  Uiso   1.00
C1002  C     0.29088   0.49978   0.74902   0.00000  Uiso   1.00
C1003  C     0.04245   0.49981   0.75042   0.00000  Uiso   1.00
C1004  C     0.04061   0.40229   0.69936   0.00000  Uiso   1.00
C1005  C     0.04547   0.35097   0.69799   0.00000  Uiso   1.00
C1006  C     0.29285   0.59084   0.69276   0.00000  Uiso   1.00
C1007  C     0.16667   0.50001   0.66389   0.00000  Uiso   1.00
C1008  C     0.26746   0.63298   0.68282   0.00000  Uiso   1.00
C1009  C     0.29305   0.40158   0.79917   0.00000  Uiso   1.00
C1010  C     0.28775   0.35032   0.79987   0.00000  Uiso   1.00
C1011  C     0.04030   0.59136   0.80612   0.00000  Uiso   1.00
C1012  C     0.06537   0.63381   0.81571   0.00000  Uiso   1.00
C1013  C     0.16666   0.50001   0.83612   0.00000  Uiso   1.00
C1014  C     0.17818   0.35733   0.78714   0.00000  Uiso   1.00
C1015  C     0.15470   0.64268   0.71302   0.00000  Uiso   1.00
C1016  C     0.15513   0.35733   0.71287   0.00000  Uiso   1.00
C1017  C     0.17861   0.64268   0.78699   0.00000  Uiso   1.00
C1018  C     0.02112   0.45830   0.74740   0.00000  Uiso   1.00
H1019  H     0.18766   0.37544   0.81676   0.00000  Uiso   1.00
H1020  H     0.19310   0.43271   0.97068   0.00000  Uiso   1.00
H1021  H     0.14036   0.56756   0.97051   0.00000  Uiso   1.00
H1022  H     0.14008   0.43283   0.52931   0.00000  Uiso   1.00
H1023  H     0.06666   0.41812   0.68113   0.00000  Uiso   1.00
H1024  H     0.01143   0.41075   0.68156   0.00000  Uiso   1.00
H1025  H     0.07341   0.34056   0.71638   0.00000  Uiso   1.00
H1026  H     0.01867   0.33464   0.71402   0.00000  Uiso   1.00
H1027  H     0.04769   0.33916   0.66293   0.00000  Uiso   1.00
H1028  H     0.27911   0.56202   0.67374   0.00000  Uiso   1.00
H1029  H     0.32478   0.59670   0.68078   0.00000  Uiso   1.00
H1030  H     0.14495   0.62458   0.68349   0.00000  Uiso   1.00
H1031  H     0.27977   0.66277   0.70110   0.00000  Uiso   1.00
H1032  H     0.26817   0.64030   0.64653   0.00000  Uiso   1.00
H1033  H     0.23522   0.62717   0.69301   0.00000  Uiso   1.00
H1034  H     0.26731   0.41743   0.81790   0.00000  Uiso   1.00
H1035  H     0.32247   0.40946   0.81675   0.00000  Uiso   1.00
H1036  H     0.31424   0.33393   0.78330   0.00000  Uiso   1.00
H1037  H     0.28574   0.33801   0.83478   0.00000  Uiso   1.00
H1038  H     0.25957   0.34049   0.78162   0.00000  Uiso   1.00
H1039  H     0.05424   0.56282   0.82538   0.00000  Uiso   1.00
H1040  H     0.00833   0.59705   0.81805   0.00000  Uiso   1.00
H1041  H     0.14565   0.37544   0.68325   0.00000  Uiso   1.00
H1042  H     0.05288   0.66332   0.79713   0.00000  Uiso   1.00
H1043  H     0.06456   0.64148   0.85193   0.00000  Uiso   1.00
H1044  H     0.09766   0.62819   0.80562   0.00000  Uiso   1.00
H1045  H     0.18835   0.62457   0.81652   0.00000  Uiso   1.00
H1046  H     0.19284   0.56765   0.61072   0.00000  Uiso   1.00
H1047  H     0.19258   0.43234   0.88950   0.00000  Uiso   1.00
H1048  H     0.14078   0.56778   0.88931   0.00000  Uiso   1.00
H1049  H     0.14055   0.43246   0.61049   0.00000  Uiso   1.00
H1050  H     0.19331   0.56743   0.52952   0.00000  Uiso   1.00
N1051  N     0.16667   0.61907   0.75000   0.00000  Uiso   1.00
N1052  N     0.16667   0.38093   0.75000   0.00000  Uiso   1.00
O1053  O     0.10559   0.53821   0.74999   0.00000  Uiso   1.00
O1054  O     0.29260   0.58222   0.73914   0.00000  Uiso   1.00
O1055  O     0.29229   0.41681   0.75444   0.00000  Uiso   1.00
O1056  O     0.04064   0.58233   0.75982   0.00000  Uiso   1.00
O1057  O     0.22774   0.46179   0.75000   0.00000  Uiso   1.00
O1058  O     0.22774   0.53821   0.75000   0.00000  Uiso   1.00
O1059  O     0.10559   0.46179   0.74999   0.00000  Uiso   1.00
O1060  O     0.16666   0.53822   0.68453   0.00000  Uiso   1.00
O1061  O     0.16667   0.46178   0.81547   0.00000  Uiso   1.00
O1062  O     0.16667   0.53822   0.81547   0.00000  Uiso   1.00
O1063  O     0.16666   0.46178   0.68453   0.00000  Uiso   1.00
O1064  O     0.04109   0.41688   0.74430   0.00000  Uiso   1.00
Zn1065 Zn    0.16667   0.55104   0.75000   0.00000  Uiso   1.00
Zn1066 Zn    0.16667   0.44896   0.75000   0.00000  Uiso   1.00
C1067  C     0.41992   0.49997   0.75032   0.00000  Uiso   1.00
C1068  C     0.64567   0.54122   0.74636   0.00000  Uiso   1.00
C1069  C     0.64558   0.45826   0.75176   0.00000  Uiso   1.00
C1070  C     0.35428   0.54126   0.75289   0.00000  Uiso   1.00
C1071  C     0.51472   0.53813   0.54710   0.00000  Uiso   1.00
C1072  C     0.51460   0.46203   0.95301   0.00000  Uiso   1.00
C1073  C     0.48550   0.53821   0.95292   0.00000  Uiso   1.00
C1074  C     0.48534   0.46210   0.54699   0.00000  Uiso   1.00
C1075  C     0.51453   0.53819   0.59312   0.00000  Uiso   1.00
C1076  C     0.51438   0.46189   0.90701   0.00000  Uiso   1.00
C1077  C     0.48566   0.53826   0.90691   0.00000  Uiso   1.00
C1078  C     0.58007   0.49996   0.74951   0.00000  Uiso   1.00
C1079  C     0.48554   0.46195   0.59299   0.00000  Uiso   1.00
C1080  C     0.50003   0.50004   0.61602   0.00000  Uiso   1.00
C1081  C     0.50000   0.50004   0.88399   0.00000  Uiso   1.00
C1082  C     0.50003   0.50013   0.52406   0.00000  Uiso   1.00
C1083  C     0.50006   0.50014   0.97595   0.00000  Uiso   1.00
C1084  C     0.62421   0.49978   0.74902   0.00000  Uiso   1.00
C1085  C     0.37578   0.49981   0.75042   0.00000  Uiso   1.00
C1086  C     0.37394   0.40229   0.69936   0.00000  Uiso   1.00
C1087  C     0.37881   0.35097   0.69799   0.00000  Uiso   1.00
C1088  C     0.62618   0.59084   0.69276   0.00000  Uiso   1.00
C1089  C     0.50001   0.50001   0.66389   0.00000  Uiso   1.00
C1090  C     0.60079   0.63298   0.68282   0.00000  Uiso   1.00
C1091  C     0.62638   0.40158   0.79917   0.00000  Uiso   1.00
C1092  C     0.62108   0.35032   0.79987   0.00000  Uiso   1.00
C1093  C     0.37363   0.59136   0.80612   0.00000  Uiso   1.00
C1094  C     0.39871   0.63381   0.81571   0.00000  Uiso   1.00
C1095  C     0.50000   0.50001   0.83612   0.00000  Uiso   1.00
C1096  C     0.51151   0.35733   0.78714   0.00000  Uiso   1.00
C1097  C     0.48803   0.64268   0.71302   0.00000  Uiso   1.00
C1098  C     0.48847   0.35733   0.71287   0.00000  Uiso   1.00
C1099  C     0.51194   0.64268   0.78699   0.00000  Uiso   1.00
C1100  C     0.35446   0.45830   0.74740   0.00000  Uiso   1.00
H1101  H     0.52099   0.37544   0.81676   0.00000  Uiso   1.00
H1102  H     0.52643   0.43271   0.97068   0.00000  Uiso   1.00
H1103  H     0.47369   0.56756   0.97051   0.00000  Uiso   1.00
H1104  H     0.47341   0.43283   0.52931   0.00000  Uiso   1.00
H1105  H     0.40000   0.41812   0.68113   0.00000  Uiso   1.00
H1106  H     0.34477   0.41075   0.68156   0.00000  Uiso   1.00
H1107  H     0.40675   0.34056   0.71638   0.00000  Uiso   1.00
H1108  H     0.35200   0.33464   0.71402   0.00000  Uiso   1.00
H1109  H     0.38102   0.33916   0.66293   0.00000  Uiso   1.00
H1110  H     0.61244   0.56202   0.67374   0.00000  Uiso   1.00
H1111  H     0.65811   0.59670   0.68078   0.00000  Uiso   1.00
H1112  H     0.47829   0.62458   0.68349   0.00000  Uiso   1.00
H1113  H     0.61310   0.66277   0.70110   0.00000  Uiso   1.00
H1114  H     0.60150   0.64030   0.64653   0.00000  Uiso   1.00
H1115  H     0.56855   0.62717   0.69301   0.00000  Uiso   1.00
H1116  H     0.60064   0.41743   0.81790   0.00000  Uiso   1.00
H1117  H     0.65580   0.40946   0.81675   0.00000  Uiso   1.00
H1118  H     0.64758   0.33393   0.78330   0.00000  Uiso   1.00
H1119  H     0.61907   0.33801   0.83478   0.00000  Uiso   1.00
H1120  H     0.59290   0.34049   0.78162   0.00000  Uiso   1.00
H1121  H     0.38757   0.56282   0.82538   0.00000  Uiso   1.00
H1122  H     0.34166   0.59705   0.81805   0.00000  Uiso   1.00
H1123  H     0.47898   0.37544   0.68325   0.00000  Uiso   1.00
H1124  H     0.38622   0.66332   0.79713   0.00000  Uiso   1.00
H1125  H     0.39789   0.64148   0.85193   0.00000  Uiso   1.00
H1126  H     0.43100   0.62819   0.80562   0.00000  Uiso   1.00
H1127  H     0.52169   0.62457   0.81652   0.00000  Uiso   1.00
H1128  H     0.52617   0.56765   0.61072   0.00000  Uiso   1.00
H1129  H     0.52591   0.43234   0.88950   0.00000  Uiso   1.00
H1130  H     0.47412   0.56778   0.88931   0.00000  Uiso   1.00
H1131  H     0.47389   0.43246   0.61049   0.00000  Uiso   1.00
H1132  H     0.52664   0.56743   0.52952   0.00000  Uiso   1.00
N1133  N     0.50000   0.61907   0.75000   0.00000  Uiso   1.00
N1134  N     0.50000   0.38093   0.75000   0.00000  Uiso   1.00
O1135  O     0.43892   0.53821   0.74999   0.00000  Uiso   1.00
O1136  O     0.62594   0.58222   0.73914   0.00000  Uiso   1.00
O1137  O     0.62563   0.41681   0.75444   0.00000  Uiso   1.00
O1138  O     0.37398   0.58233   0.75982   0.00000  Uiso   1.00
O1139  O     0.56108   0.46179   0.75000   0.00000  Uiso   1.00
O1140  O     0.56108   0.53821   0.75000   0.00000  Uiso   1.00
O1141  O     0.43892   0.46179   0.74999   0.00000  Uiso   1.00
O1142  O     0.50000   0.53822   0.68453   0.00000  Uiso   1.00
O1143  O     0.50000   0.46178   0.81547   0.00000  Uiso   1.00
O1144  O     0.50000   0.53822   0.81547   0.00000  Uiso   1.00
O1145  O     0.50000   0.46178   0.68453   0.00000  Uiso   1.00
O1146  O     0.37443   0.41688   0.74430   0.00000  Uiso   1.00
Zn1147 Zn    0.50000   0.55104   0.75000   0.00000  Uiso   1.00
Zn1148 Zn    0.50000   0.44896   0.75000   0.00000  Uiso   1.00
C1149  C     0.75326   0.49997   0.75032   0.00000  Uiso   1.00
C1150  C     0.97900   0.54122   0.74636   0.00000  Uiso   1.00
C1151  C     0.97891   0.45826   0.75176   0.00000  Uiso   1.00
C1152  C     0.68762   0.54126   0.75289   0.00000  Uiso   1.00
C1153  C     0.84805   0.53813   0.54710   0.00000  Uiso   1.00
C1154  C     0.84793   0.46203   0.95301   0.00000  Uiso   1.00
C1155  C     0.81884   0.53821   0.95292   0.00000  Uiso   1.00
C1156  C     0.81868   0.46210   0.54699   0.00000  Uiso   1.00
C1157  C     0.84786   0.53819   0.59312   0.00000  Uiso   1.00
C1158  C     0.84771   0.46189   0.90701   0.00000  Uiso   1.00
C1159  C     0.81899   0.53826   0.90691   0.00000  Uiso   1.00
C1160  C     0.91341   0.49996   0.74951   0.00000  Uiso   1.00
C1161  C     0.81887   0.46195   0.59299   0.00000  Uiso   1.00
C1162  C     0.83337   0.50004   0.61602   0.00000  Uiso   1.00
C1163  C     0.83333   0.50004   0.88399   0.00000  Uiso   1.00
C1164  C     0.83337   0.50013   0.52406   0.00000  Uiso   1.00
C1165  C     0.83339   0.50014   0.97595   0.00000  Uiso   1.00
C1166  C     0.95755   0.49978   0.74902   0.00000  Uiso   1.00
C1167  C     0.70912   0.49981   0.75042   0.00000  Uiso   1.00
C1168  C     0.70728   0.40229   0.69936   0.00000  Uiso   1.00
C1169  C     0.71214   0.35097   0.69799   0.00000  Uiso   1.00
C1170  C     0.95952   0.59084   0.69276   0.00000  Uiso   1.00
C1171  C     0.83334   0.50001   0.66389   0.00000  Uiso   1.00
C1172  C     0.93412   0.63298   0.68282   0.00000  Uiso   1.00
C1173  C     0.95972   0.40158   0.79917   0.00000  Uiso   1.00
C1174  C     0.95441   0.35032   0.79987   0.00000  Uiso   1.00
C1175  C     0.70696   0.59136   0.80612   0.00000  Uiso   1.00
C1176  C     0.73204   0.63381   0.81571   0.00000  Uiso   1.00
C1177  C     0.83333   0.50001   0.83612   0.00000  Uiso   1.00
C1178  C     0.84484   0.35733   0.78714   0.00000  Uiso   1.00
C1179  C     0.82137   0.64268   0.71302   0.00000  Uiso   1.00
C1180  C     0.82180   0.35733   0.71287   0.00000  Uiso   1.00
C1181  C     0.84528   0.64268   0.78699   0.00000  Uiso   1.00
C1182  C     0.68779   0.45830   0.74740   0.00000  Uiso   1.00
H1183  H     0.85433   0.37544   0.81676   0.00000  Uiso   1.00
H1184  H     0.85976   0.43271   0.97068   0.00000  Uiso   1.00
H1185  H     0.80703   0.56756   0.97051   0.00000  Uiso   1.00
H1186  H     0.80675   0.43283   0.52931   0.00000  Uiso   1.00
H1187  H     0.73333   0.41812   0.68113   0.00000  Uiso   1.00
H1188  H     0.67810   0.41075   0.68156   0.00000  Uiso   1.00
H1189  H     0.74008   0.34056   0.71638   0.00000  Uiso   1.00
H1190  H     0.68534   0.33464   0.71402   0.00000  Uiso   1.00
H1191  H     0.71436   0.33916   0.66293   0.00000  Uiso   1.00
H1192  H     0.94577   0.56202   0.67374   0.00000  Uiso   1.00
H1193  H     0.99144   0.59670   0.68078   0.00000  Uiso   1.00
H1194  H     0.81162   0.62458   0.68349   0.00000  Uiso   1.00
H1195  H     0.94643   0.66277   0.70110   0.00000  Uiso   1.00
H1196  H     0.93483   0.64030   0.64653   0.00000  Uiso   1.00
H1197  H     0.90188   0.62717   0.69301   0.00000  Uiso   1.00
H1198  H     0.93397   0.41743   0.81790   0.00000  Uiso   1.00
H1199  H     0.98913   0.40946   0.81675   0.00000  Uiso   1.00
H1200  H     0.98091   0.33393   0.78330   0.00000  Uiso   1.00
H1201  H     0.95240   0.33801   0.83478   0.00000  Uiso   1.00
H1202  H     0.92623   0.34049   0.78162   0.00000  Uiso   1.00
H1203  H     0.72091   0.56282   0.82538   0.00000  Uiso   1.00
H1204  H     0.67499   0.59705   0.81805   0.00000  Uiso   1.00
H1205  H     0.81232   0.37544   0.68325   0.00000  Uiso   1.00
H1206  H     0.71955   0.66332   0.79713   0.00000  Uiso   1.00
H1207  H     0.73123   0.64148   0.85193   0.00000  Uiso   1.00
H1208  H     0.76433   0.62819   0.80562   0.00000  Uiso   1.00
H1209  H     0.85502   0.62457   0.81652   0.00000  Uiso   1.00
H1210  H     0.85950   0.56765   0.61072   0.00000  Uiso   1.00
H1211  H     0.85924   0.43234   0.88950   0.00000  Uiso   1.00
H1212  H     0.80745   0.56778   0.88931   0.00000  Uiso   1.00
H1213  H     0.80722   0.43246   0.61049   0.00000  Uiso   1.00
H1214  H     0.85997   0.56743   0.52952   0.00000  Uiso   1.00
N1215  N     0.83333   0.61907   0.75000   0.00000  Uiso   1.00
N1216  N     0.83333   0.38093   0.75000   0.00000  Uiso   1.00
O1217  O     0.77226   0.53821   0.74999   0.00000  Uiso   1.00
O1218  O     0.95927   0.58222   0.73914   0.00000  Uiso   1.00
O1219  O     0.95896   0.41681   0.75444   0.00000  Uiso   1.00
O1220  O     0.70731   0.58233   0.75982   0.00000  Uiso   1.00
O1221  O     0.89441   0.46179   0.75000   0.00000  Uiso   1.00
O1222  O     0.89441   0.53821   0.75000   0.00000  Uiso   1.00
O1223  O     0.77226   0.46179   0.74999   0.00000  Uiso   1.00
O1224  O     0.83333   0.53822   0.68453   0.00000  Uiso   1.00
O1225  O     0.83334   0.46178   0.81547   0.00000  Uiso   1.00
O1226  O     0.83334   0.53822   0.81547   0.00000  Uiso   1.00
O1227  O     0.83333   0.46178   0.68453   0.00000  Uiso   1.00
O1228  O     0.70776   0.41688   0.74430   0.00000  Uiso   1.00
Zn1229 Zn    0.83333   0.55104   0.75000   0.00000  Uiso   1.00
Zn1230 Zn    0.83333   0.44896   0.75000   0.00000  Uiso   1.00
C1231  C     0.08659   0.83330   0.75032   0.00000  Uiso   1.00
C1232  C     0.31234   0.87455   0.74636   0.00000  Uiso   1.00
C1233  C     0.31224   0.79160   0.75176   0.00000  Uiso   1.00
C1234  C     0.02095   0.87459   0.75289   0.00000  Uiso   1.00
C1235  C     0.18138   0.87146   0.54710   0.00000  Uiso   1.00
C1236  C     0.18127   0.79537   0.95301   0.00000  Uiso   1.00
C1237  C     0.15217   0.87154   0.95292   0.00000  Uiso   1.00
C1238  C     0.15201   0.79543   0.54699   0.00000  Uiso   1.00
C1239  C     0.18120   0.87152   0.59312   0.00000  Uiso   1.00
C1240  C     0.18104   0.79522   0.90701   0.00000  Uiso   1.00
C1241  C     0.15233   0.87159   0.90691   0.00000  Uiso   1.00
C1242  C     0.24674   0.83329   0.74951   0.00000  Uiso   1.00
C1243  C     0.15221   0.79528   0.59299   0.00000  Uiso   1.00
C1244  C     0.16670   0.83337   0.61602   0.00000  Uiso   1.00
C1245  C     0.16667   0.83338   0.88399   0.00000  Uiso   1.00
C1246  C     0.16670   0.83346   0.52406   0.00000  Uiso   1.00
C1247  C     0.16672   0.83347   0.97595   0.00000  Uiso   1.00
C1248  C     0.29088   0.83311   0.74902   0.00000  Uiso   1.00
C1249  C     0.04245   0.83314   0.75042   0.00000  Uiso   1.00
C1250  C     0.04061   0.73562   0.69936   0.00000  Uiso   1.00
C1251  C     0.04547   0.68431   0.69799   0.00000  Uiso   1.00
C1252  C     0.29285   0.92417   0.69276   0.00000  Uiso   1.00
C1253  C     0.16667   0.83334   0.66389   0.00000  Uiso   1.00
C1254  C     0.26746   0.96632   0.68282   0.00000  Uiso   1.00
C1255  C     0.29305   0.73491   0.79917   0.00000  Uiso   1.00
C1256  C     0.28775   0.68365   0.79987   0.00000  Uiso   1.00
C1257  C     0.04030   0.92469   0.80612   0.00000  Uiso   1.00
C1258  C     0.06537   0.96715   0.81571   0.00000  Uiso   1.00
C1259  C     0.16666   0.83334   0.83612   0.00000  Uiso   1.00
C1260  C     0.17818   0.69066   0.78714   0.00000  Uiso   1.00
C1261  C     0.15470   0.97602   0.71302   0.00000  Uiso   1.00
C1262  C     0.15513   0.69066   0.71287   0.00000  Uiso   1.00
C1263  C     0.17861   0.97601   0.78699   0.00000  Uiso   1.00
C1264  C     0.02112   0.79163   0.74740   0.00000  Uiso   1.00
H1265  H     0.18766   0.70877   0.81676   0.00000  Uiso   1.00
H1266  H     0.19310   0.76604   0.97068   0.00000  Uiso   1.00
H1267  H     0.14036   0.90090   0.97051   0.00000  Uiso   1.00
H1268  H     0.14008   0.76616   0.52931   0.00000  Uiso   1.00
H1269  H     0.06666   0.75145   0.68113   0.00000  Uiso   1.00
H1270  H     0.01143   0.74408   0.68156   0.00000  Uiso   1.00
H1271  H     0.07341   0.67390   0.71638   0.00000  Uiso   1.00
H1272  H     0.01867   0.66798   0.71402   0.00000  Uiso   1.00
H1273  H     0.04769   0.67250   0.66293   0.00000  Uiso   1.00
H1274  H     0.27911   0.89535   0.67374   0.00000  Uiso   1.00
H1275  H     0.32478   0.93004   0.68078   0.00000  Uiso   1.00
H1276  H     0.14495   0.95791   0.68349   0.00000  Uiso   1.00
H1277  H     0.27977   0.99610   0.70110   0.00000  Uiso   1.00
H1278  H     0.26817   0.97363   0.64653   0.00000  Uiso   1.00
H1279  H     0.23522   0.96050   0.69301   0.00000  Uiso   1.00
H1280  H     0.26731   0.75076   0.81790   0.00000  Uiso   1.00
H1281  H     0.32247   0.74279   0.81675   0.00000  Uiso   1.00
H1282  H     0.31424   0.66727   0.78330   0.00000  Uiso   1.00
H1283  H     0.28574   0.67135   0.83478   0.00000  Uiso   1.00
H1284  H     0.25957   0.67382   0.78162   0.00000  Uiso   1.00
H1285  H     0.05424   0.89615   0.82538   0.00000  Uiso   1.00
H1286  H     0.00833   0.93038   0.81805   0.00000  Uiso   1.00
H1287  H     0.14565   0.70877   0.68325   0.00000  Uiso   1.00
H1288  H     0.05288   0.99665   0.79713   0.00000  Uiso   1.00
H1289  H     0.06456   0.97481   0.85193   0.00000  Uiso   1.00
H1290  H     0.09766   0.96152   0.80562   0.00000  Uiso   1.00
H1291  H     0.18835   0.95791   0.81652   0.00000  Uiso   1.00
H1292  H     0.19284   0.90099   0.61072   0.00000  Uiso   1.00
H1293  H     0.19258   0.76567   0.88950   0.00000  Uiso   1.00
H1294  H     0.14078   0.90112   0.88931   0.00000  Uiso   1.00
H1295  H     0.14055   0.76579   0.61049   0.00000  Uiso   1.00
H1296  H     0.19331   0.90076   0.52952   0.00000  Uiso   1.00
N1297  N     0.16667   0.95240   0.75000   0.00000  Uiso   1.00
N1298  N     0.16667   0.71427   0.75000   0.00000  Uiso   1.00
O1299  O     0.10559   0.87154   0.74999   0.00000  Uiso   1.00
O1300  O     0.29260   0.91555   0.73914   0.00000  Uiso   1.00
O1301  O     0.29229   0.75015   0.75444   0.00000  Uiso   1.00
O1302  O     0.04064   0.91566   0.75982   0.00000  Uiso   1.00
O1303  O     0.22774   0.79513   0.75000   0.00000  Uiso   1.00
O1304  O     0.22774   0.87154   0.75000   0.00000  Uiso   1.00
O1305  O     0.10559   0.79513   0.74999   0.00000  Uiso   1.00
O1306  O     0.16666   0.87155   0.68453   0.00000  Uiso   1.00
O1307  O     0.16667   0.79511   0.81547   0.00000  Uiso   1.00
O1308  O     0.16667   0.87155   0.81547   0.00000  Uiso   1.00
O1309  O     0.16666   0.79511   0.68453   0.00000  Uiso   1.00
O1310  O     0.04109   0.75022   0.74430   0.00000  Uiso   1.00
Zn1311 Zn    0.16667   0.88437   0.75000   0.00000  Uiso   1.00
Zn1312 Zn    0.16667   0.78229   0.75000   0.00000  Uiso   1.00
C1313  C     0.41992   0.83330   0.75032   0.00000  Uiso   1.00
C1314  C     0.64567   0.87455   0.74636   0.00000  Uiso   1.00
C1315  C     0.64558   0.79160   0.75176   0.00000  Uiso   1.00
C1316  C     0.35428   0.87459   0.75289   0.00000  Uiso   1.00
C1317  C     0.51472   0.87146   0.54710   0.00000  Uiso   1.00
C1318  C     0.51460   0.79537   0.95301   0.00000  Uiso   1.00
C1319  C     0.48550   0.87154   0.95292   0.00000  Uiso   1.00
C1320  C     0.48534   0.79543   0.54699   0.00000  Uiso   1.00
C1321  C     0.51453   0.87152   0.59312   0.00000  Uiso   1.00
C1322  C     0.51438   0.79522   0.90701   0.00000  Uiso   1.00
C1323  C     0.48566   0.87159   0.90691   0.00000  Uiso   1.00
C1324  C     0.58007   0.83329   0.74951   0.00000  Uiso   1.00
C1325  C     0.48554   0.79528   0.59299   0.00000  Uiso   1.00
C1326  C     0.50003   0.83337   0.61602   0.00000  Uiso   1.00
C1327  C     0.50000   0.83338   0.88399   0.00000  Uiso   1.00
C1328  C     0.50003   0.83346   0.52406   0.00000  Uiso   1.00
C1329  C     0.50006   0.83347   0.97595   0.00000  Uiso   1.00
C1330  C     0.62421   0.83311   0.74902   0.00000  Uiso   1.00
C1331  C     0.37578   0.83314   0.75042   0.00000  Uiso   1.00
C1332  C     0.37394   0.73562   0.69936   0.00000  Uiso   1.00
C1333  C     0.37881   0.68431   0.69799   0.00000  Uiso   1.00
C1334  C     0.62618   0.92417   0.69276   0.00000  Uiso   1.00
C1335  C     0.50001   0.83334   0.66389   0.00000  Uiso   1.00
C1336  C     0.60079   0.96632   0.68282   0.00000  Uiso   1.00
C1337  C     0.62638   0.73491   0.79917   0.00000  Uiso   1.00
C1338  C     0.62108   0.68365   0.79987   0.00000  Uiso   1.00
C1339  C     0.37363   0.92469   0.80612   0.00000  Uiso   1.00
C1340  C     0.39871   0.96715   0.81571   0.00000  Uiso   1.00
C1341  C     0.50000   0.83334   0.83612   0.00000  Uiso   1.00
C1342  C     0.51151   0.69066   0.78714   0.00000  Uiso   1.00
C1343  C     0.48803   0.97602   0.71302   0.00000  Uiso   1.00
C1344  C     0.48847   0.69066   0.71287   0.00000  Uiso   1.00
C1345  C     0.51194   0.97601   0.78699   0.00000  Uiso   1.00
C1346  C     0.35446   0.79163   0.74740   0.00000  Uiso   1.00
H1347  H     0.52099   0.70877   0.81676   0.00000  Uiso   1.00
H1348  H     0.52643   0.76604   0.97068   0.00000  Uiso   1.00
H1349  H     0.47369   0.90090   0.97051   0.00000  Uiso   1.00
H1350  H     0.47341   0.76616   0.52931   0.00000  Uiso   1.00
H1351  H     0.40000   0.75145   0.68113   0.00000  Uiso   1.00
H1352  H     0.34477   0.74408   0.68156   0.00000  Uiso   1.00
H1353  H     0.40675   0.67390   0.71638   0.00000  Uiso   1.00
H1354  H     0.35200   0.66798   0.71402   0.00000  Uiso   1.00
H1355  H     0.38102   0.67250   0.66293   0.00000  Uiso   1.00
H1356  H     0.61244   0.89535   0.67374   0.00000  Uiso   1.00
H1357  H     0.65811   0.93004   0.68078   0.00000  Uiso   1.00
H1358  H     0.47829   0.95791   0.68349   0.00000  Uiso   1.00
H1359  H     0.61310   0.99610   0.70110   0.00000  Uiso   1.00
H1360  H     0.60150   0.97363   0.64653   0.00000  Uiso   1.00
H1361  H     0.56855   0.96050   0.69301   0.00000  Uiso   1.00
H1362  H     0.60064   0.75076   0.81790   0.00000  Uiso   1.00
H1363  H     0.65580   0.74279   0.81675   0.00000  Uiso   1.00
H1364  H     0.64758   0.66727   0.78330   0.00000  Uiso   1.00
H1365  H     0.61907   0.67135   0.83478   0.00000  Uiso   1.00
H1366  H     0.59290   0.67382   0.78162   0.00000  Uiso   1.00
H1367  H     0.38757   0.89615   0.82538   0.00000  Uiso   1.00
H1368  H     0.34166   0.93038   0.81805   0.00000  Uiso   1.00
H1369  H     0.47898   0.70877   0.68325   0.00000  Uiso   1.00
H1370  H     0.38622   0.99665   0.79713   0.00000  Uiso   1.00
H1371  H     0.39789   0.97481   0.85193   0.00000  Uiso   1.00
H1372  H     0.43100   0.96152   0.80562   0.00000  Uiso   1.00
H1373  H     0.52169   0.95791   0.81652   0.00000  Uiso   1.00
H1374  H     0.52617   0.90099   0.61072   0.00000  Uiso   1.00
H1375  H     0.52591   0.76567   0.88950   0.00000  Uiso   1.00
H1376  H     0.47412   0.90112   0.88931   0.00000  Uiso   1.00
H1377  H     0.47389   0.76579   0.61049   0.00000  Uiso   1.00
H1378  H     0.52664   0.90076   0.52952   0.00000  Uiso   1.00
N1379  N     0.50000   0.95240   0.75000   0.00000  Uiso   1.00
N1380  N     0.50000   0.71427   0.75000   0.00000  Uiso   1.00
O1381  O     0.43892   0.87154   0.74999   0.00000  Uiso   1.00
O1382  O     0.62594   0.91555   0.73914   0.00000  Uiso   1.00
O1383  O     0.62563   0.75015   0.75444   0.00000  Uiso   1.00
O1384  O     0.37398   0.91566   0.75982   0.00000  Uiso   1.00
O1385  O     0.56108   0.79513   0.75000   0.00000  Uiso   1.00
O1386  O     0.56108   0.87154   0.75000   0.00000  Uiso   1.00
O1387  O     0.43892   0.79513   0.74999   0.00000  Uiso   1.00
O1388  O     0.50000   0.87155   0.68453   0.00000  Uiso   1.00
O1389  O     0.50000   0.79511   0.81547   0.00000  Uiso   1.00
O1390  O     0.50000   0.87155   0.81547   0.00000  Uiso   1.00
O1391  O     0.50000   0.79511   0.68453   0.00000  Uiso   1.00
O1392  O     0.37443   0.75022   0.74430   0.00000  Uiso   1.00
Zn1393 Zn    0.50000   0.88437   0.75000   0.00000  Uiso   1.00
Zn1394 Zn    0.50000   0.78229   0.75000   0.00000  Uiso   1.00
C1395  C     0.75326   0.83330   0.75032   0.00000  Uiso   1.00
C1396  C     0.97900   0.87455   0.74636   0.00000  Uiso   1.00
C1397  C     0.97891   0.79160   0.75176   0.00000  Uiso   1.00
C1398  C     0.68762   0.87459   0.75289   0.00000  Uiso   1.00
C1399  C     0.84805   0.87146   0.54710   0.00000  Uiso   1.00
C1400  C     0.84793   0.79537   0.95301   0.00000  Uiso   1.00
C1401  C     0.81884   0.87154   0.95292   0.00000  Uiso   1.00
C1402  C     0.81868   0.79543   0.54699   0.00000  Uiso   1.00
C1403  C     0.84786   0.87152   0.59312   0.00000  Uiso   1.00
C1404  C     0.84771   0.79522   0.90701   0.00000  Uiso   1.00
C1405  C     0.81899   0.87159   0.90691   0.00000  Uiso   1.00
C1406  C     0.91341   0.83329   0.74951   0.00000  Uiso   1.00
C1407  C     0.81887   0.79528   0.59299   0.00000  Uiso   1.00
C1408  C     0.83337   0.83337   0.61602   0.00000  Uiso   1.00
C1409  C     0.83333   0.83338   0.88399   0.00000  Uiso   1.00
C1410  C     0.83337   0.83346   0.52406   0.00000  Uiso   1.00
C1411  C     0.83339   0.83347   0.97595   0.00000  Uiso   1.00
C1412  C     0.95755   0.83311   0.74902   0.00000  Uiso   1.00
C1413  C     0.70912   0.83314   0.75042   0.00000  Uiso   1.00
C1414  C     0.70728   0.73562   0.69936   0.00000  Uiso   1.00
C1415  C     0.71214   0.68431   0.69799   0.00000  Uiso   1.00
C1416  C     0.95952   0.92417   0.69276   0.00000  Uiso   1.00
C1417  C     0.83334   0.83334   0.66389   0.00000  Uiso   1.00
C1418  C     0.93412   0.96632   0.68282   0.00000  Uiso   1.00
C1419  C     0.95972   0.73491   0.79917   0.00000  Uiso   1.00
C1420  C     0.95441   0.68365   0.79987   0.00000  Uiso   1.00
C1421  C     0.70696   0.92469   0.80612   0.00000  Uiso   1.00
C1422  C     0.73204   0.96715   0.81571   0.00000  Uiso   1.00
C1423  C     0.83333   0.83334   0.83612   0.00000  Uiso   1.00
C1424  C     0.84484   0.69066   0.78714   0.00000  Uiso   1.00
C1425  C     0.82137   0.97602   0.71302   0.00000  Uiso   1.00
C1426  C     0.82180   0.69066   0.71287   0.00000  Uiso   1.00
C1427  C     0.84528   0.97601   0.78699   0.00000  Uiso   1.00
C1428  C     0.68779   0.79163   0.74740   0.00000  Uiso   1.00
H1429  H     0.85433   0.70877   0.81676   0.00000  Uiso   1.00
H1430  H     0.85976   0.76604   0.97068   0.00000  Uiso   1.00
H1431  H     0.80703   0.90090   0.97051   0.00000  Uiso   1.00
H1432  H     0.80675   0.76616   0.52931   0.00000  Uiso   1.00
H1433  H     0.73333   0.75145   0.68113   0.00000  Uiso   1.00
H1434  H     0.67810   0.74408   0.68156   0.00000  Uiso   1.00
H1435  H     0.74008   0.67390   0.71638   0.00000  Uiso   1.00
H1436  H     0.68534   0.66798   0.71402   0.00000  Uiso   1.00
H1437  H     0.71436   0.67250   0.66293   0.00000  Uiso   1.00
H1438  H     0.94577   0.89535   0.67374   0.00000  Uiso   1.00
H1439  H     0.99144   0.93004   0.68078   0.00000  Uiso   1.00
H1440  H     0.81162   0.95791   0.68349   0.00000  Uiso   1.00
H1441  H     0.94643   0.99610   0.70110   0.00000  Uiso   1.00
H1442  H     0.93483   0.97363   0.64653   0.00000  Uiso   1.00
H1443  H     0.90188   0.96050   0.69301   0.00000  Uiso   1.00
H1444  H     0.93397   0.75076   0.81790   0.00000  Uiso   1.00
H1445  H     0.98913   0.74279   0.81675   0.00000  Uiso   1.00
H1446  H     0.98091   0.66727   0.78330   0.00000  Uiso   1.00
H1447  H     0.95240   0.67135   0.83478   0.00000  Uiso   1.00
H1448  H     0.92623   0.67382   0.78162   0.00000  Uiso   1.00
H1449  H     0.72091   0.89615   0.82538   0.00000  Uiso   1.00
H1450  H     0.67499   0.93038   0.81805   0.00000  Uiso   1.00
H1451  H     0.81232   0.70877   0.68325   0.00000  Uiso   1.00
H1452  H     0.71955   0.99665   0.79713   0.00000  Uiso   1.00
H1453  H     0.73123   0.97481   0.85193   0.00000  Uiso   1.00
H1454  H     0.76433   0.96152   0.80562   0.00000  Uiso   1.00
H1455  H     0.85502   0.95791   0.81652   0.00000  Uiso   1.00
H1456  H     0.85950   0.90099   0.61072   0.00000  Uiso   1.00
H1457  H     0.85924   0.76567   0.88950   0.00000  Uiso   1.00
H1458  H     0.80745   0.90112   0.88931   0.00000  Uiso   1.00
H1459  H     0.80722   0.76579   0.61049   0.00000  Uiso   1.00
H1460  H     0.85997   0.90076   0.52952   0.00000  Uiso   1.00
N1461  N     0.83333   0.95240   0.75000   0.00000  Uiso   1.00
N1462  N     0.83333   0.71427   0.75000   0.00000  Uiso   1.00
O1463  O     0.77226   0.87154   0.74999   0.00000  Uiso   1.00
O1464  O     0.95927   0.91555   0.73914   0.00000  Uiso   1.00
O1465  O     0.95896   0.75015   0.75444   0.00000  Uiso   1.00
O1466  O     0.70731   0.91566   0.75982   0.00000  Uiso   1.00
O1467  O     0.89441   0.79513   0.75000   0.00000  Uiso   1.00
O1468  O     0.89441   0.87154   0.75000   0.00000  Uiso   1.00
O1469  O     0.77226   0.79513   0.74999   0.00000  Uiso   1.00
O1470  O     0.83333   0.87155   0.68453   0.00000  Uiso   1.00
O1471  O     0.83334   0.79511   0.81547   0.00000  Uiso   1.00
O1472  O     0.83334   0.87155   0.81547   0.00000  Uiso   1.00
O1473  O     0.83333   0.79511   0.68453   0.00000  Uiso   1.00
O1474  O     0.70776   0.75022   0.74430   0.00000  Uiso   1.00
Zn1475 Zn    0.83333   0.88437   0.75000   0.00000  Uiso   1.00
Zn1476 Zn    0.83333   0.78229   0.75000   0.00000  Uiso   1.00
loop_
_geom_bond_atom_site_label_1
_geom_bond_atom_site_label_2
_geom_bond_distance
_geom_bond_site_symmetry_2
_ccdc_geom_bond_type
C1     C19     1.436   .     S
C1     O75     1.283   .     A
C1     O69     1.285   .     A
C2     C18     1.408   .     A
C2     O70     1.384   .     S
C2     C86     1.379   .     S
C3     C18     1.408   .     A
C3     O71     1.385   .     S
C3     C116    1.380   .     S
C4     C19     1.409   .     A
C4     O72     1.384   .     S
C4     C166    1.379   1_455 S
C5     C16     1.399   .     A
C5     C9      1.380   .     A
C5     H66     1.083   .     S
C6     C17     1.399   .     A
C6     C10     1.380   .     A
C6     H36     1.083   .     S
C7     C17     1.399   .     A
C7     C11     1.380   .     A
C7     H37     1.083   .     S
C8     C13     1.380   .     A
C8     C16     1.399   .     A
C8     H38     1.083   .     S
C9     H62     1.084   .     S
C9     C14     1.399   .     A
C10    H63     1.084   .     S
C10    C15     1.399   .     A
C11    C15     1.399   .     A
C11    H64     1.084   .     S
C12    O74     1.285   .     A
C12    O73     1.283   .     A
C12    C18     1.437   .     S
C13    H65     1.084   .     S
C13    C14     1.399   .     A
C14    C23     1.436   .     S
C15    C29     1.436   .     S
C16    C755    1.443   1_554 S
C17    C754    1.443   .     S
C19    C34     1.409   .     A
C20    H40     1.117   .     S
C20    O80     1.415   .     S
C20    H39     1.112   .     S
C20    C21     1.520   .     S
C21    H43     1.110   .     S
C21    H41     1.106   .     S
C21    H42     1.107   .     S
C22    H44     1.116   .     S
C22    C24     1.520   .     S
C22    H45     1.114   .     S
C22    O70     1.414   .     S
C23    O76     1.284   .     A
C23    O79     1.285   .     A
C24    H48     1.110   .     S
C24    H49     1.107   .     S
C24    H47     1.109   .     S
C25    H50     1.112   .     S
C25    O71     1.415   .     S
C25    C26     1.519   .     S
C25    H51     1.117   .     S
C26    H54     1.106   .     S
C26    H52     1.107   .     S
C26    H53     1.110   .     S
C27    H55     1.116   .     S
C27    H56     1.114   .     S
C27    C28     1.520   .     S
C27    O72     1.414   .     S
C28    H60     1.107   .     S
C28    H59     1.110   .     S
C28    H58     1.109   .     S
C29    O78     1.284   .     A
C29    O77     1.285   .     A
C30    H35     1.081   .     S
C30    N68     1.365   .     A
C30    C525    1.413   1_545 S
C31    N67     1.365   .     A
C31    H46     1.081   .     S
C31    C278    1.413   .     S
C32    N68     1.365   .     A
C32    H57     1.081   .     S
C32    C523    1.413   1_545 S
C33    N67     1.365   .     A
C33    H61     1.081   .     S
C33    C276    1.413   .     S
C34    O80     1.385   .     S
C34    C167    1.380   1_455 S
N67    Zn81    2.003   .     S
N68    Zn82    2.003   .     S
O69    Zn81    2.023   .     S
O73    Zn82    2.023   .     S
O74    Zn81    2.023   .     S
O75    Zn82    2.023   .     S
O76    Zn81    2.000   .     S
O77    Zn82    2.000   .     S
O78    Zn81    2.000   .     S
O79    Zn82    2.000   .     S
C83    C101    1.436   .     S
C83    O157    1.283   .     A
C83    O151    1.285   .     A
C84    C100    1.408   .     A
C84    O152    1.384   .     S
C84    C168    1.379   .     S
C85    C100    1.408   .     A
C85    O153    1.385   .     S
C85    C198    1.380   .     S
C86    C101    1.409   .     A
C86    O154    1.384   .     S
C87    C98     1.399   .     A
C87    C91     1.380   .     A
C87    H148    1.083   .     S
C88    C99     1.399   .     A
C88    C92     1.380   .     A
C88    H118    1.083   .     S
C89    C99     1.399   .     A
C89    C93     1.380   .     A
C89    H119    1.083   .     S
C90    C95     1.380   .     A
C90    C98     1.399   .     A
C90    H120    1.083   .     S
C91    H144    1.084   .     S
C91    C96     1.399   .     A
C92    H145    1.084   .     S
C92    C97     1.399   .     A
C93    C97     1.399   .     A
C93    H146    1.084   .     S
C94    O156    1.285   .     A
C94    O155    1.283   .     A
C94    C100    1.437   .     S
C95    H147    1.084   .     S
C95    C96     1.399   .     A
C96    C105    1.436   .     S
C97    C111    1.436   .     S
C98    C837    1.443   1_554 S
C99    C836    1.443   .     S
C101   C116    1.409   .     A
C102   H122    1.117   .     S
C102   O162    1.415   .     S
C102   H121    1.112   .     S
C102   C103    1.520   .     S
C103   H125    1.110   .     S
C103   H123    1.106   .     S
C103   H124    1.107   .     S
C104   H126    1.116   .     S
C104   C106    1.520   .     S
C104   H127    1.114   .     S
C104   O152    1.414   .     S
C105   O158    1.284   .     A
C105   O161    1.285   .     A
C106   H130    1.110   .     S
C106   H131    1.107   .     S
C106   H129    1.109   .     S
C107   H132    1.112   .     S
C107   O153    1.415   .     S
C107   C108    1.519   .     S
C107   H133    1.117   .     S
C108   H136    1.106   .     S
C108   H134    1.107   .     S
C108   H135    1.110   .     S
C109   H137    1.116   .     S
C109   H138    1.114   .     S
C109   C110    1.520   .     S
C109   O154    1.414   .     S
C110   H142    1.107   .     S
C110   H141    1.110   .     S
C110   H140    1.109   .     S
C111   O160    1.284   .     A
C111   O159    1.285   .     A
C112   H117    1.081   .     S
C112   N150    1.365   .     A
C112   C607    1.413   1_545 S
C113   N149    1.365   .     A
C113   H128    1.081   .     S
C113   C360    1.413   .     S
C114   N150    1.365   .     A
C114   H139    1.081   .     S
C114   C605    1.413   1_545 S
C115   N149    1.365   .     A
C115   H143    1.081   .     S
C115   C358    1.413   .     S
C116   O162    1.385   .     S
N149   Zn163   2.003   .     S
N150   Zn164   2.003   .     S
O151   Zn163   2.023   .     S
O155   Zn164   2.023   .     S
O156   Zn163   2.023   .     S
O157   Zn164   2.023   .     S
O158   Zn163   2.000   .     S
O159   Zn164   2.000   .     S
O160   Zn163   2.000   .     S
O161   Zn164   2.000   .     S
C165   C183    1.436   .     S
C165   O239    1.283   .     A
C165   O233    1.285   .     A
C166   C182    1.408   .     A
C166   O234    1.384   .     S
C166   C4      1.379   1_655 S
C167   C182    1.408   .     A
C167   O235    1.385   .     S
C167   C34     1.380   1_655 S
C168   C183    1.409   .     A
C168   O236    1.384   .     S
C169   C180    1.399   .     A
C169   C173    1.380   .     A
C169   H230    1.083   .     S
C170   C181    1.399   .     A
C170   C174    1.380   .     A
C170   H200    1.083   .     S
C171   C181    1.399   .     A
C171   C175    1.380   .     A
C171   H201    1.083   .     S
C172   C177    1.380   .     A
C172   C180    1.399   .     A
C172   H202    1.083   .     S
C173   H226    1.084   .     S
C173   C178    1.399   .     A
C174   H227    1.084   .     S
C174   C179    1.399   .     A
C175   C179    1.399   .     A
C175   H228    1.084   .     S
C176   O238    1.285   .     A
C176   O237    1.283   .     A
C176   C182    1.437   .     S
C177   H229    1.084   .     S
C177   C178    1.399   .     A
C178   C187    1.436   .     S
C179   C193    1.436   .     S
C180   C919    1.443   1_554 S
C181   C918    1.443   .     S
C183   C198    1.409   .     A
C184   H204    1.117   .     S
C184   O244    1.415   .     S
C184   H203    1.112   .     S
C184   C185    1.520   .     S
C185   H207    1.110   .     S
C185   H205    1.106   .     S
C185   H206    1.107   .     S
C186   H208    1.116   .     S
C186   C188    1.520   .     S
C186   H209    1.114   .     S
C186   O234    1.414   .     S
C187   O240    1.284   .     A
C187   O243    1.285   .     A
C188   H212    1.110   .     S
C188   H213    1.107   .     S
C188   H211    1.109   .     S
C189   H214    1.112   .     S
C189   O235    1.415   .     S
C189   C190    1.519   .     S
C189   H215    1.117   .     S
C190   H218    1.106   .     S
C190   H216    1.107   .     S
C190   H217    1.110   .     S
C191   H219    1.116   .     S
C191   H220    1.114   .     S
C191   C192    1.520   .     S
C191   O236    1.414   .     S
C192   H224    1.107   .     S
C192   H223    1.110   .     S
C192   H222    1.109   .     S
C193   O242    1.284   .     A
C193   O241    1.285   .     A
C194   H199    1.081   .     S
C194   N232    1.365   .     A
C194   C689    1.413   1_545 S
C195   N231    1.365   .     A
C195   H210    1.081   .     S
C195   C442    1.413   .     S
C196   N232    1.365   .     A
C196   H221    1.081   .     S
C196   C687    1.413   1_545 S
C197   N231    1.365   .     A
C197   H225    1.081   .     S
C197   C440    1.413   .     S
C198   O244    1.385   .     S
N231   Zn245   2.003   .     S
N232   Zn246   2.003   .     S
O233   Zn245   2.023   .     S
O237   Zn246   2.023   .     S
O238   Zn245   2.023   .     S
O239   Zn246   2.023   .     S
O240   Zn245   2.000   .     S
O241   Zn246   2.000   .     S
O242   Zn245   2.000   .     S
O243   Zn246   2.000   .     S
C247   C265    1.436   .     S
C247   O321    1.283   .     A
C247   O315    1.285   .     A
C248   C264    1.408   .     A
C248   O316    1.384   .     S
C248   C332    1.379   .     S
C249   C264    1.408   .     A
C249   O317    1.385   .     S
C249   C362    1.380   .     S
C250   C265    1.409   .     A
C250   O318    1.384   .     S
C250   C412    1.379   1_455 S
C251   C262    1.399   .     A
C251   C255    1.380   .     A
C251   H312    1.083   .     S
C252   C263    1.399   .     A
C252   C256    1.380   .     A
C252   H282    1.083   .     S
C253   C263    1.399   .     A
C253   C257    1.380   .     A
C253   H283    1.083   .     S
C254   C259    1.380   .     A
C254   C262    1.399   .     A
C254   H284    1.083   .     S
C255   H308    1.084   .     S
C255   C260    1.399   .     A
C256   H309    1.084   .     S
C256   C261    1.399   .     A
C257   C261    1.399   .     A
C257   H310    1.084   .     S
C258   O320    1.285   .     A
C258   O319    1.283   .     A
C258   C264    1.437   .     S
C259   H311    1.084   .     S
C259   C260    1.399   .     A
C260   C269    1.436   .     S
C261   C275    1.436   .     S
C262   C1001   1.443   1_554 S
C263   C1000   1.443   .     S
C265   C280    1.409   .     A
C266   H286    1.117   .     S
C266   O326    1.415   .     S
C266   H285    1.112   .     S
C266   C267    1.520   .     S
C267   H289    1.110   .     S
C267   H287    1.106   .     S
C267   H288    1.107   .     S
C268   H290    1.116   .     S
C268   C270    1.520   .     S
C268   H291    1.114   .     S
C268   O316    1.414   .     S
C269   O322    1.284   .     A
C269   O325    1.285   .     A
C270   H294    1.110   .     S
C270   H295    1.107   .     S
C270   H293    1.109   .     S
C271   H296    1.112   .     S
C271   O317    1.415   .     S
C271   C272    1.519   .     S
C271   H297    1.117   .     S
C272   H300    1.106   .     S
C272   H298    1.107   .     S
C272   H299    1.110   .     S
C273   H301    1.116   .     S
C273   H302    1.114   .     S
C273   C274    1.520   .     S
C273   O318    1.414   .     S
C274   H306    1.107   .     S
C274   H305    1.110   .     S
C274   H304    1.109   .     S
C275   O324    1.284   .     A
C275   O323    1.285   .     A
C276   H281    1.081   .     S
C276   N314    1.365   .     A
C277   N313    1.365   .     A
C277   H292    1.081   .     S
C277   C524    1.413   .     S
C278   N314    1.365   .     A
C278   H303    1.081   .     S
C279   N313    1.365   .     A
C279   H307    1.081   .     S
C279   C522    1.413   .     S
C280   O326    1.385   .     S
C280   C413    1.380   1_455 S
N313   Zn327   2.003   .     S
N314   Zn328   2.003   .     S
O315   Zn327   2.023   .     S
O319   Zn328   2.023   .     S
O320   Zn327   2.023   .     S
O321   Zn328   2.023   .     S
O322   Zn327   2.000   .     S
O323   Zn328   2.000   .     S
O324   Zn327   2.000   .     S
O325   Zn328   2.000   .     S
C329   C347    1.436   .     S
C329   O403    1.283   .     A
C329   O397    1.285   .     A
C330   C346    1.408   .     A
C330   O398    1.384   .     S
C330   C414    1.379   .     S
C331   C346    1.408   .     A
C331   O399    1.385   .     S
C331   C444    1.380   .     S
C332   C347    1.409   .     A
C332   O400    1.384   .     S
C333   C344    1.399   .     A
C333   C337    1.380   .     A
C333   H394    1.083   .     S
C334   C345    1.399   .     A
C334   C338    1.380   .     A
C334   H364    1.083   .     S
C335   C345    1.399   .     A
C335   C339    1.380   .     A
C335   H365    1.083   .     S
C336   C341    1.380   .     A
C336   C344    1.399   .     A
C336   H366    1.083   .     S
C337   H390    1.084   .     S
C337   C342    1.399   .     A
C338   H391    1.084   .     S
C338   C343    1.399   .     A
C339   C343    1.399   .     A
C339   H392    1.084   .     S
C340   O402    1.285   .     A
C340   O401    1.283   .     A
C340   C346    1.437   .     S
C341   H393    1.084   .     S
C341   C342    1.399   .     A
C342   C351    1.436   .     S
C343   C357    1.436   .     S
C344   C1083   1.443   1_554 S
C345   C1082   1.443   .     S
C347   C362    1.409   .     A
C348   H368    1.117   .     S
C348   O408    1.415   .     S
C348   H367    1.112   .     S
C348   C349    1.520   .     S
C349   H371    1.110   .     S
C349   H369    1.106   .     S
C349   H370    1.107   .     S
C350   H372    1.116   .     S
C350   C352    1.520   .     S
C350   H373    1.114   .     S
C350   O398    1.414   .     S
C351   O404    1.284   .     A
C351   O407    1.285   .     A
C352   H376    1.110   .     S
C352   H377    1.107   .     S
C352   H375    1.109   .     S
C353   H378    1.112   .     S
C353   O399    1.415   .     S
C353   C354    1.519   .     S
C353   H379    1.117   .     S
C354   H382    1.106   .     S
C354   H380    1.107   .     S
C354   H381    1.110   .     S
C355   H383    1.116   .     S
C355   H384    1.114   .     S
C355   C356    1.520   .     S
C355   O400    1.414   .     S
C356   H388    1.107   .     S
C356   H387    1.110   .     S
C356   H386    1.109   .     S
C357   O406    1.284   .     A
C357   O405    1.285   .     A
C358   H363    1.081   .     S
C358   N396    1.365   .     A
C359   N395    1.365   .     A
C359   H374    1.081   .     S
C359   C606    1.413   .     S
C360   N396    1.365   .     A
C360   H385    1.081   .     S
C361   N395    1.365   .     A
C361   H389    1.081   .     S
C361   C604    1.413   .     S
C362   O408    1.385   .     S
N395   Zn409   2.003   .     S
N396   Zn410   2.003   .     S
O397   Zn409   2.023   .     S
O401   Zn410   2.023   .     S
O402   Zn409   2.023   .     S
O403   Zn410   2.023   .     S
O404   Zn409   2.000   .     S
O405   Zn410   2.000   .     S
O406   Zn409   2.000   .     S
O407   Zn410   2.000   .     S
C411   C429    1.436   .     S
C411   O485    1.283   .     A
C411   O479    1.285   .     A
C412   C428    1.408   .     A
C412   O480    1.384   .     S
C412   C250    1.379   1_655 S
C413   C428    1.408   .     A
C413   O481    1.385   .     S
C413   C280    1.380   1_655 S
C414   C429    1.409   .     A
C414   O482    1.384   .     S
C415   C426    1.399   .     A
C415   C419    1.380   .     A
C415   H476    1.083   .     S
C416   C427    1.399   .     A
C416   C420    1.380   .     A
C416   H446    1.083   .     S
C417   C427    1.399   .     A
C417   C421    1.380   .     A
C417   H447    1.083   .     S
C418   C423    1.380   .     A
C418   C426    1.399   .     A
C418   H448    1.083   .     S
C419   H472    1.084   .     S
C419   C424    1.399   .     A
C420   H473    1.084   .     S
C420   C425    1.399   .     A
C421   C425    1.399   .     A
C421   H474    1.084   .     S
C422   O484    1.285   .     A
C422   O483    1.283   .     A
C422   C428    1.437   .     S
C423   H475    1.084   .     S
C423   C424    1.399   .     A
C424   C433    1.436   .     S
C425   C439    1.436   .     S
C426   C1165   1.443   1_554 S
C427   C1164   1.443   .     S
C429   C444    1.409   .     A
C430   H450    1.117   .     S
C430   O490    1.415   .     S
C430   H449    1.112   .     S
C430   C431    1.520   .     S
C431   H453    1.110   .     S
C431   H451    1.106   .     S
C431   H452    1.107   .     S
C432   H454    1.116   .     S
C432   C434    1.520   .     S
C432   H455    1.114   .     S
C432   O480    1.414   .     S
C433   O486    1.284   .     A
C433   O489    1.285   .     A
C434   H458    1.110   .     S
C434   H459    1.107   .     S
C434   H457    1.109   .     S
C435   H460    1.112   .     S
C435   O481    1.415   .     S
C435   C436    1.519   .     S
C435   H461    1.117   .     S
C436   H464    1.106   .     S
C436   H462    1.107   .     S
C436   H463    1.110   .     S
C437   H465    1.116   .     S
C437   H466    1.114   .     S
C437   C438    1.520   .     S
C437   O482    1.414   .     S
C438   H470    1.107   .     S
C438   H469    1.110   .     S
C438   H468    1.109   .     S
C439   O488    1.284   .     A
C439   O487    1.285   .     A
C440   H445    1.081   .     S
C440   N478    1.365   .     A
C441   N477    1.365   .     A
C441   H456    1.081   .     S
C441   C688    1.413   .     S
C442   N478    1.365   .     A
C442   H467    1.081   .     S
C443   N477    1.365   .     A
C443   H471    1.081   .     S
C443   C686    1.413   .     S
C444   O490    1.385   .     S
N477   Zn491   2.003   .     S
N478   Zn492   2.003   .     S
O479   Zn491   2.023   .     S
O483   Zn492   2.023   .     S
O484   Zn491   2.023   .     S
O485   Zn492   2.023   .     S
O486   Zn491   2.000   .     S
O487   Zn492   2.000   .     S
O488   Zn491   2.000   .     S
O489   Zn492   2.000   .     S
C493   C511    1.436   .     S
C493   O567    1.283   .     A
C493   O561    1.285   .     A
C494   C510    1.408   .     A
C494   O562    1.384   .     S
C494   C578    1.379   .     S
C495   C510    1.408   .     A
C495   O563    1.385   .     S
C495   C608    1.380   .     S
C496   C511    1.409   .     A
C496   O564    1.384   .     S
C496   C658    1.379   1_455 S
C497   C508    1.399   .     A
C497   C501    1.380   .     A
C497   H558    1.083   .     S
C498   C509    1.399   .     A
C498   C502    1.380   .     A
C498   H528    1.083   .     S
C499   C509    1.399   .     A
C499   C503    1.380   .     A
C499   H529    1.083   .     S
C500   C505    1.380   .     A
C500   C508    1.399   .     A
C500   H530    1.083   .     S
C501   H554    1.084   .     S
C501   C506    1.399   .     A
C502   H555    1.084   .     S
C502   C507    1.399   .     A
C503   C507    1.399   .     A
C503   H556    1.084   .     S
C504   O566    1.285   .     A
C504   O565    1.283   .     A
C504   C510    1.437   .     S
C505   H557    1.084   .     S
C505   C506    1.399   .     A
C506   C515    1.436   .     S
C507   C521    1.436   .     S
C508   C1247   1.443   1_554 S
C509   C1246   1.443   .     S
C511   C526    1.409   .     A
C512   H532    1.117   .     S
C512   O572    1.415   .     S
C512   H531    1.112   .     S
C512   C513    1.520   .     S
C513   H535    1.110   .     S
C513   H533    1.106   .     S
C513   H534    1.107   .     S
C514   H536    1.116   .     S
C514   C516    1.520   .     S
C514   H537    1.114   .     S
C514   O562    1.414   .     S
C515   O568    1.284   .     A
C515   O571    1.285   .     A
C516   H540    1.110   .     S
C516   H541    1.107   .     S
C516   H539    1.109   .     S
C517   H542    1.112   .     S
C517   O563    1.415   .     S
C517   C518    1.519   .     S
C517   H543    1.117   .     S
C518   H546    1.106   .     S
C518   H544    1.107   .     S
C518   H545    1.110   .     S
C519   H547    1.116   .     S
C519   H548    1.114   .     S
C519   C520    1.520   .     S
C519   O564    1.414   .     S
C520   H552    1.107   .     S
C520   H551    1.110   .     S
C520   H550    1.109   .     S
C521   O570    1.284   .     A
C521   O569    1.285   .     A
C522   H527    1.081   .     S
C522   N560    1.365   .     A
C523   N559    1.365   .     A
C523   H538    1.081   .     S
C523   C32     1.413   1_565 S
C524   N560    1.365   .     A
C524   H549    1.081   .     S
C525   N559    1.365   .     A
C525   H553    1.081   .     S
C525   C30     1.413   1_565 S
C526   O572    1.385   .     S
C526   C659    1.380   1_455 S
N559   Zn573   2.003   .     S
N560   Zn574   2.003   .     S
O561   Zn573   2.023   .     S
O565   Zn574   2.023   .     S
O566   Zn573   2.023   .     S
O567   Zn574   2.023   .     S
O568   Zn573   2.000   .     S
O569   Zn574   2.000   .     S
O570   Zn573   2.000   .     S
O571   Zn574   2.000   .     S
C575   C593    1.436   .     S
C575   O649    1.283   .     A
C575   O643    1.285   .     A
C576   C592    1.408   .     A
C576   O644    1.384   .     S
C576   C660    1.379   .     S
C577   C592    1.408   .     A
C577   O645    1.385   .     S
C577   C690    1.380   .     S
C578   C593    1.409   .     A
C578   O646    1.384   .     S
C579   C590    1.399   .     A
C579   C583    1.380   .     A
C579   H640    1.083   .     S
C580   C591    1.399   .     A
C580   C584    1.380   .     A
C580   H610    1.083   .     S
C581   C591    1.399   .     A
C581   C585    1.380   .     A
C581   H611    1.083   .     S
C582   C587    1.380   .     A
C582   C590    1.399   .     A
C582   H612    1.083   .     S
C583   H636    1.084   .     S
C583   C588    1.399   .     A
C584   H637    1.084   .     S
C584   C589    1.399   .     A
C585   C589    1.399   .     A
C585   H638    1.084   .     S
C586   O648    1.285   .     A
C586   O647    1.283   .     A
C586   C592    1.437   .     S
C587   H639    1.084   .     S
C587   C588    1.399   .     A
C588   C597    1.436   .     S
C589   C603    1.436   .     S
C590   C1329   1.443   1_554 S
C591   C1328   1.443   .     S
C593   C608    1.409   .     A
C594   H614    1.117   .     S
C594   O654    1.415   .     S
C594   H613    1.112   .     S
C594   C595    1.520   .     S
C595   H617    1.110   .     S
C595   H615    1.106   .     S
C595   H616    1.107   .     S
C596   H618    1.116   .     S
C596   C598    1.520   .     S
C596   H619    1.114   .     S
C596   O644    1.414   .     S
C597   O650    1.284   .     A
C597   O653    1.285   .     A
C598   H622    1.110   .     S
C598   H623    1.107   .     S
C598   H621    1.109   .     S
C599   H624    1.112   .     S
C599   O645    1.415   .     S
C599   C600    1.519   .     S
C599   H625    1.117   .     S
C600   H628    1.106   .     S
C600   H626    1.107   .     S
C600   H627    1.110   .     S
C601   H629    1.116   .     S
C601   H630    1.114   .     S
C601   C602    1.520   .     S
C601   O646    1.414   .     S
C602   H634    1.107   .     S
C602   H633    1.110   .     S
C602   H632    1.109   .     S
C603   O652    1.284   .     A
C603   O651    1.285   .     A
C604   H609    1.081   .     S
C604   N642    1.365   .     A
C605   N641    1.365   .     A
C605   H620    1.081   .     S
C605   C114    1.413   1_565 S
C606   N642    1.365   .     A
C606   H631    1.081   .     S
C607   N641    1.365   .     A
C607   H635    1.081   .     S
C607   C112    1.413   1_565 S
C608   O654    1.385   .     S
N641   Zn655   2.003   .     S
N642   Zn656   2.003   .     S
O643   Zn655   2.023   .     S
O647   Zn656   2.023   .     S
O648   Zn655   2.023   .     S
O649   Zn656   2.023   .     S
O650   Zn655   2.000   .     S
O651   Zn656   2.000   .     S
O652   Zn655   2.000   .     S
O653   Zn656   2.000   .     S
C657   C675    1.436   .     S
C657   O731    1.283   .     A
C657   O725    1.285   .     A
C658   C674    1.408   .     A
C658   O726    1.384   .     S
C658   C496    1.379   1_655 S
C659   C674    1.408   .     A
C659   O727    1.385   .     S
C659   C526    1.380   1_655 S
C660   C675    1.409   .     A
C660   O728    1.384   .     S
C661   C672    1.399   .     A
C661   C665    1.380   .     A
C661   H722    1.083   .     S
C662   C673    1.399   .     A
C662   C666    1.380   .     A
C662   H692    1.083   .     S
C663   C673    1.399   .     A
C663   C667    1.380   .     A
C663   H693    1.083   .     S
C664   C669    1.380   .     A
C664   C672    1.399   .     A
C664   H694    1.083   .     S
C665   H718    1.084   .     S
C665   C670    1.399   .     A
C666   H719    1.084   .     S
C666   C671    1.399   .     A
C667   C671    1.399   .     A
C667   H720    1.084   .     S
C668   O730    1.285   .     A
C668   O729    1.283   .     A
C668   C674    1.437   .     S
C669   H721    1.084   .     S
C669   C670    1.399   .     A
C670   C679    1.436   .     S
C671   C685    1.436   .     S
C672   C1411   1.443   1_554 S
C673   C1410   1.443   .     S
C675   C690    1.409   .     A
C676   H696    1.117   .     S
C676   O736    1.415   .     S
C676   H695    1.112   .     S
C676   C677    1.520   .     S
C677   H699    1.110   .     S
C677   H697    1.106   .     S
C677   H698    1.107   .     S
C678   H700    1.116   .     S
C678   C680    1.520   .     S
C678   H701    1.114   .     S
C678   O726    1.414   .     S
C679   O732    1.284   .     A
C679   O735    1.285   .     A
C680   H704    1.110   .     S
C680   H705    1.107   .     S
C680   H703    1.109   .     S
C681   H706    1.112   .     S
C681   O727    1.415   .     S
C681   C682    1.519   .     S
C681   H707    1.117   .     S
C682   H710    1.106   .     S
C682   H708    1.107   .     S
C682   H709    1.110   .     S
C683   H711    1.116   .     S
C683   H712    1.114   .     S
C683   C684    1.520   .     S
C683   O728    1.414   .     S
C684   H716    1.107   .     S
C684   H715    1.110   .     S
C684   H714    1.109   .     S
C685   O734    1.284   .     A
C685   O733    1.285   .     A
C686   H691    1.081   .     S
C686   N724    1.365   .     A
C687   N723    1.365   .     A
C687   H702    1.081   .     S
C687   C196    1.413   1_565 S
C688   N724    1.365   .     A
C688   H713    1.081   .     S
C689   N723    1.365   .     A
C689   H717    1.081   .     S
C689   C194    1.413   1_565 S
C690   O736    1.385   .     S
N723   Zn737   2.003   .     S
N724   Zn738   2.003   .     S
O725   Zn737   2.023   .     S
O729   Zn738   2.023   .     S
O730   Zn737   2.023   .     S
O731   Zn738   2.023   .     S
O732   Zn737   2.000   .     S
O733   Zn738   2.000   .     S
O734   Zn737   2.000   .     S
O735   Zn738   2.000   .     S
C739   C757    1.436   .     S
C739   O813    1.283   .     A
C739   O807    1.285   .     A
C740   C756    1.408   .     A
C740   O808    1.384   .     S
C740   C824    1.379   .     S
C741   C756    1.408   .     A
C741   O809    1.385   .     S
C741   C854    1.380   .     S
C742   C757    1.409   .     A
C742   O810    1.384   .     S
C742   C904    1.379   1_455 S
C743   C754    1.399   .     A
C743   C747    1.380   .     A
C743   H804    1.083   .     S
C744   C755    1.399   .     A
C744   C748    1.380   .     A
C744   H774    1.083   .     S
C745   C755    1.399   .     A
C745   C749    1.380   .     A
C745   H775    1.083   .     S
C746   C751    1.380   .     A
C746   C754    1.399   .     A
C746   H776    1.083   .     S
C747   H800    1.084   .     S
C747   C752    1.399   .     A
C748   H801    1.084   .     S
C748   C753    1.399   .     A
C749   C753    1.399   .     A
C749   H802    1.084   .     S
C750   O812    1.285   .     A
C750   O811    1.283   .     A
C750   C756    1.437   .     S
C751   H803    1.084   .     S
C751   C752    1.399   .     A
C752   C761    1.436   .     S
C753   C767    1.436   .     S
C755   C16     1.443   1_556 S
C757   C772    1.409   .     A
C758   H778    1.117   .     S
C758   O818    1.415   .     S
C758   H777    1.112   .     S
C758   C759    1.520   .     S
C759   H781    1.110   .     S
C759   H779    1.106   .     S
C759   H780    1.107   .     S
C760   H782    1.116   .     S
C760   C762    1.520   .     S
C760   H783    1.114   .     S
C760   O808    1.414   .     S
C761   O814    1.284   .     A
C761   O817    1.285   .     A
C762   H786    1.110   .     S
C762   H787    1.107   .     S
C762   H785    1.109   .     S
C763   H788    1.112   .     S
C763   O809    1.415   .     S
C763   C764    1.519   .     S
C763   H789    1.117   .     S
C764   H792    1.106   .     S
C764   H790    1.107   .     S
C764   H791    1.110   .     S
C765   H793    1.116   .     S
C765   H794    1.114   .     S
C765   C766    1.520   .     S
C765   O810    1.414   .     S
C766   H798    1.107   .     S
C766   H797    1.110   .     S
C766   H796    1.109   .     S
C767   O816    1.284   .     A
C767   O815    1.285   .     A
C768   H773    1.081   .     S
C768   N806    1.365   .     A
C768   C1263   1.413   1_545 S
C769   N805    1.365   .     A
C769   H784    1.081   .     S
C769   C1016   1.413   .     S
C770   N806    1.365   .     A
C770   H795    1.081   .     S
C770   C1261   1.413   1_545 S
C771   N805    1.365   .     A
C771   H799    1.081   .     S
C771   C1014   1.413   .     S
C772   O818    1.385   .     S
C772   C905    1.380   1_455 S
N805   Zn819   2.003   .     S
N806   Zn820   2.003   .     S
O807   Zn819   2.023   .     S
O811   Zn820   2.023   .     S
O812   Zn819   2.023   .     S
O813   Zn820   2.023   .     S
O814   Zn819   2.000   .     S
O815   Zn820   2.000   .     S
O816   Zn819   2.000   .     S
O817   Zn820   2.000   .     S
C821   C839    1.436   .     S
C821   O895    1.283   .     A
C821   O889    1.285   .     A
C822   C838    1.408   .     A
C822   O890    1.384   .     S
C822   C906    1.379   .     S
C823   C838    1.408   .     A
C823   O891    1.385   .     S
C823   C936    1.380   .     S
C824   C839    1.409   .     A
C824   O892    1.384   .     S
C825   C836    1.399   .     A
C825   C829    1.380   .     A
C825   H886    1.083   .     S
C826   C837    1.399   .     A
C826   C830    1.380   .     A
C826   H856    1.083   .     S
C827   C837    1.399   .     A
C827   C831    1.380   .     A
C827   H857    1.083   .     S
C828   C833    1.380   .     A
C828   C836    1.399   .     A
C828   H858    1.083   .     S
C829   H882    1.084   .     S
C829   C834    1.399   .     A
C830   H883    1.084   .     S
C830   C835    1.399   .     A
C831   C835    1.399   .     A
C831   H884    1.084   .     S
C832   O894    1.285   .     A
C832   O893    1.283   .     A
C832   C838    1.437   .     S
C833   H885    1.084   .     S
C833   C834    1.399   .     A
C834   C843    1.436   .     S
C835   C849    1.436   .     S
C837   C98     1.443   1_556 S
C839   C854    1.409   .     A
C840   H860    1.117   .     S
C840   O900    1.415   .     S
C840   H859    1.112   .     S
C840   C841    1.520   .     S
C841   H863    1.110   .     S
C841   H861    1.106   .     S
C841   H862    1.107   .     S
C842   H864    1.116   .     S
C842   C844    1.520   .     S
C842   H865    1.114   .     S
C842   O890    1.414   .     S
C843   O896    1.284   .     A
C843   O899    1.285   .     A
C844   H868    1.110   .     S
C844   H869    1.107   .     S
C844   H867    1.109   .     S
C845   H870    1.112   .     S
C845   O891    1.415   .     S
C845   C846    1.519   .     S
C845   H871    1.117   .     S
C846   H874    1.106   .     S
C846   H872    1.107   .     S
C846   H873    1.110   .     S
C847   H875    1.116   .     S
C847   H876    1.114   .     S
C847   C848    1.520   .     S
C847   O892    1.414   .     S
C848   H880    1.107   .     S
C848   H879    1.110   .     S
C848   H878    1.109   .     S
C849   O898    1.284   .     A
C849   O897    1.285   .     A
C850   H855    1.081   .     S
C850   N888    1.365   .     A
C850   C1345   1.413   1_545 S
C851   N887    1.365   .     A
C851   H866    1.081   .     S
C851   C1098   1.413   .     S
C852   N888    1.365   .     A
C852   H877    1.081   .     S
C852   C1343   1.413   1_545 S
C853   N887    1.365   .     A
C853   H881    1.081   .     S
C853   C1096   1.413   .     S
C854   O900    1.385   .     S
N887   Zn901   2.003   .     S
N888   Zn902   2.003   .     S
O889   Zn901   2.023   .     S
O893   Zn902   2.023   .     S
O894   Zn901   2.023   .     S
O895   Zn902   2.023   .     S
O896   Zn901   2.000   .     S
O897   Zn902   2.000   .     S
O898   Zn901   2.000   .     S
O899   Zn902   2.000   .     S
C903   C921    1.436   .     S
C903   O977    1.283   .     A
C903   O971    1.285   .     A
C904   C920    1.408   .     A
C904   O972    1.384   .     S
C904   C742    1.379   1_655 S
C905   C920    1.408   .     A
C905   O973    1.385   .     S
C905   C772    1.380   1_655 S
C906   C921    1.409   .     A
C906   O974    1.384   .     S
C907   C918    1.399   .     A
C907   C911    1.380   .     A
C907   H968    1.083   .     S
C908   C919    1.399   .     A
C908   C912    1.380   .     A
C908   H938    1.083   .     S
C909   C919    1.399   .     A
C909   C913    1.380   .     A
C909   H939    1.083   .     S
C910   C915    1.380   .     A
C910   C918    1.399   .     A
C910   H940    1.083   .     S
C911   H964    1.084   .     S
C911   C916    1.399   .     A
C912   H965    1.084   .     S
C912   C917    1.399   .     A
C913   C917    1.399   .     A
C913   H966    1.084   .     S
C914   O976    1.285   .     A
C914   O975    1.283   .     A
C914   C920    1.437   .     S
C915   H967    1.084   .     S
C915   C916    1.399   .     A
C916   C925    1.436   .     S
C917   C931    1.436   .     S
C919   C180    1.443   1_556 S
C921   C936    1.409   .     A
C922   H942    1.117   .     S
C922   O982    1.415   .     S
C922   H941    1.112   .     S
C922   C923    1.520   .     S
C923   H945    1.110   .     S
C923   H943    1.106   .     S
C923   H944    1.107   .     S
C924   H946    1.116   .     S
C924   C926    1.520   .     S
C924   H947    1.114   .     S
C924   O972    1.414   .     S
C925   O978    1.284   .     A
C925   O981    1.285   .     A
C926   H950    1.110   .     S
C926   H951    1.107   .     S
C926   H949    1.109   .     S
C927   H952    1.112   .     S
C927   O973    1.415   .     S
C927   C928    1.519   .     S
C927   H953    1.117   .     S
C928   H956    1.106   .     S
C928   H954    1.107   .     S
C928   H955    1.110   .     S
C929   H957    1.116   .     S
C929   H958    1.114   .     S
C929   C930    1.520   .     S
C929   O974    1.414   .     S
C930   H962    1.107   .     S
C930   H961    1.110   .     S
C930   H960    1.109   .     S
C931   O980    1.284   .     A
C931   O979    1.285   .     A
C932   H937    1.081   .     S
C932   N970    1.365   .     A
C932   C1427   1.413   1_545 S
C933   N969    1.365   .     A
C933   H948    1.081   .     S
C933   C1180   1.413   .     S
C934   N970    1.365   .     A
C934   H959    1.081   .     S
C934   C1425   1.413   1_545 S
C935   N969    1.365   .     A
C935   H963    1.081   .     S
C935   C1178   1.413   .     S
C936   O982    1.385   .     S
N969   Zn983   2.003   .     S
N970   Zn984   2.003   .     S
O971   Zn983   2.023   .     S
O975   Zn984   2.023   .     S
O976   Zn983   2.023   .     S
O977   Zn984   2.023   .     S
O978   Zn983   2.000   .     S
O979   Zn984   2.000   .     S
O980   Zn983   2.000   .     S
O981   Zn984   2.000   .     S
C985   C1003   1.436   .     S
C985   O1059   1.283   .     A
C985   O1053   1.285   .     A
C986   C1002   1.408   .     A
C986   O1054   1.384   .     S
C986   C1070   1.379   .     S
C987   C1002   1.408   .     A
C987   O1055   1.385   .     S
C987   C1100   1.380   .     S
C988   C1003   1.409   .     A
C988   O1056   1.384   .     S
C988   C1150   1.379   1_455 S
C989   C1000   1.399   .     A
C989   C993    1.380   .     A
C989   H1050   1.083   .     S
C990   C1001   1.399   .     A
C990   C994    1.380   .     A
C990   H1020   1.083   .     S
C991   C1001   1.399   .     A
C991   C995    1.380   .     A
C991   H1021   1.083   .     S
C992   C997    1.380   .     A
C992   C1000   1.399   .     A
C992   H1022   1.083   .     S
C993   H1046   1.084   .     S
C993   C998    1.399   .     A
C994   H1047   1.084   .     S
C994   C999    1.399   .     A
C995   C999    1.399   .     A
C995   H1048   1.084   .     S
C996   O1058   1.285   .     A
C996   O1057   1.283   .     A
C996   C1002   1.437   .     S
C997   H1049   1.084   .     S
C997   C998    1.399   .     A
C998   C1007   1.436   .     S
C999   C1013   1.436   .     S
C1001  C262    1.443   1_556 S
C1003  C1018   1.409   .     A
C1004  H1024   1.117   .     S
C1004  O1064   1.415   .     S
C1004  H1023   1.112   .     S
C1004  C1005   1.520   .     S
C1005  H1027   1.110   .     S
C1005  H1025   1.106   .     S
C1005  H1026   1.107   .     S
C1006  H1028   1.116   .     S
C1006  C1008   1.520   .     S
C1006  H1029   1.114   .     S
C1006  O1054   1.414   .     S
C1007  O1060   1.284   .     A
C1007  O1063   1.285   .     A
C1008  H1032   1.110   .     S
C1008  H1033   1.107   .     S
C1008  H1031   1.109   .     S
C1009  H1034   1.112   .     S
C1009  O1055   1.415   .     S
C1009  C1010   1.519   .     S
C1009  H1035   1.117   .     S
C1010  H1038   1.106   .     S
C1010  H1036   1.107   .     S
C1010  H1037   1.110   .     S
C1011  H1039   1.116   .     S
C1011  H1040   1.114   .     S
C1011  C1012   1.520   .     S
C1011  O1056   1.414   .     S
C1012  H1044   1.107   .     S
C1012  H1043   1.110   .     S
C1012  H1042   1.109   .     S
C1013  O1062   1.284   .     A
C1013  O1061   1.285   .     A
C1014  H1019   1.081   .     S
C1014  N1052   1.365   .     A
C1015  N1051   1.365   .     A
C1015  H1030   1.081   .     S
C1015  C1262   1.413   .     S
C1016  N1052   1.365   .     A
C1016  H1041   1.081   .     S
C1017  N1051   1.365   .     A
C1017  H1045   1.081   .     S
C1017  C1260   1.413   .     S
C1018  O1064   1.385   .     S
C1018  C1151   1.380   1_455 S
N1051  Zn1065  2.003   .     S
N1052  Zn1066  2.003   .     S
O1053  Zn1065  2.023   .     S
O1057  Zn1066  2.023   .     S
O1058  Zn1065  2.023   .     S
O1059  Zn1066  2.023   .     S
O1060  Zn1065  2.000   .     S
O1061  Zn1066  2.000   .     S
O1062  Zn1065  2.000   .     S
O1063  Zn1066  2.000   .     S
C1067  C1085   1.436   .     S
C1067  O1141   1.283   .     A
C1067  O1135   1.285   .     A
C1068  C1084   1.408   .     A
C1068  O1136   1.384   .     S
C1068  C1152   1.379   .     S
C1069  C1084   1.408   .     A
C1069  O1137   1.385   .     S
C1069  C1182   1.380   .     S
C1070  C1085   1.409   .     A
C1070  O1138   1.384   .     S
C1071  C1082   1.399   .     A
C1071  C1075   1.380   .     A
C1071  H1132   1.083   .     S
C1072  C1083   1.399   .     A
C1072  C1076   1.380   .     A
C1072  H1102   1.083   .     S
C1073  C1083   1.399   .     A
C1073  C1077   1.380   .     A
C1073  H1103   1.083   .     S
C1074  C1079   1.380   .     A
C1074  C1082   1.399   .     A
C1074  H1104   1.083   .     S
C1075  H1128   1.084   .     S
C1075  C1080   1.399   .     A
C1076  H1129   1.084   .     S
C1076  C1081   1.399   .     A
C1077  C1081   1.399   .     A
C1077  H1130   1.084   .     S
C1078  O1140   1.285   .     A
C1078  O1139   1.283   .     A
C1078  C1084   1.437   .     S
C1079  H1131   1.084   .     S
C1079  C1080   1.399   .     A
C1080  C1089   1.436   .     S
C1081  C1095   1.436   .     S
C1083  C344    1.443   1_556 S
C1085  C1100   1.409   .     A
C1086  H1106   1.117   .     S
C1086  O1146   1.415   .     S
C1086  H1105   1.112   .     S
C1086  C1087   1.520   .     S
C1087  H1109   1.110   .     S
C1087  H1107   1.106   .     S
C1087  H1108   1.107   .     S
C1088  H1110   1.116   .     S
C1088  C1090   1.520   .     S
C1088  H1111   1.114   .     S
C1088  O1136   1.414   .     S
C1089  O1142   1.284   .     A
C1089  O1145   1.285   .     A
C1090  H1114   1.110   .     S
C1090  H1115   1.107   .     S
C1090  H1113   1.109   .     S
C1091  H1116   1.112   .     S
C1091  O1137   1.415   .     S
C1091  C1092   1.519   .     S
C1091  H1117   1.117   .     S
C1092  H1120   1.106   .     S
C1092  H1118   1.107   .     S
C1092  H1119   1.110   .     S
C1093  H1121   1.116   .     S
C1093  H1122   1.114   .     S
C1093  C1094   1.520   .     S
C1093  O1138   1.414   .     S
C1094  H1126   1.107   .     S
C1094  H1125   1.110   .     S
C1094  H1124   1.109   .     S
C1095  O1144   1.284   .     A
C1095  O1143   1.285   .     A
C1096  H1101   1.081   .     S
C1096  N1134   1.365   .     A
C1097  N1133   1.365   .     A
C1097  H1112   1.081   .     S
C1097  C1344   1.413   .     S
C1098  N1134   1.365   .     A
C1098  H1123   1.081   .     S
C1099  N1133   1.365   .     A
C1099  H1127   1.081   .     S
C1099  C1342   1.413   .     S
C1100  O1146   1.385   .     S
N1133  Zn1147  2.003   .     S
N1134  Zn1148  2.003   .     S
O1135  Zn1147  2.023   .     S
O1139  Zn1148  2.023   .     S
O1140  Zn1147  2.023   .     S
O1141  Zn1148  2.023   .     S
O1142  Zn1147  2.000   .     S
O1143  Zn1148  2.000   .     S
O1144  Zn1147  2.000   .     S
O1145  Zn1148  2.000   .     S
C1149  C1167   1.436   .     S
C1149  O1223   1.283   .     A
C1149  O1217   1.285   .     A
C1150  C1166   1.408   .     A
C1150  O1218   1.384   .     S
C1150  C988    1.379   1_655 S
C1151  C1166   1.408   .     A
C1151  O1219   1.385   .     S
C1151  C1018   1.380   1_655 S
C1152  C1167   1.409   .     A
C1152  O1220   1.384   .     S
C1153  C1164   1.399   .     A
C1153  C1157   1.380   .     A
C1153  H1214   1.083   .     S
C1154  C1165   1.399   .     A
C1154  C1158   1.380   .     A
C1154  H1184   1.083   .     S
C1155  C1165   1.399   .     A
C1155  C1159   1.380   .     A
C1155  H1185   1.083   .     S
C1156  C1161   1.380   .     A
C1156  C1164   1.399   .     A
C1156  H1186   1.083   .     S
C1157  H1210   1.084   .     S
C1157  C1162   1.399   .     A
C1158  H1211   1.084   .     S
C1158  C1163   1.399   .     A
C1159  C1163   1.399   .     A
C1159  H1212   1.084   .     S
C1160  O1222   1.285   .     A
C1160  O1221   1.283   .     A
C1160  C1166   1.437   .     S
C1161  H1213   1.084   .     S
C1161  C1162   1.399   .     A
C1162  C1171   1.436   .     S
C1163  C1177   1.436   .     S
C1165  C426    1.443   1_556 S
C1167  C1182   1.409   .     A
C1168  H1188   1.117   .     S
C1168  O1228   1.415   .     S
C1168  H1187   1.112   .     S
C1168  C1169   1.520   .     S
C1169  H1191   1.110   .     S
C1169  H1189   1.106   .     S
C1169  H1190   1.107   .     S
C1170  H1192   1.116   .     S
C1170  C1172   1.520   .     S
C1170  H1193   1.114   .     S
C1170  O1218   1.414   .     S
C1171  O1224   1.284   .     A
C1171  O1227   1.285   .     A
C1172  H1196   1.110   .     S
C1172  H1197   1.107   .     S
C1172  H1195   1.109   .     S
C1173  H1198   1.112   .     S
C1173  O1219   1.415   .     S
C1173  C1174   1.519   .     S
C1173  H1199   1.117   .     S
C1174  H1202   1.106   .     S
C1174  H1200   1.107   .     S
C1174  H1201   1.110   .     S
C1175  H1203   1.116   .     S
C1175  H1204   1.114   .     S
C1175  C1176   1.520   .     S
C1175  O1220   1.414   .     S
C1176  H1208   1.107   .     S
C1176  H1207   1.110   .     S
C1176  H1206   1.109   .     S
C1177  O1226   1.284   .     A
C1177  O1225   1.285   .     A
C1178  H1183   1.081   .     S
C1178  N1216   1.365   .     A
C1179  N1215   1.365   .     A
C1179  H1194   1.081   .     S
C1179  C1426   1.413   .     S
C1180  N1216   1.365   .     A
C1180  H1205   1.081   .     S
C1181  N1215   1.365   .     A
C1181  H1209   1.081   .     S
C1181  C1424   1.413   .     S
C1182  O1228   1.385   .     S
N1215  Zn1229  2.003   .     S
N1216  Zn1230  2.003   .     S
O1217  Zn1229  2.023   .     S
O1221  Zn1230  2.023   .     S
O1222  Zn1229  2.023   .     S
O1223  Zn1230  2.023   .     S
O1224  Zn1229  2.000   .     S
O1225  Zn1230  2.000   .     S
O1226  Zn1229  2.000   .     S
O1227  Zn1230  2.000   .     S
C1231  C1249   1.436   .     S
C1231  O1305   1.283   .     A
C1231  O1299   1.285   .     A
C1232  C1248   1.408   .     A
C1232  O1300   1.384   .     S
C1232  C1316   1.379   .     S
C1233  C1248   1.408   .     A
C1233  O1301   1.385   .     S
C1233  C1346   1.380   .     S
C1234  C1249   1.409   .     A
C1234  O1302   1.384   .     S
C1234  C1396   1.379   1_455 S
C1235  C1246   1.399   .     A
C1235  C1239   1.380   .     A
C1235  H1296   1.083   .     S
C1236  C1247   1.399   .     A
C1236  C1240   1.380   .     A
C1236  H1266   1.083   .     S
C1237  C1247   1.399   .     A
C1237  C1241   1.380   .     A
C1237  H1267   1.083   .     S
C1238  C1243   1.380   .     A
C1238  C1246   1.399   .     A
C1238  H1268   1.083   .     S
C1239  H1292   1.084   .     S
C1239  C1244   1.399   .     A
C1240  H1293   1.084   .     S
C1240  C1245   1.399   .     A
C1241  C1245   1.399   .     A
C1241  H1294   1.084   .     S
C1242  O1304   1.285   .     A
C1242  O1303   1.283   .     A
C1242  C1248   1.437   .     S
C1243  H1295   1.084   .     S
C1243  C1244   1.399   .     A
C1244  C1253   1.436   .     S
C1245  C1259   1.436   .     S
C1247  C508    1.443   1_556 S
C1249  C1264   1.409   .     A
C1250  H1270   1.117   .     S
C1250  O1310   1.415   .     S
C1250  H1269   1.112   .     S
C1250  C1251   1.520   .     S
C1251  H1273   1.110   .     S
C1251  H1271   1.106   .     S
C1251  H1272   1.107   .     S
C1252  H1274   1.116   .     S
C1252  C1254   1.520   .     S
C1252  H1275   1.114   .     S
C1252  O1300   1.414   .     S
C1253  O1306   1.284   .     A
C1253  O1309   1.285   .     A
C1254  H1278   1.110   .     S
C1254  H1279   1.107   .     S
C1254  H1277   1.109   .     S
C1255  H1280   1.112   .     S
C1255  O1301   1.415   .     S
C1255  C1256   1.519   .     S
C1255  H1281   1.117   .     S
C1256  H1284   1.106   .     S
C1256  H1282   1.107   .     S
C1256  H1283   1.110   .     S
C1257  H1285   1.116   .     S
C1257  H1286   1.114   .     S
C1257  C1258   1.520   .     S
C1257  O1302   1.414   .     S
C1258  H1290   1.107   .     S
C1258  H1289   1.110   .     S
C1258  H1288   1.109   .     S
C1259  O1308   1.284   .     A
C1259  O1307   1.285   .     A
C1260  H1265   1.081   .     S
C1260  N1298   1.365   .     A
C1261  N1297   1.365   .     A
C1261  H1276   1.081   .     S
C1261  C770    1.413   1_565 S
C1262  N1298   1.365   .     A
C1262  H1287   1.081   .     S
C1263  N1297   1.365   .     A
C1263  H1291   1.081   .     S
C1263  C768    1.413   1_565 S
C1264  O1310   1.385   .     S
C1264  C1397   1.380   1_455 S
N1297  Zn1311  2.003   .     S
N1298  Zn1312  2.003   .     S
O1299  Zn1311  2.023   .     S
O1303  Zn1312  2.023   .     S
O1304  Zn1311  2.023   .     S
O1305  Zn1312  2.023   .     S
O1306  Zn1311  2.000   .     S
O1307  Zn1312  2.000   .     S
O1308  Zn1311  2.000   .     S
O1309  Zn1312  2.000   .     S
C1313  C1331   1.436   .     S
C1313  O1387   1.283   .     A
C1313  O1381   1.285   .     A
C1314  C1330   1.408   .     A
C1314  O1382   1.384   .     S
C1314  C1398   1.379   .     S
C1315  C1330   1.408   .     A
C1315  O1383   1.385   .     S
C1315  C1428   1.380   .     S
C1316  C1331   1.409   .     A
C1316  O1384   1.384   .     S
C1317  C1328   1.399   .     A
C1317  C1321   1.380   .     A
C1317  H1378   1.083   .     S
C1318  C1329   1.399   .     A
C1318  C1322   1.380   .     A
C1318  H1348   1.083   .     S
C1319  C1329   1.399   .     A
C1319  C1323   1.380   .     A
C1319  H1349   1.083   .     S
C1320  C1325   1.380   .     A
C1320  C1328   1.399   .     A
C1320  H1350   1.083   .     S
C1321  H1374   1.084   .     S
C1321  C1326   1.399   .     A
C1322  H1375   1.084   .     S
C1322  C1327   1.399   .     A
C1323  C1327   1.399   .     A
C1323  H1376   1.084   .     S
C1324  O1386   1.285   .     A
C1324  O1385   1.283   .     A
C1324  C1330   1.437   .     S
C1325  H1377   1.084   .     S
C1325  C1326   1.399   .     A
C1326  C1335   1.436   .     S
C1327  C1341   1.436   .     S
C1329  C590    1.443   1_556 S
C1331  C1346   1.409   .     A
C1332  H1352   1.117   .     S
C1332  O1392   1.415   .     S
C1332  H1351   1.112   .     S
C1332  C1333   1.520   .     S
C1333  H1355   1.110   .     S
C1333  H1353   1.106   .     S
C1333  H1354   1.107   .     S
C1334  H1356   1.116   .     S
C1334  C1336   1.520   .     S
C1334  H1357   1.114   .     S
C1334  O1382   1.414   .     S
C1335  O1388   1.284   .     A
C1335  O1391   1.285   .     A
C1336  H1360   1.110   .     S
C1336  H1361   1.107   .     S
C1336  H1359   1.109   .     S
C1337  H1362   1.112   .     S
C1337  O1383   1.415   .     S
C1337  C1338   1.519   .     S
C1337  H1363   1.117   .     S
C1338  H1366   1.106   .     S
C1338  H1364   1.107   .     S
C1338  H1365   1.110   .     S
C1339  H1367   1.116   .     S
C1339  H1368   1.114   .     S
C1339  C1340   1.520   .     S
C1339  O1384   1.414   .     S
C1340  H1372   1.107   .     S
C1340  H1371   1.110   .     S
C1340  H1370   1.109   .     S
C1341  O1390   1.284   .     A
C1341  O1389   1.285   .     A
C1342  H1347   1.081   .     S
C1342  N1380   1.365   .     A
C1343  N1379   1.365   .     A
C1343  H1358   1.081   .     S
C1343  C852    1.413   1_565 S
C1344  N1380   1.365   .     A
C1344  H1369   1.081   .     S
C1345  N1379   1.365   .     A
C1345  H1373   1.081   .     S
C1345  C850    1.413   1_565 S
C1346  O1392   1.385   .     S
N1379  Zn1393  2.003   .     S
N1380  Zn1394  2.003   .     S
O1381  Zn1393  2.023   .     S
O1385  Zn1394  2.023   .     S
O1386  Zn1393  2.023   .     S
O1387  Zn1394  2.023   .     S
O1388  Zn1393  2.000   .     S
O1389  Zn1394  2.000   .     S
O1390  Zn1393  2.000   .     S
O1391  Zn1394  2.000   .     S
C1395  C1413   1.436   .     S
C1395  O1469   1.283   .     A
C1395  O1463   1.285   .     A
C1396  C1412   1.408   .     A
C1396  O1464   1.384   .     S
C1396  C1234   1.379   1_655 S
C1397  C1412   1.408   .     A
C1397  O1465   1.385   .     S
C1397  C1264   1.380   1_655 S
C1398  C1413   1.409   .     A
C1398  O1466   1.384   .     S
C1399  C1410   1.399   .     A
C1399  C1403   1.380   .     A
C1399  H1460   1.083   .     S
C1400  C1411   1.399   .     A
C1400  C1404   1.380   .     A
C1400  H1430   1.083   .     S
C1401  C1411   1.399   .     A
C1401  C1405   1.380   .     A
C1401  H1431   1.083   .     S
C1402  C1407   1.380   .     A
C1402  C1410   1.399   .     A
C1402  H1432   1.083   .     S
C1403  H1456   1.084   .     S
C1403  C1408   1.399   .     A
C1404  H1457   1.084   .     S
C1404  C1409   1.399   .     A
C1405  C1409   1.399   .     A
C1405  H1458   1.084   .     S
C1406  O1468   1.285   .     A
C1406  O1467   1.283   .     A
C1406  C1412   1.437   .     S
C1407  H1459   1.084   .     S
C1407  C1408   1.399   .     A
C1408  C1417   1.436   .     S
C1409  C1423   1.436   .     S
C1411  C672    1.443   1_556 S
C1413  C1428   1.409   .     A
C1414  H1434   1.117   .     S
C1414  O1474   1.415   .     S
C1414  H1433   1.112   .     S
C1414  C1415   1.520   .     S
C1415  H1437   1.110   .     S
C1415  H1435   1.106   .     S
C1415  H1436   1.107   .     S
C1416  H1438   1.116   .     S
C1416  C1418   1.520   .     S
C1416  H1439   1.114   .     S
C1416  O1464   1.414   .     S
C1417  O1470   1.284   .     A
C1417  O1473   1.285   .     A
C1418  H1442   1.110   .     S
C1418  H1443   1.107   .     S
C1418  H1441   1.109   .     S
C1419  H1444   1.112   .     S
C1419  O1465   1.415   .     S
C1419  C1420   1.519   .     S
C1419  H1445   1.117   .     S
C1420  H1448   1.106   .     S
C1420  H1446   1.107   .     S
C1420  H1447   1.110   .     S
C1421  H1449   1.116   .     S
C1421  H1450   1.114   .     S
C1421  C1422   1.520   .     S
C1421  O1466   1.414   .     S
C1422  H1454   1.107   .     S
C1422  H1453   1.110   .     S
C1422  H1452   1.109   .     S
C1423  O1472   1.284   .     A
C1423  O1471   1.285   .     A
C1424  H1429   1.081   .     S
C1424  N1462   1.365   .     A
C1425  N1461   1.365   .     A
C1425  H1440   1.081   .     S
C1425  C934    1.413   1_565 S
C1426  N1462   1.365   .     A
C1426  H1451   1.081   .     S
C1427  N1461   1.365   .     A
C1427  H1455   1.081   .     S
C1427  C932    1.413   1_565 S
C1428  O1474   1.385   .     S
N1461  Zn1475  2.003   .     S
N1462  Zn1476  2.003   .     S
O1463  Zn1475  2.023   .     S
O1467  Zn1476  2.023   .     S
O1468  Zn1475  2.023   .     S
O1469  Zn1476  2.023   .     S
O1470  Zn1475  2.000   .     S
O1471  Zn1476  2.000   .     S
O1472  Zn1475  2.000   .     S
O1473  Zn1476  2.000   .     S
