data_str_m3_o1_o18_pcu_sym.22
_audit_creation_date              2020-01-03
_audit_creation_method            'Materials Studio'
_symmetry_space_group_name_H-M    'P1'
_symmetry_Int_Tables_number       1
_symmetry_cell_setting            triclinic
loop_
_symmetry_equiv_pos_as_xyz
  x,y,z
_cell_length_a                    29.9770
_cell_length_b                    32.0731
_cell_length_c                    30.3473
_cell_angle_alpha                 91.0370
_cell_angle_beta                  68.2882
_cell_angle_gamma                 89.7867
loop_
_atom_site_label
_atom_site_type_symbol
_atom_site_fract_x
_atom_site_fract_y
_atom_site_fract_z
_atom_site_U_iso_or_equiv
_atom_site_adp_type
_atom_site_occupancy
C1     C     0.16645   0.24653   0.25072   0.00000  Uiso   1.00
C2     C     0.14119   0.31096   0.22699   0.00000  Uiso   1.00
C3     C     0.16738   0.04262   0.24804   0.00000  Uiso   1.00
C4     C     0.16671   0.29080   0.25077   0.00000  Uiso   1.00
C5     C     0.31875   0.13533   0.22749   0.00000  Uiso   1.00
C6     C     0.01455   0.19795   0.27264   0.00000  Uiso   1.00
C7     C     0.03267   0.13544   0.22808   0.00000  Uiso   1.00
C8     C     0.30063   0.19785   0.27202   0.00000  Uiso   1.00
C9     C     0.13663   0.16823   0.33808   0.00000  Uiso   1.00
C10    C     0.19663   0.16694   0.16196   0.00000  Uiso   1.00
C11    C     0.11829   0.17505   0.38934   0.00000  Uiso   1.00
C12    C     0.16707   0.08684   0.24889   0.00000  Uiso   1.00
C13    C     0.21435   0.16814   0.11051   0.00000  Uiso   1.00
C14    C     0.06736   0.15292   0.46821   0.00000  Uiso   1.00
C15    C     0.25186   0.13000   0.03584   0.00000  Uiso   1.00
C16    C     0.08184   0.14985   0.41849   0.00000  Uiso   1.00
C17    C     0.24332   0.13529   0.08420   0.00000  Uiso   1.00
C18    C     0.14331   0.20129   0.40960   0.00000  Uiso   1.00
C19    C     0.19163   0.19515   0.08909   0.00000  Uiso   1.00
C20    C     0.13455   0.19785   0.45784   0.00000  Uiso   1.00
C21    C     0.19636   0.18701   0.04210   0.00000  Uiso   1.00
C22    C     0.08989   0.18267   0.48800   0.00000  Uiso   1.00
C23    C     0.11170   0.20024   0.05512   0.00000  Uiso   1.00
C24    C     0.23392   0.16047   0.01308   0.00000  Uiso   1.00
C25    C     0.17212   0.19781   0.47515   0.00000  Uiso   1.00
C26    C     0.16060   0.19848   0.02471   0.00000  Uiso   1.00
C27    C     0.02509   0.19303   0.06976   0.00000  Uiso   1.00
C28    C     0.29543   0.14748   0.42999   0.00000  Uiso   1.00
C29    C     0.04103   0.11743   0.49669   0.00000  Uiso   1.00
C30    C     0.26702   0.08756   0.01532   0.00000  Uiso   1.00
C31    C     0.30738   0.10035   0.20153   0.00000  Uiso   1.00
C32    C     0.02586   0.23281   0.29886   0.00000  Uiso   1.00
C33    C     0.21881   0.18556   0.44498   0.00000  Uiso   1.00
C34    C     0.07598   0.19113   0.03713   0.00000  Uiso   1.00
C35    C     0.24868   0.16410   0.46323   0.00000  Uiso   1.00
C36    C     0.19324   0.31283   0.27303   0.00000  Uiso   1.00
C37    C     0.14164   0.02065   0.22496   0.00000  Uiso   1.00
C38    C     0.19315   0.02247   0.27150   0.00000  Uiso   1.00
H39    H     0.25539   0.11157   0.10239   0.00000  Uiso   1.00
H40    H     0.31995   0.13315   0.44364   0.00000  Uiso   1.00
H41    H     0.17375   0.23699   0.14039   0.00000  Uiso   1.00
H42    H     0.16996   0.23694   0.35536   0.00000  Uiso   1.00
H43    H     0.02558   0.11922   0.03502   0.00000  Uiso   1.00
H44    H     0.28460   0.06678   0.03183   0.00000  Uiso   1.00
H45    H     0.23457   0.31245   0.30991   0.00000  Uiso   1.00
H46    H     0.10225   0.02121   0.18619   0.00000  Uiso   1.00
H47    H     0.31967   0.06910   0.20483   0.00000  Uiso   1.00
H48    H     0.01346   0.26407   0.29578   0.00000  Uiso   1.00
H49    H     0.06740   0.12587   0.40212   0.00000  Uiso   1.00
H50    H     0.10105   0.20227   0.09325   0.00000  Uiso   1.00
H51    H     0.22933   0.18596   0.40688   0.00000  Uiso   1.00
H52    H     0.21250   0.04023   0.28932   0.00000  Uiso   1.00
H53    H     0.12185   0.29318   0.20919   0.00000  Uiso   1.00
H54    H     0.05781   0.11068   0.21013   0.00000  Uiso   1.00
H55    H     0.27544   0.22254   0.29010   0.00000  Uiso   1.00
H56    H     0.01589   0.19180   0.10784   0.00000  Uiso   1.00
N57    N     0.04759   0.16668   0.25001   0.00000  Uiso   1.00
N58    N     0.28574   0.16666   0.24999   0.00000  Uiso   1.00
O59    O     0.12846   0.22775   0.25000   0.00000  Uiso   1.00
O60    O     0.30717   0.14980   0.38705   0.00000  Uiso   1.00
O61    O     0.16508   0.22968   0.11274   0.00000  Uiso   1.00
O62    O     0.17716   0.22946   0.38355   0.00000  Uiso   1.00
O63    O     0.03899   0.08415   0.47734   0.00000  Uiso   1.00
O64    O     0.25711   0.07416   0.48218   0.00000  Uiso   1.00
O65    O     0.21798   0.29200   0.29656   0.00000  Uiso   1.00
O66    O     0.11844   0.04163   0.20002   0.00000  Uiso   1.00
O67    O     0.28778   0.10616   0.17347   0.00000  Uiso   1.00
O68    O     0.04549   0.22688   0.32689   0.00000  Uiso   1.00
O69    O     0.20488   0.10558   0.24999   0.00000  Uiso   1.00
O70    O     0.20490   0.22774   0.25000   0.00000  Uiso   1.00
O71    O     0.12843   0.10559   0.25000   0.00000  Uiso   1.00
O72    O     0.10661   0.16667   0.31612   0.00000  Uiso   1.00
O73    O     0.22672   0.16666   0.18387   0.00000  Uiso   1.00
O74    O     0.18305   0.16666   0.31612   0.00000  Uiso   1.00
O75    O     0.15028   0.16667   0.18388   0.00000  Uiso   1.00
O76    O     0.32639   0.19770   0.05450   0.00000  Uiso   1.00
Zn77   Zn    0.11562   0.16667   0.25000   0.00000  Uiso   1.00
Zn78   Zn    0.21771   0.16666   0.25000   0.00000  Uiso   1.00
C79    C     0.49978   0.24653   0.25072   0.00000  Uiso   1.00
C80    C     0.47453   0.31096   0.22699   0.00000  Uiso   1.00
C81    C     0.50071   0.04262   0.24804   0.00000  Uiso   1.00
C82    C     0.50005   0.29080   0.25077   0.00000  Uiso   1.00
C83    C     0.65208   0.13533   0.22749   0.00000  Uiso   1.00
C84    C     0.34789   0.19795   0.27264   0.00000  Uiso   1.00
C85    C     0.36600   0.13544   0.22808   0.00000  Uiso   1.00
C86    C     0.63397   0.19785   0.27202   0.00000  Uiso   1.00
C87    C     0.46997   0.16823   0.33808   0.00000  Uiso   1.00
C88    C     0.52996   0.16694   0.16196   0.00000  Uiso   1.00
C89    C     0.45163   0.17505   0.38934   0.00000  Uiso   1.00
C90    C     0.50040   0.08684   0.24889   0.00000  Uiso   1.00
C91    C     0.54768   0.16814   0.11051   0.00000  Uiso   1.00
C92    C     0.40070   0.15292   0.46821   0.00000  Uiso   1.00
C93    C     0.58519   0.13000   0.03584   0.00000  Uiso   1.00
C94    C     0.41517   0.14985   0.41849   0.00000  Uiso   1.00
C95    C     0.57665   0.13529   0.08420   0.00000  Uiso   1.00
C96    C     0.47665   0.20129   0.40960   0.00000  Uiso   1.00
C97    C     0.52497   0.19515   0.08909   0.00000  Uiso   1.00
C98    C     0.46788   0.19785   0.45784   0.00000  Uiso   1.00
C99    C     0.52970   0.18701   0.04210   0.00000  Uiso   1.00
C100   C     0.42323   0.18267   0.48800   0.00000  Uiso   1.00
C101   C     0.44504   0.20024   0.05512   0.00000  Uiso   1.00
C102   C     0.56725   0.16047   0.01308   0.00000  Uiso   1.00
C103   C     0.50546   0.19781   0.47515   0.00000  Uiso   1.00
C104   C     0.49393   0.19848   0.02471   0.00000  Uiso   1.00
C105   C     0.35843   0.19303   0.06976   0.00000  Uiso   1.00
C106   C     0.62877   0.14748   0.42999   0.00000  Uiso   1.00
C107   C     0.37436   0.11743   0.49669   0.00000  Uiso   1.00
C108   C     0.60035   0.08756   0.01532   0.00000  Uiso   1.00
C109   C     0.64072   0.10035   0.20153   0.00000  Uiso   1.00
C110   C     0.35919   0.23281   0.29886   0.00000  Uiso   1.00
C111   C     0.55214   0.18556   0.44498   0.00000  Uiso   1.00
C112   C     0.40932   0.19113   0.03713   0.00000  Uiso   1.00
C113   C     0.58201   0.16410   0.46323   0.00000  Uiso   1.00
C114   C     0.52657   0.31283   0.27303   0.00000  Uiso   1.00
C115   C     0.47498   0.02065   0.22496   0.00000  Uiso   1.00
C116   C     0.52649   0.02247   0.27150   0.00000  Uiso   1.00
H117   H     0.58872   0.11157   0.10239   0.00000  Uiso   1.00
H118   H     0.65329   0.13315   0.44364   0.00000  Uiso   1.00
H119   H     0.50709   0.23699   0.14039   0.00000  Uiso   1.00
H120   H     0.50330   0.23694   0.35536   0.00000  Uiso   1.00
H121   H     0.35891   0.11922   0.03502   0.00000  Uiso   1.00
H122   H     0.61794   0.06678   0.03183   0.00000  Uiso   1.00
H123   H     0.56791   0.31245   0.30991   0.00000  Uiso   1.00
H124   H     0.43558   0.02121   0.18619   0.00000  Uiso   1.00
H125   H     0.65301   0.06910   0.20483   0.00000  Uiso   1.00
H126   H     0.34679   0.26407   0.29578   0.00000  Uiso   1.00
H127   H     0.40073   0.12587   0.40212   0.00000  Uiso   1.00
H128   H     0.43438   0.20227   0.09325   0.00000  Uiso   1.00
H129   H     0.56266   0.18596   0.40688   0.00000  Uiso   1.00
H130   H     0.54583   0.04023   0.28932   0.00000  Uiso   1.00
H131   H     0.45518   0.29318   0.20919   0.00000  Uiso   1.00
H132   H     0.39115   0.11068   0.21013   0.00000  Uiso   1.00
H133   H     0.60878   0.22254   0.29010   0.00000  Uiso   1.00
H134   H     0.34922   0.19180   0.10784   0.00000  Uiso   1.00
N135   N     0.38093   0.16668   0.25001   0.00000  Uiso   1.00
N136   N     0.61907   0.16666   0.24999   0.00000  Uiso   1.00
O137   O     0.46179   0.22775   0.25000   0.00000  Uiso   1.00
O138   O     0.64050   0.14980   0.38705   0.00000  Uiso   1.00
O139   O     0.49842   0.22968   0.11274   0.00000  Uiso   1.00
O140   O     0.51049   0.22946   0.38355   0.00000  Uiso   1.00
O141   O     0.37232   0.08415   0.47734   0.00000  Uiso   1.00
O142   O     0.59045   0.07416   0.48218   0.00000  Uiso   1.00
O143   O     0.55132   0.29200   0.29656   0.00000  Uiso   1.00
O144   O     0.45178   0.04163   0.20002   0.00000  Uiso   1.00
O145   O     0.62111   0.10616   0.17347   0.00000  Uiso   1.00
O146   O     0.37883   0.22688   0.32689   0.00000  Uiso   1.00
O147   O     0.53821   0.10558   0.24999   0.00000  Uiso   1.00
O148   O     0.53823   0.22774   0.25000   0.00000  Uiso   1.00
O149   O     0.46177   0.10559   0.25000   0.00000  Uiso   1.00
O150   O     0.43994   0.16667   0.31612   0.00000  Uiso   1.00
O151   O     0.56006   0.16666   0.18387   0.00000  Uiso   1.00
O152   O     0.51639   0.16666   0.31612   0.00000  Uiso   1.00
O153   O     0.48361   0.16667   0.18388   0.00000  Uiso   1.00
O154   O     0.65973   0.19770   0.05450   0.00000  Uiso   1.00
Zn155  Zn    0.44896   0.16667   0.25000   0.00000  Uiso   1.00
Zn156  Zn    0.55104   0.16666   0.25000   0.00000  Uiso   1.00
C157   C     0.83312   0.24653   0.25072   0.00000  Uiso   1.00
C158   C     0.80786   0.31096   0.22699   0.00000  Uiso   1.00
C159   C     0.83404   0.04262   0.24804   0.00000  Uiso   1.00
C160   C     0.83338   0.29080   0.25077   0.00000  Uiso   1.00
C161   C     0.98542   0.13533   0.22749   0.00000  Uiso   1.00
C162   C     0.68122   0.19795   0.27264   0.00000  Uiso   1.00
C163   C     0.69933   0.13544   0.22808   0.00000  Uiso   1.00
C164   C     0.96730   0.19785   0.27202   0.00000  Uiso   1.00
C165   C     0.80330   0.16823   0.33808   0.00000  Uiso   1.00
C166   C     0.86330   0.16694   0.16196   0.00000  Uiso   1.00
C167   C     0.78496   0.17505   0.38934   0.00000  Uiso   1.00
C168   C     0.83373   0.08684   0.24889   0.00000  Uiso   1.00
C169   C     0.88102   0.16814   0.11051   0.00000  Uiso   1.00
C170   C     0.73403   0.15292   0.46821   0.00000  Uiso   1.00
C171   C     0.91853   0.13000   0.03584   0.00000  Uiso   1.00
C172   C     0.74851   0.14985   0.41849   0.00000  Uiso   1.00
C173   C     0.90999   0.13529   0.08420   0.00000  Uiso   1.00
C174   C     0.80998   0.20129   0.40960   0.00000  Uiso   1.00
C175   C     0.85830   0.19515   0.08909   0.00000  Uiso   1.00
C176   C     0.80121   0.19785   0.45784   0.00000  Uiso   1.00
C177   C     0.86303   0.18701   0.04210   0.00000  Uiso   1.00
C178   C     0.75656   0.18267   0.48800   0.00000  Uiso   1.00
C179   C     0.77837   0.20024   0.05512   0.00000  Uiso   1.00
C180   C     0.90059   0.16047   0.01308   0.00000  Uiso   1.00
C181   C     0.83879   0.19781   0.47515   0.00000  Uiso   1.00
C182   C     0.82726   0.19848   0.02471   0.00000  Uiso   1.00
C183   C     0.69176   0.19303   0.06976   0.00000  Uiso   1.00
C184   C     0.96210   0.14748   0.42999   0.00000  Uiso   1.00
C185   C     0.70769   0.11743   0.49669   0.00000  Uiso   1.00
C186   C     0.93368   0.08756   0.01532   0.00000  Uiso   1.00
C187   C     0.97405   0.10035   0.20153   0.00000  Uiso   1.00
C188   C     0.69252   0.23281   0.29886   0.00000  Uiso   1.00
C189   C     0.88548   0.18556   0.44498   0.00000  Uiso   1.00
C190   C     0.74265   0.19113   0.03713   0.00000  Uiso   1.00
C191   C     0.91534   0.16410   0.46323   0.00000  Uiso   1.00
C192   C     0.85991   0.31283   0.27303   0.00000  Uiso   1.00
C193   C     0.80831   0.02065   0.22496   0.00000  Uiso   1.00
C194   C     0.85982   0.02247   0.27150   0.00000  Uiso   1.00
H195   H     0.92205   0.11157   0.10239   0.00000  Uiso   1.00
H196   H     0.98662   0.13315   0.44364   0.00000  Uiso   1.00
H197   H     0.84042   0.23699   0.14039   0.00000  Uiso   1.00
H198   H     0.83663   0.23694   0.35536   0.00000  Uiso   1.00
H199   H     0.69224   0.11922   0.03502   0.00000  Uiso   1.00
H200   H     0.95127   0.06678   0.03183   0.00000  Uiso   1.00
H201   H     0.90124   0.31245   0.30991   0.00000  Uiso   1.00
H202   H     0.76891   0.02121   0.18619   0.00000  Uiso   1.00
H203   H     0.98634   0.06910   0.20483   0.00000  Uiso   1.00
H204   H     0.68012   0.26407   0.29578   0.00000  Uiso   1.00
H205   H     0.73406   0.12587   0.40212   0.00000  Uiso   1.00
H206   H     0.76772   0.20227   0.09325   0.00000  Uiso   1.00
H207   H     0.89599   0.18596   0.40688   0.00000  Uiso   1.00
H208   H     0.87917   0.04023   0.28932   0.00000  Uiso   1.00
H209   H     0.78851   0.29318   0.20919   0.00000  Uiso   1.00
H210   H     0.72448   0.11068   0.21013   0.00000  Uiso   1.00
H211   H     0.94211   0.22254   0.29010   0.00000  Uiso   1.00
H212   H     0.68256   0.19180   0.10784   0.00000  Uiso   1.00
N213   N     0.71426   0.16668   0.25001   0.00000  Uiso   1.00
N214   N     0.95241   0.16666   0.24999   0.00000  Uiso   1.00
O215   O     0.79512   0.22775   0.25000   0.00000  Uiso   1.00
O216   O     0.97383   0.14980   0.38705   0.00000  Uiso   1.00
O217   O     0.83175   0.22968   0.11274   0.00000  Uiso   1.00
O218   O     0.84382   0.22946   0.38355   0.00000  Uiso   1.00
O219   O     0.70566   0.08415   0.47734   0.00000  Uiso   1.00
O220   O     0.92378   0.07416   0.48218   0.00000  Uiso   1.00
O221   O     0.88465   0.29200   0.29656   0.00000  Uiso   1.00
O222   O     0.78511   0.04163   0.20002   0.00000  Uiso   1.00
O223   O     0.95444   0.10616   0.17347   0.00000  Uiso   1.00
O224   O     0.71216   0.22688   0.32689   0.00000  Uiso   1.00
O225   O     0.87154   0.10558   0.24999   0.00000  Uiso   1.00
O226   O     0.87157   0.22774   0.25000   0.00000  Uiso   1.00
O227   O     0.79510   0.10559   0.25000   0.00000  Uiso   1.00
O228   O     0.77328   0.16667   0.31612   0.00000  Uiso   1.00
O229   O     0.89339   0.16666   0.18387   0.00000  Uiso   1.00
O230   O     0.84972   0.16666   0.31612   0.00000  Uiso   1.00
O231   O     0.81695   0.16667   0.18388   0.00000  Uiso   1.00
O232   O     0.99306   0.19770   0.05450   0.00000  Uiso   1.00
Zn233  Zn    0.78229   0.16667   0.25000   0.00000  Uiso   1.00
Zn234  Zn    0.88438   0.16666   0.25000   0.00000  Uiso   1.00
C235   C     0.16645   0.57986   0.25072   0.00000  Uiso   1.00
C236   C     0.14119   0.64429   0.22699   0.00000  Uiso   1.00
C237   C     0.16738   0.37596   0.24804   0.00000  Uiso   1.00
C238   C     0.16671   0.62413   0.25077   0.00000  Uiso   1.00
C239   C     0.31875   0.46866   0.22749   0.00000  Uiso   1.00
C240   C     0.01455   0.53129   0.27264   0.00000  Uiso   1.00
C241   C     0.03267   0.46877   0.22808   0.00000  Uiso   1.00
C242   C     0.30063   0.53119   0.27202   0.00000  Uiso   1.00
C243   C     0.13663   0.50157   0.33808   0.00000  Uiso   1.00
C244   C     0.19663   0.50027   0.16196   0.00000  Uiso   1.00
C245   C     0.11829   0.50838   0.38934   0.00000  Uiso   1.00
C246   C     0.16707   0.42018   0.24889   0.00000  Uiso   1.00
C247   C     0.21435   0.50148   0.11051   0.00000  Uiso   1.00
C248   C     0.06736   0.48625   0.46821   0.00000  Uiso   1.00
C249   C     0.25186   0.46334   0.03584   0.00000  Uiso   1.00
C250   C     0.08184   0.48319   0.41849   0.00000  Uiso   1.00
C251   C     0.24332   0.46862   0.08420   0.00000  Uiso   1.00
C252   C     0.14331   0.53463   0.40960   0.00000  Uiso   1.00
C253   C     0.19163   0.52848   0.08909   0.00000  Uiso   1.00
C254   C     0.13455   0.53118   0.45784   0.00000  Uiso   1.00
C255   C     0.19636   0.52034   0.04210   0.00000  Uiso   1.00
C256   C     0.08989   0.51601   0.48800   0.00000  Uiso   1.00
C257   C     0.11170   0.53357   0.05512   0.00000  Uiso   1.00
C258   C     0.23392   0.49381   0.01308   0.00000  Uiso   1.00
C259   C     0.17212   0.53115   0.47515   0.00000  Uiso   1.00
C260   C     0.16060   0.53182   0.02471   0.00000  Uiso   1.00
C261   C     0.02509   0.52636   0.06976   0.00000  Uiso   1.00
C262   C     0.29543   0.48081   0.42999   0.00000  Uiso   1.00
C263   C     0.04103   0.45076   0.49669   0.00000  Uiso   1.00
C264   C     0.26702   0.42090   0.01532   0.00000  Uiso   1.00
C265   C     0.30738   0.43368   0.20153   0.00000  Uiso   1.00
C266   C     0.02586   0.56614   0.29886   0.00000  Uiso   1.00
C267   C     0.21881   0.51890   0.44498   0.00000  Uiso   1.00
C268   C     0.07598   0.52447   0.03713   0.00000  Uiso   1.00
C269   C     0.24868   0.49743   0.46323   0.00000  Uiso   1.00
C270   C     0.19324   0.64616   0.27303   0.00000  Uiso   1.00
C271   C     0.14164   0.35399   0.22496   0.00000  Uiso   1.00
C272   C     0.19315   0.35580   0.27150   0.00000  Uiso   1.00
H273   H     0.25539   0.44491   0.10239   0.00000  Uiso   1.00
H274   H     0.31995   0.46648   0.44364   0.00000  Uiso   1.00
H275   H     0.17375   0.57033   0.14039   0.00000  Uiso   1.00
H276   H     0.16996   0.57027   0.35536   0.00000  Uiso   1.00
H277   H     0.02558   0.45255   0.03502   0.00000  Uiso   1.00
H278   H     0.28460   0.40011   0.03183   0.00000  Uiso   1.00
H279   H     0.23457   0.64578   0.30991   0.00000  Uiso   1.00
H280   H     0.10225   0.35455   0.18619   0.00000  Uiso   1.00
H281   H     0.31967   0.40243   0.20483   0.00000  Uiso   1.00
H282   H     0.01346   0.59740   0.29578   0.00000  Uiso   1.00
H283   H     0.06740   0.45920   0.40212   0.00000  Uiso   1.00
H284   H     0.10105   0.53560   0.09325   0.00000  Uiso   1.00
H285   H     0.22933   0.51929   0.40688   0.00000  Uiso   1.00
H286   H     0.21250   0.37356   0.28932   0.00000  Uiso   1.00
H287   H     0.12185   0.62651   0.20919   0.00000  Uiso   1.00
H288   H     0.05781   0.44401   0.21013   0.00000  Uiso   1.00
H289   H     0.27544   0.55588   0.29010   0.00000  Uiso   1.00
H290   H     0.01589   0.52513   0.10784   0.00000  Uiso   1.00
N291   N     0.04759   0.50001   0.25001   0.00000  Uiso   1.00
N292   N     0.28574   0.49999   0.24999   0.00000  Uiso   1.00
O293   O     0.12846   0.56108   0.25000   0.00000  Uiso   1.00
O294   O     0.30717   0.48313   0.38705   0.00000  Uiso   1.00
O295   O     0.16508   0.56301   0.11274   0.00000  Uiso   1.00
O296   O     0.17716   0.56280   0.38355   0.00000  Uiso   1.00
O297   O     0.03899   0.41748   0.47734   0.00000  Uiso   1.00
O298   O     0.25711   0.40749   0.48218   0.00000  Uiso   1.00
O299   O     0.21798   0.62533   0.29656   0.00000  Uiso   1.00
O300   O     0.11844   0.37496   0.20002   0.00000  Uiso   1.00
O301   O     0.28778   0.43949   0.17347   0.00000  Uiso   1.00
O302   O     0.04549   0.56021   0.32689   0.00000  Uiso   1.00
O303   O     0.20488   0.43892   0.24999   0.00000  Uiso   1.00
O304   O     0.20490   0.56107   0.25000   0.00000  Uiso   1.00
O305   O     0.12843   0.43893   0.25000   0.00000  Uiso   1.00
O306   O     0.10661   0.50001   0.31612   0.00000  Uiso   1.00
O307   O     0.22672   0.49999   0.18387   0.00000  Uiso   1.00
O308   O     0.18305   0.50000   0.31612   0.00000  Uiso   1.00
O309   O     0.15028   0.50000   0.18388   0.00000  Uiso   1.00
O310   O     0.32639   0.53104   0.05450   0.00000  Uiso   1.00
Zn311  Zn    0.11562   0.50001   0.25000   0.00000  Uiso   1.00
Zn312  Zn    0.21771   0.49999   0.25000   0.00000  Uiso   1.00
C313   C     0.49978   0.57986   0.25072   0.00000  Uiso   1.00
C314   C     0.47453   0.64429   0.22699   0.00000  Uiso   1.00
C315   C     0.50071   0.37596   0.24804   0.00000  Uiso   1.00
C316   C     0.50005   0.62413   0.25077   0.00000  Uiso   1.00
C317   C     0.65208   0.46866   0.22749   0.00000  Uiso   1.00
C318   C     0.34789   0.53129   0.27264   0.00000  Uiso   1.00
C319   C     0.36600   0.46877   0.22808   0.00000  Uiso   1.00
C320   C     0.63397   0.53119   0.27202   0.00000  Uiso   1.00
C321   C     0.46997   0.50157   0.33808   0.00000  Uiso   1.00
C322   C     0.52996   0.50027   0.16196   0.00000  Uiso   1.00
C323   C     0.45163   0.50838   0.38934   0.00000  Uiso   1.00
C324   C     0.50040   0.42018   0.24889   0.00000  Uiso   1.00
C325   C     0.54768   0.50148   0.11051   0.00000  Uiso   1.00
C326   C     0.40070   0.48625   0.46821   0.00000  Uiso   1.00
C327   C     0.58519   0.46334   0.03584   0.00000  Uiso   1.00
C328   C     0.41517   0.48319   0.41849   0.00000  Uiso   1.00
C329   C     0.57665   0.46862   0.08420   0.00000  Uiso   1.00
C330   C     0.47665   0.53463   0.40960   0.00000  Uiso   1.00
C331   C     0.52497   0.52848   0.08909   0.00000  Uiso   1.00
C332   C     0.46788   0.53118   0.45784   0.00000  Uiso   1.00
C333   C     0.52970   0.52034   0.04210   0.00000  Uiso   1.00
C334   C     0.42323   0.51601   0.48800   0.00000  Uiso   1.00
C335   C     0.44504   0.53357   0.05512   0.00000  Uiso   1.00
C336   C     0.56725   0.49381   0.01308   0.00000  Uiso   1.00
C337   C     0.50546   0.53115   0.47515   0.00000  Uiso   1.00
C338   C     0.49393   0.53182   0.02471   0.00000  Uiso   1.00
C339   C     0.35843   0.52636   0.06976   0.00000  Uiso   1.00
C340   C     0.62877   0.48081   0.42999   0.00000  Uiso   1.00
C341   C     0.37436   0.45076   0.49669   0.00000  Uiso   1.00
C342   C     0.60035   0.42090   0.01532   0.00000  Uiso   1.00
C343   C     0.64072   0.43368   0.20153   0.00000  Uiso   1.00
C344   C     0.35919   0.56614   0.29886   0.00000  Uiso   1.00
C345   C     0.55214   0.51890   0.44498   0.00000  Uiso   1.00
C346   C     0.40932   0.52447   0.03713   0.00000  Uiso   1.00
C347   C     0.58201   0.49743   0.46323   0.00000  Uiso   1.00
C348   C     0.52657   0.64616   0.27303   0.00000  Uiso   1.00
C349   C     0.47498   0.35399   0.22496   0.00000  Uiso   1.00
C350   C     0.52649   0.35580   0.27150   0.00000  Uiso   1.00
H351   H     0.58872   0.44491   0.10239   0.00000  Uiso   1.00
H352   H     0.65329   0.46648   0.44364   0.00000  Uiso   1.00
H353   H     0.50709   0.57033   0.14039   0.00000  Uiso   1.00
H354   H     0.50330   0.57027   0.35536   0.00000  Uiso   1.00
H355   H     0.35891   0.45255   0.03502   0.00000  Uiso   1.00
H356   H     0.61794   0.40011   0.03183   0.00000  Uiso   1.00
H357   H     0.56791   0.64578   0.30991   0.00000  Uiso   1.00
H358   H     0.43558   0.35455   0.18619   0.00000  Uiso   1.00
H359   H     0.65301   0.40243   0.20483   0.00000  Uiso   1.00
H360   H     0.34679   0.59740   0.29578   0.00000  Uiso   1.00
H361   H     0.40073   0.45920   0.40212   0.00000  Uiso   1.00
H362   H     0.43438   0.53560   0.09325   0.00000  Uiso   1.00
H363   H     0.56266   0.51929   0.40688   0.00000  Uiso   1.00
H364   H     0.54583   0.37356   0.28932   0.00000  Uiso   1.00
H365   H     0.45518   0.62651   0.20919   0.00000  Uiso   1.00
H366   H     0.39115   0.44401   0.21013   0.00000  Uiso   1.00
H367   H     0.60878   0.55588   0.29010   0.00000  Uiso   1.00
H368   H     0.34922   0.52513   0.10784   0.00000  Uiso   1.00
N369   N     0.38093   0.50001   0.25001   0.00000  Uiso   1.00
N370   N     0.61907   0.49999   0.24999   0.00000  Uiso   1.00
O371   O     0.46179   0.56108   0.25000   0.00000  Uiso   1.00
O372   O     0.64050   0.48313   0.38705   0.00000  Uiso   1.00
O373   O     0.49842   0.56301   0.11274   0.00000  Uiso   1.00
O374   O     0.51049   0.56280   0.38355   0.00000  Uiso   1.00
O375   O     0.37232   0.41748   0.47734   0.00000  Uiso   1.00
O376   O     0.59045   0.40749   0.48218   0.00000  Uiso   1.00
O377   O     0.55132   0.62533   0.29656   0.00000  Uiso   1.00
O378   O     0.45178   0.37496   0.20002   0.00000  Uiso   1.00
O379   O     0.62111   0.43949   0.17347   0.00000  Uiso   1.00
O380   O     0.37883   0.56021   0.32689   0.00000  Uiso   1.00
O381   O     0.53821   0.43892   0.24999   0.00000  Uiso   1.00
O382   O     0.53823   0.56107   0.25000   0.00000  Uiso   1.00
O383   O     0.46177   0.43893   0.25000   0.00000  Uiso   1.00
O384   O     0.43994   0.50001   0.31612   0.00000  Uiso   1.00
O385   O     0.56006   0.49999   0.18387   0.00000  Uiso   1.00
O386   O     0.51639   0.50000   0.31612   0.00000  Uiso   1.00
O387   O     0.48361   0.50000   0.18388   0.00000  Uiso   1.00
O388   O     0.65973   0.53104   0.05450   0.00000  Uiso   1.00
Zn389  Zn    0.44896   0.50001   0.25000   0.00000  Uiso   1.00
Zn390  Zn    0.55104   0.49999   0.25000   0.00000  Uiso   1.00
C391   C     0.83312   0.57986   0.25072   0.00000  Uiso   1.00
C392   C     0.80786   0.64429   0.22699   0.00000  Uiso   1.00
C393   C     0.83404   0.37596   0.24804   0.00000  Uiso   1.00
C394   C     0.83338   0.62413   0.25077   0.00000  Uiso   1.00
C395   C     0.98542   0.46866   0.22749   0.00000  Uiso   1.00
C396   C     0.68122   0.53129   0.27264   0.00000  Uiso   1.00
C397   C     0.69933   0.46877   0.22808   0.00000  Uiso   1.00
C398   C     0.96730   0.53119   0.27202   0.00000  Uiso   1.00
C399   C     0.80330   0.50157   0.33808   0.00000  Uiso   1.00
C400   C     0.86330   0.50027   0.16196   0.00000  Uiso   1.00
C401   C     0.78496   0.50838   0.38934   0.00000  Uiso   1.00
C402   C     0.83373   0.42018   0.24889   0.00000  Uiso   1.00
C403   C     0.88102   0.50148   0.11051   0.00000  Uiso   1.00
C404   C     0.73403   0.48625   0.46821   0.00000  Uiso   1.00
C405   C     0.91853   0.46334   0.03584   0.00000  Uiso   1.00
C406   C     0.74851   0.48319   0.41849   0.00000  Uiso   1.00
C407   C     0.90999   0.46862   0.08420   0.00000  Uiso   1.00
C408   C     0.80998   0.53463   0.40960   0.00000  Uiso   1.00
C409   C     0.85830   0.52848   0.08909   0.00000  Uiso   1.00
C410   C     0.80121   0.53118   0.45784   0.00000  Uiso   1.00
C411   C     0.86303   0.52034   0.04210   0.00000  Uiso   1.00
C412   C     0.75656   0.51601   0.48800   0.00000  Uiso   1.00
C413   C     0.77837   0.53357   0.05512   0.00000  Uiso   1.00
C414   C     0.90059   0.49381   0.01308   0.00000  Uiso   1.00
C415   C     0.83879   0.53115   0.47515   0.00000  Uiso   1.00
C416   C     0.82726   0.53182   0.02471   0.00000  Uiso   1.00
C417   C     0.69176   0.52636   0.06976   0.00000  Uiso   1.00
C418   C     0.96210   0.48081   0.42999   0.00000  Uiso   1.00
C419   C     0.70769   0.45076   0.49669   0.00000  Uiso   1.00
C420   C     0.93368   0.42090   0.01532   0.00000  Uiso   1.00
C421   C     0.97405   0.43368   0.20153   0.00000  Uiso   1.00
C422   C     0.69252   0.56614   0.29886   0.00000  Uiso   1.00
C423   C     0.88548   0.51890   0.44498   0.00000  Uiso   1.00
C424   C     0.74265   0.52447   0.03713   0.00000  Uiso   1.00
C425   C     0.91534   0.49743   0.46323   0.00000  Uiso   1.00
C426   C     0.85991   0.64616   0.27303   0.00000  Uiso   1.00
C427   C     0.80831   0.35399   0.22496   0.00000  Uiso   1.00
C428   C     0.85982   0.35580   0.27150   0.00000  Uiso   1.00
H429   H     0.92205   0.44491   0.10239   0.00000  Uiso   1.00
H430   H     0.98662   0.46648   0.44364   0.00000  Uiso   1.00
H431   H     0.84042   0.57033   0.14039   0.00000  Uiso   1.00
H432   H     0.83663   0.57027   0.35536   0.00000  Uiso   1.00
H433   H     0.69224   0.45255   0.03502   0.00000  Uiso   1.00
H434   H     0.95127   0.40011   0.03183   0.00000  Uiso   1.00
H435   H     0.90124   0.64578   0.30991   0.00000  Uiso   1.00
H436   H     0.76891   0.35455   0.18619   0.00000  Uiso   1.00
H437   H     0.98634   0.40243   0.20483   0.00000  Uiso   1.00
H438   H     0.68012   0.59740   0.29578   0.00000  Uiso   1.00
H439   H     0.73406   0.45920   0.40212   0.00000  Uiso   1.00
H440   H     0.76772   0.53560   0.09325   0.00000  Uiso   1.00
H441   H     0.89599   0.51929   0.40688   0.00000  Uiso   1.00
H442   H     0.87917   0.37356   0.28932   0.00000  Uiso   1.00
H443   H     0.78851   0.62651   0.20919   0.00000  Uiso   1.00
H444   H     0.72448   0.44401   0.21013   0.00000  Uiso   1.00
H445   H     0.94211   0.55588   0.29010   0.00000  Uiso   1.00
H446   H     0.68256   0.52513   0.10784   0.00000  Uiso   1.00
N447   N     0.71426   0.50001   0.25001   0.00000  Uiso   1.00
N448   N     0.95241   0.49999   0.24999   0.00000  Uiso   1.00
O449   O     0.79512   0.56108   0.25000   0.00000  Uiso   1.00
O450   O     0.97383   0.48313   0.38705   0.00000  Uiso   1.00
O451   O     0.83175   0.56301   0.11274   0.00000  Uiso   1.00
O452   O     0.84382   0.56280   0.38355   0.00000  Uiso   1.00
O453   O     0.70566   0.41748   0.47734   0.00000  Uiso   1.00
O454   O     0.92378   0.40749   0.48218   0.00000  Uiso   1.00
O455   O     0.88465   0.62533   0.29656   0.00000  Uiso   1.00
O456   O     0.78511   0.37496   0.20002   0.00000  Uiso   1.00
O457   O     0.95444   0.43949   0.17347   0.00000  Uiso   1.00
O458   O     0.71216   0.56021   0.32689   0.00000  Uiso   1.00
O459   O     0.87154   0.43892   0.24999   0.00000  Uiso   1.00
O460   O     0.87157   0.56107   0.25000   0.00000  Uiso   1.00
O461   O     0.79510   0.43893   0.25000   0.00000  Uiso   1.00
O462   O     0.77328   0.50001   0.31612   0.00000  Uiso   1.00
O463   O     0.89339   0.49999   0.18387   0.00000  Uiso   1.00
O464   O     0.84972   0.50000   0.31612   0.00000  Uiso   1.00
O465   O     0.81695   0.50000   0.18388   0.00000  Uiso   1.00
O466   O     0.99306   0.53104   0.05450   0.00000  Uiso   1.00
Zn467  Zn    0.78229   0.50001   0.25000   0.00000  Uiso   1.00
Zn468  Zn    0.88438   0.49999   0.25000   0.00000  Uiso   1.00
C469   C     0.16645   0.91320   0.25072   0.00000  Uiso   1.00
C470   C     0.14119   0.97763   0.22699   0.00000  Uiso   1.00
C471   C     0.16738   0.70929   0.24804   0.00000  Uiso   1.00
C472   C     0.16671   0.95746   0.25077   0.00000  Uiso   1.00
C473   C     0.31875   0.80199   0.22749   0.00000  Uiso   1.00
C474   C     0.01455   0.86462   0.27264   0.00000  Uiso   1.00
C475   C     0.03267   0.80210   0.22808   0.00000  Uiso   1.00
C476   C     0.30063   0.86452   0.27202   0.00000  Uiso   1.00
C477   C     0.13663   0.83490   0.33808   0.00000  Uiso   1.00
C478   C     0.19663   0.83360   0.16196   0.00000  Uiso   1.00
C479   C     0.11829   0.84171   0.38934   0.00000  Uiso   1.00
C480   C     0.16707   0.75351   0.24889   0.00000  Uiso   1.00
C481   C     0.21435   0.83481   0.11051   0.00000  Uiso   1.00
C482   C     0.06736   0.81958   0.46821   0.00000  Uiso   1.00
C483   C     0.25186   0.79667   0.03584   0.00000  Uiso   1.00
C484   C     0.08184   0.81652   0.41849   0.00000  Uiso   1.00
C485   C     0.24332   0.80196   0.08420   0.00000  Uiso   1.00
C486   C     0.14331   0.86796   0.40960   0.00000  Uiso   1.00
C487   C     0.19163   0.86182   0.08909   0.00000  Uiso   1.00
C488   C     0.13455   0.86452   0.45784   0.00000  Uiso   1.00
C489   C     0.19636   0.85367   0.04210   0.00000  Uiso   1.00
C490   C     0.08989   0.84934   0.48800   0.00000  Uiso   1.00
C491   C     0.11170   0.86691   0.05512   0.00000  Uiso   1.00
C492   C     0.23392   0.82714   0.01308   0.00000  Uiso   1.00
C493   C     0.17212   0.86448   0.47515   0.00000  Uiso   1.00
C494   C     0.16060   0.86515   0.02471   0.00000  Uiso   1.00
C495   C     0.02509   0.85969   0.06976   0.00000  Uiso   1.00
C496   C     0.29543   0.81415   0.42999   0.00000  Uiso   1.00
C497   C     0.04103   0.78410   0.49669   0.00000  Uiso   1.00
C498   C     0.26702   0.75423   0.01532   0.00000  Uiso   1.00
C499   C     0.30738   0.76702   0.20153   0.00000  Uiso   1.00
C500   C     0.02586   0.89947   0.29886   0.00000  Uiso   1.00
C501   C     0.21881   0.85223   0.44498   0.00000  Uiso   1.00
C502   C     0.07598   0.85780   0.03713   0.00000  Uiso   1.00
C503   C     0.24868   0.83077   0.46323   0.00000  Uiso   1.00
C504   C     0.19324   0.97949   0.27303   0.00000  Uiso   1.00
C505   C     0.14164   0.68732   0.22496   0.00000  Uiso   1.00
C506   C     0.19315   0.68914   0.27150   0.00000  Uiso   1.00
H507   H     0.25539   0.77824   0.10239   0.00000  Uiso   1.00
H508   H     0.31995   0.79981   0.44364   0.00000  Uiso   1.00
H509   H     0.17375   0.90366   0.14039   0.00000  Uiso   1.00
H510   H     0.16996   0.90360   0.35536   0.00000  Uiso   1.00
H511   H     0.02558   0.78589   0.03502   0.00000  Uiso   1.00
H512   H     0.28460   0.73345   0.03183   0.00000  Uiso   1.00
H513   H     0.23457   0.97912   0.30991   0.00000  Uiso   1.00
H514   H     0.10225   0.68788   0.18619   0.00000  Uiso   1.00
H515   H     0.31967   0.73577   0.20483   0.00000  Uiso   1.00
H516   H     0.01346   0.93073   0.29578   0.00000  Uiso   1.00
H517   H     0.06740   0.79253   0.40212   0.00000  Uiso   1.00
H518   H     0.10105   0.86894   0.09325   0.00000  Uiso   1.00
H519   H     0.22933   0.85263   0.40688   0.00000  Uiso   1.00
H520   H     0.21250   0.70690   0.28932   0.00000  Uiso   1.00
H521   H     0.12185   0.95985   0.20919   0.00000  Uiso   1.00
H522   H     0.05781   0.77735   0.21013   0.00000  Uiso   1.00
H523   H     0.27544   0.88921   0.29010   0.00000  Uiso   1.00
H524   H     0.01589   0.85847   0.10784   0.00000  Uiso   1.00
N525   N     0.04759   0.83334   0.25001   0.00000  Uiso   1.00
N526   N     0.28574   0.83332   0.24999   0.00000  Uiso   1.00
O527   O     0.12846   0.89442   0.25000   0.00000  Uiso   1.00
O528   O     0.30717   0.81647   0.38705   0.00000  Uiso   1.00
O529   O     0.16508   0.89635   0.11274   0.00000  Uiso   1.00
O530   O     0.17716   0.89613   0.38355   0.00000  Uiso   1.00
O531   O     0.03899   0.75081   0.47734   0.00000  Uiso   1.00
O532   O     0.25711   0.74082   0.48218   0.00000  Uiso   1.00
O533   O     0.21798   0.95866   0.29656   0.00000  Uiso   1.00
O534   O     0.11844   0.70829   0.20002   0.00000  Uiso   1.00
O535   O     0.28778   0.77283   0.17347   0.00000  Uiso   1.00
O536   O     0.04549   0.89355   0.32689   0.00000  Uiso   1.00
O537   O     0.20488   0.77225   0.24999   0.00000  Uiso   1.00
O538   O     0.20490   0.89441   0.25000   0.00000  Uiso   1.00
O539   O     0.12843   0.77226   0.25000   0.00000  Uiso   1.00
O540   O     0.10661   0.83334   0.31612   0.00000  Uiso   1.00
O541   O     0.22672   0.83333   0.18387   0.00000  Uiso   1.00
O542   O     0.18305   0.83333   0.31612   0.00000  Uiso   1.00
O543   O     0.15028   0.83334   0.18388   0.00000  Uiso   1.00
O544   O     0.32639   0.86437   0.05450   0.00000  Uiso   1.00
Zn545  Zn    0.11562   0.83334   0.25000   0.00000  Uiso   1.00
Zn546  Zn    0.21771   0.83333   0.25000   0.00000  Uiso   1.00
C547   C     0.49978   0.91320   0.25072   0.00000  Uiso   1.00
C548   C     0.47453   0.97763   0.22699   0.00000  Uiso   1.00
C549   C     0.50071   0.70929   0.24804   0.00000  Uiso   1.00
C550   C     0.50005   0.95746   0.25077   0.00000  Uiso   1.00
C551   C     0.65208   0.80199   0.22749   0.00000  Uiso   1.00
C552   C     0.34789   0.86462   0.27264   0.00000  Uiso   1.00
C553   C     0.36600   0.80210   0.22808   0.00000  Uiso   1.00
C554   C     0.63397   0.86452   0.27202   0.00000  Uiso   1.00
C555   C     0.46997   0.83490   0.33808   0.00000  Uiso   1.00
C556   C     0.52996   0.83360   0.16196   0.00000  Uiso   1.00
C557   C     0.45163   0.84171   0.38934   0.00000  Uiso   1.00
C558   C     0.50040   0.75351   0.24889   0.00000  Uiso   1.00
C559   C     0.54768   0.83481   0.11051   0.00000  Uiso   1.00
C560   C     0.40070   0.81958   0.46821   0.00000  Uiso   1.00
C561   C     0.58519   0.79667   0.03584   0.00000  Uiso   1.00
C562   C     0.41517   0.81652   0.41849   0.00000  Uiso   1.00
C563   C     0.57665   0.80196   0.08420   0.00000  Uiso   1.00
C564   C     0.47665   0.86796   0.40960   0.00000  Uiso   1.00
C565   C     0.52497   0.86182   0.08909   0.00000  Uiso   1.00
C566   C     0.46788   0.86452   0.45784   0.00000  Uiso   1.00
C567   C     0.52970   0.85367   0.04210   0.00000  Uiso   1.00
C568   C     0.42323   0.84934   0.48800   0.00000  Uiso   1.00
C569   C     0.44504   0.86691   0.05512   0.00000  Uiso   1.00
C570   C     0.56725   0.82714   0.01308   0.00000  Uiso   1.00
C571   C     0.50546   0.86448   0.47515   0.00000  Uiso   1.00
C572   C     0.49393   0.86515   0.02471   0.00000  Uiso   1.00
C573   C     0.35843   0.85969   0.06976   0.00000  Uiso   1.00
C574   C     0.62877   0.81415   0.42999   0.00000  Uiso   1.00
C575   C     0.37436   0.78410   0.49669   0.00000  Uiso   1.00
C576   C     0.60035   0.75423   0.01532   0.00000  Uiso   1.00
C577   C     0.64072   0.76702   0.20153   0.00000  Uiso   1.00
C578   C     0.35919   0.89947   0.29886   0.00000  Uiso   1.00
C579   C     0.55214   0.85223   0.44498   0.00000  Uiso   1.00
C580   C     0.40932   0.85780   0.03713   0.00000  Uiso   1.00
C581   C     0.58201   0.83077   0.46323   0.00000  Uiso   1.00
C582   C     0.52657   0.97949   0.27303   0.00000  Uiso   1.00
C583   C     0.47498   0.68732   0.22496   0.00000  Uiso   1.00
C584   C     0.52649   0.68914   0.27150   0.00000  Uiso   1.00
H585   H     0.58872   0.77824   0.10239   0.00000  Uiso   1.00
H586   H     0.65329   0.79981   0.44364   0.00000  Uiso   1.00
H587   H     0.50709   0.90366   0.14039   0.00000  Uiso   1.00
H588   H     0.50330   0.90360   0.35536   0.00000  Uiso   1.00
H589   H     0.35891   0.78589   0.03502   0.00000  Uiso   1.00
H590   H     0.61794   0.73345   0.03183   0.00000  Uiso   1.00
H591   H     0.56791   0.97912   0.30991   0.00000  Uiso   1.00
H592   H     0.43558   0.68788   0.18619   0.00000  Uiso   1.00
H593   H     0.65301   0.73577   0.20483   0.00000  Uiso   1.00
H594   H     0.34679   0.93073   0.29578   0.00000  Uiso   1.00
H595   H     0.40073   0.79253   0.40212   0.00000  Uiso   1.00
H596   H     0.43438   0.86894   0.09325   0.00000  Uiso   1.00
H597   H     0.56266   0.85263   0.40688   0.00000  Uiso   1.00
H598   H     0.54583   0.70690   0.28932   0.00000  Uiso   1.00
H599   H     0.45518   0.95985   0.20919   0.00000  Uiso   1.00
H600   H     0.39115   0.77735   0.21013   0.00000  Uiso   1.00
H601   H     0.60878   0.88921   0.29010   0.00000  Uiso   1.00
H602   H     0.34922   0.85847   0.10784   0.00000  Uiso   1.00
N603   N     0.38093   0.83334   0.25001   0.00000  Uiso   1.00
N604   N     0.61907   0.83332   0.24999   0.00000  Uiso   1.00
O605   O     0.46179   0.89442   0.25000   0.00000  Uiso   1.00
O606   O     0.64050   0.81647   0.38705   0.00000  Uiso   1.00
O607   O     0.49842   0.89635   0.11274   0.00000  Uiso   1.00
O608   O     0.51049   0.89613   0.38355   0.00000  Uiso   1.00
O609   O     0.37232   0.75081   0.47734   0.00000  Uiso   1.00
O610   O     0.59045   0.74082   0.48218   0.00000  Uiso   1.00
O611   O     0.55132   0.95866   0.29656   0.00000  Uiso   1.00
O612   O     0.45178   0.70829   0.20002   0.00000  Uiso   1.00
O613   O     0.62111   0.77283   0.17347   0.00000  Uiso   1.00
O614   O     0.37883   0.89355   0.32689   0.00000  Uiso   1.00
O615   O     0.53821   0.77225   0.24999   0.00000  Uiso   1.00
O616   O     0.53823   0.89441   0.25000   0.00000  Uiso   1.00
O617   O     0.46177   0.77226   0.25000   0.00000  Uiso   1.00
O618   O     0.43994   0.83334   0.31612   0.00000  Uiso   1.00
O619   O     0.56006   0.83333   0.18387   0.00000  Uiso   1.00
O620   O     0.51639   0.83333   0.31612   0.00000  Uiso   1.00
O621   O     0.48361   0.83334   0.18388   0.00000  Uiso   1.00
O622   O     0.65973   0.86437   0.05450   0.00000  Uiso   1.00
Zn623  Zn    0.44896   0.83334   0.25000   0.00000  Uiso   1.00
Zn624  Zn    0.55104   0.83333   0.25000   0.00000  Uiso   1.00
C625   C     0.83312   0.91320   0.25072   0.00000  Uiso   1.00
C626   C     0.80786   0.97763   0.22699   0.00000  Uiso   1.00
C627   C     0.83404   0.70929   0.24804   0.00000  Uiso   1.00
C628   C     0.83338   0.95746   0.25077   0.00000  Uiso   1.00
C629   C     0.98542   0.80199   0.22749   0.00000  Uiso   1.00
C630   C     0.68122   0.86462   0.27264   0.00000  Uiso   1.00
C631   C     0.69933   0.80210   0.22808   0.00000  Uiso   1.00
C632   C     0.96730   0.86452   0.27202   0.00000  Uiso   1.00
C633   C     0.80330   0.83490   0.33808   0.00000  Uiso   1.00
C634   C     0.86330   0.83360   0.16196   0.00000  Uiso   1.00
C635   C     0.78496   0.84171   0.38934   0.00000  Uiso   1.00
C636   C     0.83373   0.75351   0.24889   0.00000  Uiso   1.00
C637   C     0.88102   0.83481   0.11051   0.00000  Uiso   1.00
C638   C     0.73403   0.81958   0.46821   0.00000  Uiso   1.00
C639   C     0.91853   0.79667   0.03584   0.00000  Uiso   1.00
C640   C     0.74851   0.81652   0.41849   0.00000  Uiso   1.00
C641   C     0.90999   0.80196   0.08420   0.00000  Uiso   1.00
C642   C     0.80998   0.86796   0.40960   0.00000  Uiso   1.00
C643   C     0.85830   0.86182   0.08909   0.00000  Uiso   1.00
C644   C     0.80121   0.86452   0.45784   0.00000  Uiso   1.00
C645   C     0.86303   0.85367   0.04210   0.00000  Uiso   1.00
C646   C     0.75656   0.84934   0.48800   0.00000  Uiso   1.00
C647   C     0.77837   0.86691   0.05512   0.00000  Uiso   1.00
C648   C     0.90059   0.82714   0.01308   0.00000  Uiso   1.00
C649   C     0.83879   0.86448   0.47515   0.00000  Uiso   1.00
C650   C     0.82726   0.86515   0.02471   0.00000  Uiso   1.00
C651   C     0.69176   0.85969   0.06976   0.00000  Uiso   1.00
C652   C     0.96210   0.81415   0.42999   0.00000  Uiso   1.00
C653   C     0.70769   0.78410   0.49669   0.00000  Uiso   1.00
C654   C     0.93368   0.75423   0.01532   0.00000  Uiso   1.00
C655   C     0.97405   0.76702   0.20153   0.00000  Uiso   1.00
C656   C     0.69252   0.89947   0.29886   0.00000  Uiso   1.00
C657   C     0.88548   0.85223   0.44498   0.00000  Uiso   1.00
C658   C     0.74265   0.85780   0.03713   0.00000  Uiso   1.00
C659   C     0.91534   0.83077   0.46323   0.00000  Uiso   1.00
C660   C     0.85991   0.97949   0.27303   0.00000  Uiso   1.00
C661   C     0.80831   0.68732   0.22496   0.00000  Uiso   1.00
C662   C     0.85982   0.68914   0.27150   0.00000  Uiso   1.00
H663   H     0.92205   0.77824   0.10239   0.00000  Uiso   1.00
H664   H     0.98662   0.79981   0.44364   0.00000  Uiso   1.00
H665   H     0.84042   0.90366   0.14039   0.00000  Uiso   1.00
H666   H     0.83663   0.90360   0.35536   0.00000  Uiso   1.00
H667   H     0.69224   0.78589   0.03502   0.00000  Uiso   1.00
H668   H     0.95127   0.73345   0.03183   0.00000  Uiso   1.00
H669   H     0.90124   0.97912   0.30991   0.00000  Uiso   1.00
H670   H     0.76891   0.68788   0.18619   0.00000  Uiso   1.00
H671   H     0.98634   0.73577   0.20483   0.00000  Uiso   1.00
H672   H     0.68012   0.93073   0.29578   0.00000  Uiso   1.00
H673   H     0.73406   0.79253   0.40212   0.00000  Uiso   1.00
H674   H     0.76772   0.86894   0.09325   0.00000  Uiso   1.00
H675   H     0.89599   0.85263   0.40688   0.00000  Uiso   1.00
H676   H     0.87917   0.70690   0.28932   0.00000  Uiso   1.00
H677   H     0.78851   0.95985   0.20919   0.00000  Uiso   1.00
H678   H     0.72448   0.77735   0.21013   0.00000  Uiso   1.00
H679   H     0.94211   0.88921   0.29010   0.00000  Uiso   1.00
H680   H     0.68256   0.85847   0.10784   0.00000  Uiso   1.00
N681   N     0.71426   0.83334   0.25001   0.00000  Uiso   1.00
N682   N     0.95241   0.83332   0.24999   0.00000  Uiso   1.00
O683   O     0.79512   0.89442   0.25000   0.00000  Uiso   1.00
O684   O     0.97383   0.81647   0.38705   0.00000  Uiso   1.00
O685   O     0.83175   0.89635   0.11274   0.00000  Uiso   1.00
O686   O     0.84382   0.89613   0.38355   0.00000  Uiso   1.00
O687   O     0.70566   0.75081   0.47734   0.00000  Uiso   1.00
O688   O     0.92378   0.74082   0.48218   0.00000  Uiso   1.00
O689   O     0.88465   0.95866   0.29656   0.00000  Uiso   1.00
O690   O     0.78511   0.70829   0.20002   0.00000  Uiso   1.00
O691   O     0.95444   0.77283   0.17347   0.00000  Uiso   1.00
O692   O     0.71216   0.89355   0.32689   0.00000  Uiso   1.00
O693   O     0.87154   0.77225   0.24999   0.00000  Uiso   1.00
O694   O     0.87157   0.89441   0.25000   0.00000  Uiso   1.00
O695   O     0.79510   0.77226   0.25000   0.00000  Uiso   1.00
O696   O     0.77328   0.83334   0.31612   0.00000  Uiso   1.00
O697   O     0.89339   0.83333   0.18387   0.00000  Uiso   1.00
O698   O     0.84972   0.83333   0.31612   0.00000  Uiso   1.00
O699   O     0.81695   0.83334   0.18388   0.00000  Uiso   1.00
O700   O     0.99306   0.86437   0.05450   0.00000  Uiso   1.00
Zn701  Zn    0.78229   0.83334   0.25000   0.00000  Uiso   1.00
Zn702  Zn    0.88438   0.83333   0.25000   0.00000  Uiso   1.00
C703   C     0.16645   0.24653   0.75072   0.00000  Uiso   1.00
C704   C     0.14119   0.31096   0.72699   0.00000  Uiso   1.00
C705   C     0.16738   0.04262   0.74804   0.00000  Uiso   1.00
C706   C     0.16671   0.29080   0.75077   0.00000  Uiso   1.00
C707   C     0.31875   0.13533   0.72749   0.00000  Uiso   1.00
C708   C     0.01455   0.19795   0.77264   0.00000  Uiso   1.00
C709   C     0.03267   0.13544   0.72808   0.00000  Uiso   1.00
C710   C     0.30063   0.19785   0.77202   0.00000  Uiso   1.00
C711   C     0.13663   0.16823   0.83808   0.00000  Uiso   1.00
C712   C     0.19663   0.16694   0.66196   0.00000  Uiso   1.00
C713   C     0.11829   0.17505   0.88934   0.00000  Uiso   1.00
C714   C     0.16707   0.08684   0.74889   0.00000  Uiso   1.00
C715   C     0.21435   0.16814   0.61051   0.00000  Uiso   1.00
C716   C     0.06736   0.15292   0.96821   0.00000  Uiso   1.00
C717   C     0.25186   0.13000   0.53584   0.00000  Uiso   1.00
C718   C     0.08184   0.14985   0.91849   0.00000  Uiso   1.00
C719   C     0.24332   0.13529   0.58420   0.00000  Uiso   1.00
C720   C     0.14331   0.20129   0.90960   0.00000  Uiso   1.00
C721   C     0.19163   0.19515   0.58909   0.00000  Uiso   1.00
C722   C     0.13455   0.19785   0.95784   0.00000  Uiso   1.00
C723   C     0.19636   0.18701   0.54210   0.00000  Uiso   1.00
C724   C     0.08989   0.18267   0.98800   0.00000  Uiso   1.00
C725   C     0.11170   0.20024   0.55512   0.00000  Uiso   1.00
C726   C     0.23392   0.16047   0.51308   0.00000  Uiso   1.00
C727   C     0.17212   0.19781   0.97515   0.00000  Uiso   1.00
C728   C     0.16060   0.19848   0.52471   0.00000  Uiso   1.00
C729   C     0.02509   0.19303   0.56976   0.00000  Uiso   1.00
C730   C     0.29543   0.14748   0.92999   0.00000  Uiso   1.00
C731   C     0.04103   0.11743   0.99669   0.00000  Uiso   1.00
C732   C     0.26702   0.08756   0.51532   0.00000  Uiso   1.00
C733   C     0.30738   0.10035   0.70153   0.00000  Uiso   1.00
C734   C     0.02586   0.23281   0.79886   0.00000  Uiso   1.00
C735   C     0.21881   0.18556   0.94498   0.00000  Uiso   1.00
C736   C     0.07598   0.19113   0.53713   0.00000  Uiso   1.00
C737   C     0.24868   0.16410   0.96323   0.00000  Uiso   1.00
C738   C     0.19324   0.31283   0.77303   0.00000  Uiso   1.00
C739   C     0.14164   0.02065   0.72496   0.00000  Uiso   1.00
C740   C     0.19315   0.02247   0.77150   0.00000  Uiso   1.00
H741   H     0.25539   0.11157   0.60239   0.00000  Uiso   1.00
H742   H     0.31995   0.13315   0.94364   0.00000  Uiso   1.00
H743   H     0.17375   0.23699   0.64039   0.00000  Uiso   1.00
H744   H     0.16996   0.23694   0.85536   0.00000  Uiso   1.00
H745   H     0.02558   0.11922   0.53502   0.00000  Uiso   1.00
H746   H     0.28460   0.06678   0.53183   0.00000  Uiso   1.00
H747   H     0.23457   0.31245   0.80991   0.00000  Uiso   1.00
H748   H     0.10225   0.02121   0.68619   0.00000  Uiso   1.00
H749   H     0.31967   0.06910   0.70483   0.00000  Uiso   1.00
H750   H     0.01346   0.26407   0.79578   0.00000  Uiso   1.00
H751   H     0.06740   0.12587   0.90212   0.00000  Uiso   1.00
H752   H     0.10105   0.20227   0.59325   0.00000  Uiso   1.00
H753   H     0.22933   0.18596   0.90688   0.00000  Uiso   1.00
H754   H     0.21250   0.04023   0.78932   0.00000  Uiso   1.00
H755   H     0.12185   0.29318   0.70919   0.00000  Uiso   1.00
H756   H     0.05781   0.11068   0.71013   0.00000  Uiso   1.00
H757   H     0.27544   0.22254   0.79010   0.00000  Uiso   1.00
H758   H     0.01589   0.19180   0.60784   0.00000  Uiso   1.00
N759   N     0.04759   0.16668   0.75001   0.00000  Uiso   1.00
N760   N     0.28574   0.16666   0.74999   0.00000  Uiso   1.00
O761   O     0.12846   0.22775   0.75000   0.00000  Uiso   1.00
O762   O     0.30717   0.14980   0.88705   0.00000  Uiso   1.00
O763   O     0.16508   0.22968   0.61274   0.00000  Uiso   1.00
O764   O     0.17716   0.22946   0.88355   0.00000  Uiso   1.00
O765   O     0.03899   0.08415   0.97734   0.00000  Uiso   1.00
O766   O     0.25711   0.07416   0.98218   0.00000  Uiso   1.00
O767   O     0.21798   0.29200   0.79656   0.00000  Uiso   1.00
O768   O     0.11844   0.04163   0.70002   0.00000  Uiso   1.00
O769   O     0.28778   0.10616   0.67347   0.00000  Uiso   1.00
O770   O     0.04549   0.22688   0.82689   0.00000  Uiso   1.00
O771   O     0.20488   0.10558   0.74999   0.00000  Uiso   1.00
O772   O     0.20490   0.22774   0.75000   0.00000  Uiso   1.00
O773   O     0.12843   0.10559   0.75000   0.00000  Uiso   1.00
O774   O     0.10661   0.16667   0.81612   0.00000  Uiso   1.00
O775   O     0.22672   0.16666   0.68387   0.00000  Uiso   1.00
O776   O     0.18305   0.16666   0.81612   0.00000  Uiso   1.00
O777   O     0.15028   0.16667   0.68388   0.00000  Uiso   1.00
O778   O     0.32639   0.19770   0.55450   0.00000  Uiso   1.00
Zn779  Zn    0.11562   0.16667   0.75000   0.00000  Uiso   1.00
Zn780  Zn    0.21771   0.16666   0.75000   0.00000  Uiso   1.00
C781   C     0.49978   0.24653   0.75072   0.00000  Uiso   1.00
C782   C     0.47453   0.31096   0.72699   0.00000  Uiso   1.00
C783   C     0.50071   0.04262   0.74804   0.00000  Uiso   1.00
C784   C     0.50005   0.29080   0.75077   0.00000  Uiso   1.00
C785   C     0.65208   0.13533   0.72749   0.00000  Uiso   1.00
C786   C     0.34789   0.19795   0.77264   0.00000  Uiso   1.00
C787   C     0.36600   0.13544   0.72808   0.00000  Uiso   1.00
C788   C     0.63397   0.19785   0.77202   0.00000  Uiso   1.00
C789   C     0.46997   0.16823   0.83808   0.00000  Uiso   1.00
C790   C     0.52996   0.16694   0.66196   0.00000  Uiso   1.00
C791   C     0.45163   0.17505   0.88934   0.00000  Uiso   1.00
C792   C     0.50040   0.08684   0.74889   0.00000  Uiso   1.00
C793   C     0.54768   0.16814   0.61051   0.00000  Uiso   1.00
C794   C     0.40070   0.15292   0.96821   0.00000  Uiso   1.00
C795   C     0.58519   0.13000   0.53584   0.00000  Uiso   1.00
C796   C     0.41517   0.14985   0.91849   0.00000  Uiso   1.00
C797   C     0.57665   0.13529   0.58420   0.00000  Uiso   1.00
C798   C     0.47665   0.20129   0.90960   0.00000  Uiso   1.00
C799   C     0.52497   0.19515   0.58909   0.00000  Uiso   1.00
C800   C     0.46788   0.19785   0.95784   0.00000  Uiso   1.00
C801   C     0.52970   0.18701   0.54210   0.00000  Uiso   1.00
C802   C     0.42323   0.18267   0.98800   0.00000  Uiso   1.00
C803   C     0.44504   0.20024   0.55512   0.00000  Uiso   1.00
C804   C     0.56725   0.16047   0.51308   0.00000  Uiso   1.00
C805   C     0.50546   0.19781   0.97515   0.00000  Uiso   1.00
C806   C     0.49393   0.19848   0.52471   0.00000  Uiso   1.00
C807   C     0.35843   0.19303   0.56976   0.00000  Uiso   1.00
C808   C     0.62877   0.14748   0.92999   0.00000  Uiso   1.00
C809   C     0.37436   0.11743   0.99669   0.00000  Uiso   1.00
C810   C     0.60035   0.08756   0.51532   0.00000  Uiso   1.00
C811   C     0.64072   0.10035   0.70153   0.00000  Uiso   1.00
C812   C     0.35919   0.23281   0.79886   0.00000  Uiso   1.00
C813   C     0.55214   0.18556   0.94498   0.00000  Uiso   1.00
C814   C     0.40932   0.19113   0.53713   0.00000  Uiso   1.00
C815   C     0.58201   0.16410   0.96323   0.00000  Uiso   1.00
C816   C     0.52657   0.31283   0.77303   0.00000  Uiso   1.00
C817   C     0.47498   0.02065   0.72496   0.00000  Uiso   1.00
C818   C     0.52649   0.02247   0.77150   0.00000  Uiso   1.00
H819   H     0.58872   0.11157   0.60239   0.00000  Uiso   1.00
H820   H     0.65329   0.13315   0.94364   0.00000  Uiso   1.00
H821   H     0.50709   0.23699   0.64039   0.00000  Uiso   1.00
H822   H     0.50330   0.23694   0.85536   0.00000  Uiso   1.00
H823   H     0.35891   0.11922   0.53502   0.00000  Uiso   1.00
H824   H     0.61794   0.06678   0.53183   0.00000  Uiso   1.00
H825   H     0.56791   0.31245   0.80991   0.00000  Uiso   1.00
H826   H     0.43558   0.02121   0.68619   0.00000  Uiso   1.00
H827   H     0.65301   0.06910   0.70483   0.00000  Uiso   1.00
H828   H     0.34679   0.26407   0.79578   0.00000  Uiso   1.00
H829   H     0.40073   0.12587   0.90212   0.00000  Uiso   1.00
H830   H     0.43438   0.20227   0.59325   0.00000  Uiso   1.00
H831   H     0.56266   0.18596   0.90688   0.00000  Uiso   1.00
H832   H     0.54583   0.04023   0.78932   0.00000  Uiso   1.00
H833   H     0.45518   0.29318   0.70919   0.00000  Uiso   1.00
H834   H     0.39115   0.11068   0.71013   0.00000  Uiso   1.00
H835   H     0.60878   0.22254   0.79010   0.00000  Uiso   1.00
H836   H     0.34922   0.19180   0.60784   0.00000  Uiso   1.00
N837   N     0.38093   0.16668   0.75001   0.00000  Uiso   1.00
N838   N     0.61907   0.16666   0.74999   0.00000  Uiso   1.00
O839   O     0.46179   0.22775   0.75000   0.00000  Uiso   1.00
O840   O     0.64050   0.14980   0.88705   0.00000  Uiso   1.00
O841   O     0.49842   0.22968   0.61274   0.00000  Uiso   1.00
O842   O     0.51049   0.22946   0.88355   0.00000  Uiso   1.00
O843   O     0.37232   0.08415   0.97734   0.00000  Uiso   1.00
O844   O     0.59045   0.07416   0.98218   0.00000  Uiso   1.00
O845   O     0.55132   0.29200   0.79656   0.00000  Uiso   1.00
O846   O     0.45178   0.04163   0.70002   0.00000  Uiso   1.00
O847   O     0.62111   0.10616   0.67347   0.00000  Uiso   1.00
O848   O     0.37883   0.22688   0.82689   0.00000  Uiso   1.00
O849   O     0.53821   0.10558   0.74999   0.00000  Uiso   1.00
O850   O     0.53823   0.22774   0.75000   0.00000  Uiso   1.00
O851   O     0.46177   0.10559   0.75000   0.00000  Uiso   1.00
O852   O     0.43994   0.16667   0.81612   0.00000  Uiso   1.00
O853   O     0.56006   0.16666   0.68387   0.00000  Uiso   1.00
O854   O     0.51639   0.16666   0.81612   0.00000  Uiso   1.00
O855   O     0.48361   0.16667   0.68388   0.00000  Uiso   1.00
O856   O     0.65973   0.19770   0.55450   0.00000  Uiso   1.00
Zn857  Zn    0.44896   0.16667   0.75000   0.00000  Uiso   1.00
Zn858  Zn    0.55104   0.16666   0.75000   0.00000  Uiso   1.00
C859   C     0.83312   0.24653   0.75072   0.00000  Uiso   1.00
C860   C     0.80786   0.31096   0.72699   0.00000  Uiso   1.00
C861   C     0.83404   0.04262   0.74804   0.00000  Uiso   1.00
C862   C     0.83338   0.29080   0.75077   0.00000  Uiso   1.00
C863   C     0.98542   0.13533   0.72749   0.00000  Uiso   1.00
C864   C     0.68122   0.19795   0.77264   0.00000  Uiso   1.00
C865   C     0.69933   0.13544   0.72808   0.00000  Uiso   1.00
C866   C     0.96730   0.19785   0.77202   0.00000  Uiso   1.00
C867   C     0.80330   0.16823   0.83808   0.00000  Uiso   1.00
C868   C     0.86330   0.16694   0.66196   0.00000  Uiso   1.00
C869   C     0.78496   0.17505   0.88934   0.00000  Uiso   1.00
C870   C     0.83373   0.08684   0.74889   0.00000  Uiso   1.00
C871   C     0.88102   0.16814   0.61051   0.00000  Uiso   1.00
C872   C     0.73403   0.15292   0.96821   0.00000  Uiso   1.00
C873   C     0.91853   0.13000   0.53584   0.00000  Uiso   1.00
C874   C     0.74851   0.14985   0.91849   0.00000  Uiso   1.00
C875   C     0.90999   0.13529   0.58420   0.00000  Uiso   1.00
C876   C     0.80998   0.20129   0.90960   0.00000  Uiso   1.00
C877   C     0.85830   0.19515   0.58909   0.00000  Uiso   1.00
C878   C     0.80121   0.19785   0.95784   0.00000  Uiso   1.00
C879   C     0.86303   0.18701   0.54210   0.00000  Uiso   1.00
C880   C     0.75656   0.18267   0.98800   0.00000  Uiso   1.00
C881   C     0.77837   0.20024   0.55512   0.00000  Uiso   1.00
C882   C     0.90059   0.16047   0.51308   0.00000  Uiso   1.00
C883   C     0.83879   0.19781   0.97515   0.00000  Uiso   1.00
C884   C     0.82726   0.19848   0.52471   0.00000  Uiso   1.00
C885   C     0.69176   0.19303   0.56976   0.00000  Uiso   1.00
C886   C     0.96210   0.14748   0.92999   0.00000  Uiso   1.00
C887   C     0.70769   0.11743   0.99669   0.00000  Uiso   1.00
C888   C     0.93368   0.08756   0.51532   0.00000  Uiso   1.00
C889   C     0.97405   0.10035   0.70153   0.00000  Uiso   1.00
C890   C     0.69252   0.23281   0.79886   0.00000  Uiso   1.00
C891   C     0.88548   0.18556   0.94498   0.00000  Uiso   1.00
C892   C     0.74265   0.19113   0.53713   0.00000  Uiso   1.00
C893   C     0.91534   0.16410   0.96323   0.00000  Uiso   1.00
C894   C     0.85991   0.31283   0.77303   0.00000  Uiso   1.00
C895   C     0.80831   0.02065   0.72496   0.00000  Uiso   1.00
C896   C     0.85982   0.02247   0.77150   0.00000  Uiso   1.00
H897   H     0.92205   0.11157   0.60239   0.00000  Uiso   1.00
H898   H     0.98662   0.13315   0.94364   0.00000  Uiso   1.00
H899   H     0.84042   0.23699   0.64039   0.00000  Uiso   1.00
H900   H     0.83663   0.23694   0.85536   0.00000  Uiso   1.00
H901   H     0.69224   0.11922   0.53502   0.00000  Uiso   1.00
H902   H     0.95127   0.06678   0.53183   0.00000  Uiso   1.00
H903   H     0.90124   0.31245   0.80991   0.00000  Uiso   1.00
H904   H     0.76891   0.02121   0.68619   0.00000  Uiso   1.00
H905   H     0.98634   0.06910   0.70483   0.00000  Uiso   1.00
H906   H     0.68012   0.26407   0.79578   0.00000  Uiso   1.00
H907   H     0.73406   0.12587   0.90212   0.00000  Uiso   1.00
H908   H     0.76772   0.20227   0.59325   0.00000  Uiso   1.00
H909   H     0.89599   0.18596   0.90688   0.00000  Uiso   1.00
H910   H     0.87917   0.04023   0.78932   0.00000  Uiso   1.00
H911   H     0.78851   0.29318   0.70919   0.00000  Uiso   1.00
H912   H     0.72448   0.11068   0.71013   0.00000  Uiso   1.00
H913   H     0.94211   0.22254   0.79010   0.00000  Uiso   1.00
H914   H     0.68256   0.19180   0.60784   0.00000  Uiso   1.00
N915   N     0.71426   0.16668   0.75001   0.00000  Uiso   1.00
N916   N     0.95241   0.16666   0.74999   0.00000  Uiso   1.00
O917   O     0.79512   0.22775   0.75000   0.00000  Uiso   1.00
O918   O     0.97383   0.14980   0.88705   0.00000  Uiso   1.00
O919   O     0.83175   0.22968   0.61274   0.00000  Uiso   1.00
O920   O     0.84382   0.22946   0.88355   0.00000  Uiso   1.00
O921   O     0.70566   0.08415   0.97734   0.00000  Uiso   1.00
O922   O     0.92378   0.07416   0.98218   0.00000  Uiso   1.00
O923   O     0.88465   0.29200   0.79656   0.00000  Uiso   1.00
O924   O     0.78511   0.04163   0.70002   0.00000  Uiso   1.00
O925   O     0.95444   0.10616   0.67347   0.00000  Uiso   1.00
O926   O     0.71216   0.22688   0.82689   0.00000  Uiso   1.00
O927   O     0.87154   0.10558   0.74999   0.00000  Uiso   1.00
O928   O     0.87157   0.22774   0.75000   0.00000  Uiso   1.00
O929   O     0.79510   0.10559   0.75000   0.00000  Uiso   1.00
O930   O     0.77328   0.16667   0.81612   0.00000  Uiso   1.00
O931   O     0.89339   0.16666   0.68387   0.00000  Uiso   1.00
O932   O     0.84972   0.16666   0.81612   0.00000  Uiso   1.00
O933   O     0.81695   0.16667   0.68388   0.00000  Uiso   1.00
O934   O     0.99306   0.19770   0.55450   0.00000  Uiso   1.00
Zn935  Zn    0.78229   0.16667   0.75000   0.00000  Uiso   1.00
Zn936  Zn    0.88438   0.16666   0.75000   0.00000  Uiso   1.00
C937   C     0.16645   0.57986   0.75072   0.00000  Uiso   1.00
C938   C     0.14119   0.64429   0.72699   0.00000  Uiso   1.00
C939   C     0.16738   0.37596   0.74804   0.00000  Uiso   1.00
C940   C     0.16671   0.62413   0.75077   0.00000  Uiso   1.00
C941   C     0.31875   0.46866   0.72749   0.00000  Uiso   1.00
C942   C     0.01455   0.53129   0.77264   0.00000  Uiso   1.00
C943   C     0.03267   0.46877   0.72808   0.00000  Uiso   1.00
C944   C     0.30063   0.53119   0.77202   0.00000  Uiso   1.00
C945   C     0.13663   0.50157   0.83808   0.00000  Uiso   1.00
C946   C     0.19663   0.50027   0.66196   0.00000  Uiso   1.00
C947   C     0.11829   0.50838   0.88934   0.00000  Uiso   1.00
C948   C     0.16707   0.42018   0.74889   0.00000  Uiso   1.00
C949   C     0.21435   0.50148   0.61051   0.00000  Uiso   1.00
C950   C     0.06736   0.48625   0.96821   0.00000  Uiso   1.00
C951   C     0.25186   0.46334   0.53584   0.00000  Uiso   1.00
C952   C     0.08184   0.48319   0.91849   0.00000  Uiso   1.00
C953   C     0.24332   0.46862   0.58420   0.00000  Uiso   1.00
C954   C     0.14331   0.53463   0.90960   0.00000  Uiso   1.00
C955   C     0.19163   0.52848   0.58909   0.00000  Uiso   1.00
C956   C     0.13455   0.53118   0.95784   0.00000  Uiso   1.00
C957   C     0.19636   0.52034   0.54210   0.00000  Uiso   1.00
C958   C     0.08989   0.51601   0.98800   0.00000  Uiso   1.00
C959   C     0.11170   0.53357   0.55512   0.00000  Uiso   1.00
C960   C     0.23392   0.49381   0.51308   0.00000  Uiso   1.00
C961   C     0.17212   0.53115   0.97515   0.00000  Uiso   1.00
C962   C     0.16060   0.53182   0.52471   0.00000  Uiso   1.00
C963   C     0.02509   0.52636   0.56976   0.00000  Uiso   1.00
C964   C     0.29543   0.48081   0.92999   0.00000  Uiso   1.00
C965   C     0.04103   0.45076   0.99669   0.00000  Uiso   1.00
C966   C     0.26702   0.42090   0.51532   0.00000  Uiso   1.00
C967   C     0.30738   0.43368   0.70153   0.00000  Uiso   1.00
C968   C     0.02586   0.56614   0.79886   0.00000  Uiso   1.00
C969   C     0.21881   0.51890   0.94498   0.00000  Uiso   1.00
C970   C     0.07598   0.52447   0.53713   0.00000  Uiso   1.00
C971   C     0.24868   0.49743   0.96323   0.00000  Uiso   1.00
C972   C     0.19324   0.64616   0.77303   0.00000  Uiso   1.00
C973   C     0.14164   0.35399   0.72496   0.00000  Uiso   1.00
C974   C     0.19315   0.35580   0.77150   0.00000  Uiso   1.00
H975   H     0.25539   0.44491   0.60239   0.00000  Uiso   1.00
H976   H     0.31995   0.46648   0.94364   0.00000  Uiso   1.00
H977   H     0.17375   0.57033   0.64039   0.00000  Uiso   1.00
H978   H     0.16996   0.57027   0.85536   0.00000  Uiso   1.00
H979   H     0.02558   0.45255   0.53502   0.00000  Uiso   1.00
H980   H     0.28460   0.40011   0.53183   0.00000  Uiso   1.00
H981   H     0.23457   0.64578   0.80991   0.00000  Uiso   1.00
H982   H     0.10225   0.35455   0.68619   0.00000  Uiso   1.00
H983   H     0.31967   0.40243   0.70483   0.00000  Uiso   1.00
H984   H     0.01346   0.59740   0.79578   0.00000  Uiso   1.00
H985   H     0.06740   0.45920   0.90212   0.00000  Uiso   1.00
H986   H     0.10105   0.53560   0.59325   0.00000  Uiso   1.00
H987   H     0.22933   0.51929   0.90688   0.00000  Uiso   1.00
H988   H     0.21250   0.37356   0.78932   0.00000  Uiso   1.00
H989   H     0.12185   0.62651   0.70919   0.00000  Uiso   1.00
H990   H     0.05781   0.44401   0.71013   0.00000  Uiso   1.00
H991   H     0.27544   0.55588   0.79010   0.00000  Uiso   1.00
H992   H     0.01589   0.52513   0.60784   0.00000  Uiso   1.00
N993   N     0.04759   0.50001   0.75001   0.00000  Uiso   1.00
N994   N     0.28574   0.49999   0.74999   0.00000  Uiso   1.00
O995   O     0.12846   0.56108   0.75000   0.00000  Uiso   1.00
O996   O     0.30717   0.48313   0.88705   0.00000  Uiso   1.00
O997   O     0.16508   0.56301   0.61274   0.00000  Uiso   1.00
O998   O     0.17716   0.56280   0.88355   0.00000  Uiso   1.00
O999   O     0.03899   0.41748   0.97734   0.00000  Uiso   1.00
O1000  O     0.25711   0.40749   0.98218   0.00000  Uiso   1.00
O1001  O     0.21798   0.62533   0.79656   0.00000  Uiso   1.00
O1002  O     0.11844   0.37496   0.70002   0.00000  Uiso   1.00
O1003  O     0.28778   0.43949   0.67347   0.00000  Uiso   1.00
O1004  O     0.04549   0.56021   0.82689   0.00000  Uiso   1.00
O1005  O     0.20488   0.43892   0.74999   0.00000  Uiso   1.00
O1006  O     0.20490   0.56107   0.75000   0.00000  Uiso   1.00
O1007  O     0.12843   0.43893   0.75000   0.00000  Uiso   1.00
O1008  O     0.10661   0.50001   0.81612   0.00000  Uiso   1.00
O1009  O     0.22672   0.49999   0.68387   0.00000  Uiso   1.00
O1010  O     0.18305   0.50000   0.81612   0.00000  Uiso   1.00
O1011  O     0.15028   0.50000   0.68388   0.00000  Uiso   1.00
O1012  O     0.32639   0.53104   0.55450   0.00000  Uiso   1.00
Zn1013 Zn    0.11562   0.50001   0.75000   0.00000  Uiso   1.00
Zn1014 Zn    0.21771   0.49999   0.75000   0.00000  Uiso   1.00
C1015  C     0.49978   0.57986   0.75072   0.00000  Uiso   1.00
C1016  C     0.47453   0.64429   0.72699   0.00000  Uiso   1.00
C1017  C     0.50071   0.37596   0.74804   0.00000  Uiso   1.00
C1018  C     0.50005   0.62413   0.75077   0.00000  Uiso   1.00
C1019  C     0.65208   0.46866   0.72749   0.00000  Uiso   1.00
C1020  C     0.34789   0.53129   0.77264   0.00000  Uiso   1.00
C1021  C     0.36600   0.46877   0.72808   0.00000  Uiso   1.00
C1022  C     0.63397   0.53119   0.77202   0.00000  Uiso   1.00
C1023  C     0.46997   0.50157   0.83808   0.00000  Uiso   1.00
C1024  C     0.52996   0.50027   0.66196   0.00000  Uiso   1.00
C1025  C     0.45163   0.50838   0.88934   0.00000  Uiso   1.00
C1026  C     0.50040   0.42018   0.74889   0.00000  Uiso   1.00
C1027  C     0.54768   0.50148   0.61051   0.00000  Uiso   1.00
C1028  C     0.40070   0.48625   0.96821   0.00000  Uiso   1.00
C1029  C     0.58519   0.46334   0.53584   0.00000  Uiso   1.00
C1030  C     0.41517   0.48319   0.91849   0.00000  Uiso   1.00
C1031  C     0.57665   0.46862   0.58420   0.00000  Uiso   1.00
C1032  C     0.47665   0.53463   0.90960   0.00000  Uiso   1.00
C1033  C     0.52497   0.52848   0.58909   0.00000  Uiso   1.00
C1034  C     0.46788   0.53118   0.95784   0.00000  Uiso   1.00
C1035  C     0.52970   0.52034   0.54210   0.00000  Uiso   1.00
C1036  C     0.42323   0.51601   0.98800   0.00000  Uiso   1.00
C1037  C     0.44504   0.53357   0.55512   0.00000  Uiso   1.00
C1038  C     0.56725   0.49381   0.51308   0.00000  Uiso   1.00
C1039  C     0.50546   0.53115   0.97515   0.00000  Uiso   1.00
C1040  C     0.49393   0.53182   0.52471   0.00000  Uiso   1.00
C1041  C     0.35843   0.52636   0.56976   0.00000  Uiso   1.00
C1042  C     0.62877   0.48081   0.92999   0.00000  Uiso   1.00
C1043  C     0.37436   0.45076   0.99669   0.00000  Uiso   1.00
C1044  C     0.60035   0.42090   0.51532   0.00000  Uiso   1.00
C1045  C     0.64072   0.43368   0.70153   0.00000  Uiso   1.00
C1046  C     0.35919   0.56614   0.79886   0.00000  Uiso   1.00
C1047  C     0.55214   0.51890   0.94498   0.00000  Uiso   1.00
C1048  C     0.40932   0.52447   0.53713   0.00000  Uiso   1.00
C1049  C     0.58201   0.49743   0.96323   0.00000  Uiso   1.00
C1050  C     0.52657   0.64616   0.77303   0.00000  Uiso   1.00
C1051  C     0.47498   0.35399   0.72496   0.00000  Uiso   1.00
C1052  C     0.52649   0.35580   0.77150   0.00000  Uiso   1.00
H1053  H     0.58872   0.44491   0.60239   0.00000  Uiso   1.00
H1054  H     0.65329   0.46648   0.94364   0.00000  Uiso   1.00
H1055  H     0.50709   0.57033   0.64039   0.00000  Uiso   1.00
H1056  H     0.50330   0.57027   0.85536   0.00000  Uiso   1.00
H1057  H     0.35891   0.45255   0.53502   0.00000  Uiso   1.00
H1058  H     0.61794   0.40011   0.53183   0.00000  Uiso   1.00
H1059  H     0.56791   0.64578   0.80991   0.00000  Uiso   1.00
H1060  H     0.43558   0.35455   0.68619   0.00000  Uiso   1.00
H1061  H     0.65301   0.40243   0.70483   0.00000  Uiso   1.00
H1062  H     0.34679   0.59740   0.79578   0.00000  Uiso   1.00
H1063  H     0.40073   0.45920   0.90212   0.00000  Uiso   1.00
H1064  H     0.43438   0.53560   0.59325   0.00000  Uiso   1.00
H1065  H     0.56266   0.51929   0.90688   0.00000  Uiso   1.00
H1066  H     0.54583   0.37356   0.78932   0.00000  Uiso   1.00
H1067  H     0.45518   0.62651   0.70919   0.00000  Uiso   1.00
H1068  H     0.39115   0.44401   0.71013   0.00000  Uiso   1.00
H1069  H     0.60878   0.55588   0.79010   0.00000  Uiso   1.00
H1070  H     0.34922   0.52513   0.60784   0.00000  Uiso   1.00
N1071  N     0.38093   0.50001   0.75001   0.00000  Uiso   1.00
N1072  N     0.61907   0.49999   0.74999   0.00000  Uiso   1.00
O1073  O     0.46179   0.56108   0.75000   0.00000  Uiso   1.00
O1074  O     0.64050   0.48313   0.88705   0.00000  Uiso   1.00
O1075  O     0.49842   0.56301   0.61274   0.00000  Uiso   1.00
O1076  O     0.51049   0.56280   0.88355   0.00000  Uiso   1.00
O1077  O     0.37232   0.41748   0.97734   0.00000  Uiso   1.00
O1078  O     0.59045   0.40749   0.98218   0.00000  Uiso   1.00
O1079  O     0.55132   0.62533   0.79656   0.00000  Uiso   1.00
O1080  O     0.45178   0.37496   0.70002   0.00000  Uiso   1.00
O1081  O     0.62111   0.43949   0.67347   0.00000  Uiso   1.00
O1082  O     0.37883   0.56021   0.82689   0.00000  Uiso   1.00
O1083  O     0.53821   0.43892   0.74999   0.00000  Uiso   1.00
O1084  O     0.53823   0.56107   0.75000   0.00000  Uiso   1.00
O1085  O     0.46177   0.43893   0.75000   0.00000  Uiso   1.00
O1086  O     0.43994   0.50001   0.81612   0.00000  Uiso   1.00
O1087  O     0.56006   0.49999   0.68387   0.00000  Uiso   1.00
O1088  O     0.51639   0.50000   0.81612   0.00000  Uiso   1.00
O1089  O     0.48361   0.50000   0.68388   0.00000  Uiso   1.00
O1090  O     0.65973   0.53104   0.55450   0.00000  Uiso   1.00
Zn1091 Zn    0.44896   0.50001   0.75000   0.00000  Uiso   1.00
Zn1092 Zn    0.55104   0.49999   0.75000   0.00000  Uiso   1.00
C1093  C     0.83312   0.57986   0.75072   0.00000  Uiso   1.00
C1094  C     0.80786   0.64429   0.72699   0.00000  Uiso   1.00
C1095  C     0.83404   0.37596   0.74804   0.00000  Uiso   1.00
C1096  C     0.83338   0.62413   0.75077   0.00000  Uiso   1.00
C1097  C     0.98542   0.46866   0.72749   0.00000  Uiso   1.00
C1098  C     0.68122   0.53129   0.77264   0.00000  Uiso   1.00
C1099  C     0.69933   0.46877   0.72808   0.00000  Uiso   1.00
C1100  C     0.96730   0.53119   0.77202   0.00000  Uiso   1.00
C1101  C     0.80330   0.50157   0.83808   0.00000  Uiso   1.00
C1102  C     0.86330   0.50027   0.66196   0.00000  Uiso   1.00
C1103  C     0.78496   0.50838   0.88934   0.00000  Uiso   1.00
C1104  C     0.83373   0.42018   0.74889   0.00000  Uiso   1.00
C1105  C     0.88102   0.50148   0.61051   0.00000  Uiso   1.00
C1106  C     0.73403   0.48625   0.96821   0.00000  Uiso   1.00
C1107  C     0.91853   0.46334   0.53584   0.00000  Uiso   1.00
C1108  C     0.74851   0.48319   0.91849   0.00000  Uiso   1.00
C1109  C     0.90999   0.46862   0.58420   0.00000  Uiso   1.00
C1110  C     0.80998   0.53463   0.90960   0.00000  Uiso   1.00
C1111  C     0.85830   0.52848   0.58909   0.00000  Uiso   1.00
C1112  C     0.80121   0.53118   0.95784   0.00000  Uiso   1.00
C1113  C     0.86303   0.52034   0.54210   0.00000  Uiso   1.00
C1114  C     0.75656   0.51601   0.98800   0.00000  Uiso   1.00
C1115  C     0.77837   0.53357   0.55512   0.00000  Uiso   1.00
C1116  C     0.90059   0.49381   0.51308   0.00000  Uiso   1.00
C1117  C     0.83879   0.53115   0.97515   0.00000  Uiso   1.00
C1118  C     0.82726   0.53182   0.52471   0.00000  Uiso   1.00
C1119  C     0.69176   0.52636   0.56976   0.00000  Uiso   1.00
C1120  C     0.96210   0.48081   0.92999   0.00000  Uiso   1.00
C1121  C     0.70769   0.45076   0.99669   0.00000  Uiso   1.00
C1122  C     0.93368   0.42090   0.51532   0.00000  Uiso   1.00
C1123  C     0.97405   0.43368   0.70153   0.00000  Uiso   1.00
C1124  C     0.69252   0.56614   0.79886   0.00000  Uiso   1.00
C1125  C     0.88548   0.51890   0.94498   0.00000  Uiso   1.00
C1126  C     0.74265   0.52447   0.53713   0.00000  Uiso   1.00
C1127  C     0.91534   0.49743   0.96323   0.00000  Uiso   1.00
C1128  C     0.85991   0.64616   0.77303   0.00000  Uiso   1.00
C1129  C     0.80831   0.35399   0.72496   0.00000  Uiso   1.00
C1130  C     0.85982   0.35580   0.77150   0.00000  Uiso   1.00
H1131  H     0.92205   0.44491   0.60239   0.00000  Uiso   1.00
H1132  H     0.98662   0.46648   0.94364   0.00000  Uiso   1.00
H1133  H     0.84042   0.57033   0.64039   0.00000  Uiso   1.00
H1134  H     0.83663   0.57027   0.85536   0.00000  Uiso   1.00
H1135  H     0.69224   0.45255   0.53502   0.00000  Uiso   1.00
H1136  H     0.95127   0.40011   0.53183   0.00000  Uiso   1.00
H1137  H     0.90124   0.64578   0.80991   0.00000  Uiso   1.00
H1138  H     0.76891   0.35455   0.68619   0.00000  Uiso   1.00
H1139  H     0.98634   0.40243   0.70483   0.00000  Uiso   1.00
H1140  H     0.68012   0.59740   0.79578   0.00000  Uiso   1.00
H1141  H     0.73406   0.45920   0.90212   0.00000  Uiso   1.00
H1142  H     0.76772   0.53560   0.59325   0.00000  Uiso   1.00
H1143  H     0.89599   0.51929   0.90688   0.00000  Uiso   1.00
H1144  H     0.87917   0.37356   0.78932   0.00000  Uiso   1.00
H1145  H     0.78851   0.62651   0.70919   0.00000  Uiso   1.00
H1146  H     0.72448   0.44401   0.71013   0.00000  Uiso   1.00
H1147  H     0.94211   0.55588   0.79010   0.00000  Uiso   1.00
H1148  H     0.68256   0.52513   0.60784   0.00000  Uiso   1.00
N1149  N     0.71426   0.50001   0.75001   0.00000  Uiso   1.00
N1150  N     0.95241   0.49999   0.74999   0.00000  Uiso   1.00
O1151  O     0.79512   0.56108   0.75000   0.00000  Uiso   1.00
O1152  O     0.97383   0.48313   0.88705   0.00000  Uiso   1.00
O1153  O     0.83175   0.56301   0.61274   0.00000  Uiso   1.00
O1154  O     0.84382   0.56280   0.88355   0.00000  Uiso   1.00
O1155  O     0.70566   0.41748   0.97734   0.00000  Uiso   1.00
O1156  O     0.92378   0.40749   0.98218   0.00000  Uiso   1.00
O1157  O     0.88465   0.62533   0.79656   0.00000  Uiso   1.00
O1158  O     0.78511   0.37496   0.70002   0.00000  Uiso   1.00
O1159  O     0.95444   0.43949   0.67347   0.00000  Uiso   1.00
O1160  O     0.71216   0.56021   0.82689   0.00000  Uiso   1.00
O1161  O     0.87154   0.43892   0.74999   0.00000  Uiso   1.00
O1162  O     0.87157   0.56107   0.75000   0.00000  Uiso   1.00
O1163  O     0.79510   0.43893   0.75000   0.00000  Uiso   1.00
O1164  O     0.77328   0.50001   0.81612   0.00000  Uiso   1.00
O1165  O     0.89339   0.49999   0.68387   0.00000  Uiso   1.00
O1166  O     0.84972   0.50000   0.81612   0.00000  Uiso   1.00
O1167  O     0.81695   0.50000   0.68388   0.00000  Uiso   1.00
O1168  O     0.99306   0.53104   0.55450   0.00000  Uiso   1.00
Zn1169 Zn    0.78229   0.50001   0.75000   0.00000  Uiso   1.00
Zn1170 Zn    0.88438   0.49999   0.75000   0.00000  Uiso   1.00
C1171  C     0.16645   0.91320   0.75072   0.00000  Uiso   1.00
C1172  C     0.14119   0.97763   0.72699   0.00000  Uiso   1.00
C1173  C     0.16738   0.70929   0.74804   0.00000  Uiso   1.00
C1174  C     0.16671   0.95746   0.75077   0.00000  Uiso   1.00
C1175  C     0.31875   0.80199   0.72749   0.00000  Uiso   1.00
C1176  C     0.01455   0.86462   0.77264   0.00000  Uiso   1.00
C1177  C     0.03267   0.80210   0.72808   0.00000  Uiso   1.00
C1178  C     0.30063   0.86452   0.77202   0.00000  Uiso   1.00
C1179  C     0.13663   0.83490   0.83808   0.00000  Uiso   1.00
C1180  C     0.19663   0.83360   0.66196   0.00000  Uiso   1.00
C1181  C     0.11829   0.84171   0.88934   0.00000  Uiso   1.00
C1182  C     0.16707   0.75351   0.74889   0.00000  Uiso   1.00
C1183  C     0.21435   0.83481   0.61051   0.00000  Uiso   1.00
C1184  C     0.06736   0.81958   0.96821   0.00000  Uiso   1.00
C1185  C     0.25186   0.79667   0.53584   0.00000  Uiso   1.00
C1186  C     0.08184   0.81652   0.91849   0.00000  Uiso   1.00
C1187  C     0.24332   0.80196   0.58420   0.00000  Uiso   1.00
C1188  C     0.14331   0.86796   0.90960   0.00000  Uiso   1.00
C1189  C     0.19163   0.86182   0.58909   0.00000  Uiso   1.00
C1190  C     0.13455   0.86452   0.95784   0.00000  Uiso   1.00
C1191  C     0.19636   0.85367   0.54210   0.00000  Uiso   1.00
C1192  C     0.08989   0.84934   0.98800   0.00000  Uiso   1.00
C1193  C     0.11170   0.86691   0.55512   0.00000  Uiso   1.00
C1194  C     0.23392   0.82714   0.51308   0.00000  Uiso   1.00
C1195  C     0.17212   0.86448   0.97515   0.00000  Uiso   1.00
C1196  C     0.16060   0.86515   0.52471   0.00000  Uiso   1.00
C1197  C     0.02509   0.85969   0.56976   0.00000  Uiso   1.00
C1198  C     0.29543   0.81415   0.92999   0.00000  Uiso   1.00
C1199  C     0.04103   0.78410   0.99669   0.00000  Uiso   1.00
C1200  C     0.26702   0.75423   0.51532   0.00000  Uiso   1.00
C1201  C     0.30738   0.76702   0.70153   0.00000  Uiso   1.00
C1202  C     0.02586   0.89947   0.79886   0.00000  Uiso   1.00
C1203  C     0.21881   0.85223   0.94498   0.00000  Uiso   1.00
C1204  C     0.07598   0.85780   0.53713   0.00000  Uiso   1.00
C1205  C     0.24868   0.83077   0.96323   0.00000  Uiso   1.00
C1206  C     0.19324   0.97949   0.77303   0.00000  Uiso   1.00
C1207  C     0.14164   0.68732   0.72496   0.00000  Uiso   1.00
C1208  C     0.19315   0.68914   0.77150   0.00000  Uiso   1.00
H1209  H     0.25539   0.77824   0.60239   0.00000  Uiso   1.00
H1210  H     0.31995   0.79981   0.94364   0.00000  Uiso   1.00
H1211  H     0.17375   0.90366   0.64039   0.00000  Uiso   1.00
H1212  H     0.16996   0.90360   0.85536   0.00000  Uiso   1.00
H1213  H     0.02558   0.78589   0.53502   0.00000  Uiso   1.00
H1214  H     0.28460   0.73345   0.53183   0.00000  Uiso   1.00
H1215  H     0.23457   0.97912   0.80991   0.00000  Uiso   1.00
H1216  H     0.10225   0.68788   0.68619   0.00000  Uiso   1.00
H1217  H     0.31967   0.73577   0.70483   0.00000  Uiso   1.00
H1218  H     0.01346   0.93073   0.79578   0.00000  Uiso   1.00
H1219  H     0.06740   0.79253   0.90212   0.00000  Uiso   1.00
H1220  H     0.10105   0.86894   0.59325   0.00000  Uiso   1.00
H1221  H     0.22933   0.85263   0.90688   0.00000  Uiso   1.00
H1222  H     0.21250   0.70690   0.78932   0.00000  Uiso   1.00
H1223  H     0.12185   0.95985   0.70919   0.00000  Uiso   1.00
H1224  H     0.05781   0.77735   0.71013   0.00000  Uiso   1.00
H1225  H     0.27544   0.88921   0.79010   0.00000  Uiso   1.00
H1226  H     0.01589   0.85847   0.60784   0.00000  Uiso   1.00
N1227  N     0.04759   0.83334   0.75001   0.00000  Uiso   1.00
N1228  N     0.28574   0.83332   0.74999   0.00000  Uiso   1.00
O1229  O     0.12846   0.89442   0.75000   0.00000  Uiso   1.00
O1230  O     0.30717   0.81647   0.88705   0.00000  Uiso   1.00
O1231  O     0.16508   0.89635   0.61274   0.00000  Uiso   1.00
O1232  O     0.17716   0.89613   0.88355   0.00000  Uiso   1.00
O1233  O     0.03899   0.75081   0.97734   0.00000  Uiso   1.00
O1234  O     0.25711   0.74082   0.98218   0.00000  Uiso   1.00
O1235  O     0.21798   0.95866   0.79656   0.00000  Uiso   1.00
O1236  O     0.11844   0.70829   0.70002   0.00000  Uiso   1.00
O1237  O     0.28778   0.77283   0.67347   0.00000  Uiso   1.00
O1238  O     0.04549   0.89355   0.82689   0.00000  Uiso   1.00
O1239  O     0.20488   0.77225   0.74999   0.00000  Uiso   1.00
O1240  O     0.20490   0.89441   0.75000   0.00000  Uiso   1.00
O1241  O     0.12843   0.77226   0.75000   0.00000  Uiso   1.00
O1242  O     0.10661   0.83334   0.81612   0.00000  Uiso   1.00
O1243  O     0.22672   0.83333   0.68387   0.00000  Uiso   1.00
O1244  O     0.18305   0.83333   0.81612   0.00000  Uiso   1.00
O1245  O     0.15028   0.83334   0.68388   0.00000  Uiso   1.00
O1246  O     0.32639   0.86437   0.55450   0.00000  Uiso   1.00
Zn1247 Zn    0.11562   0.83334   0.75000   0.00000  Uiso   1.00
Zn1248 Zn    0.21771   0.83333   0.75000   0.00000  Uiso   1.00
C1249  C     0.49978   0.91320   0.75072   0.00000  Uiso   1.00
C1250  C     0.47453   0.97763   0.72699   0.00000  Uiso   1.00
C1251  C     0.50071   0.70929   0.74804   0.00000  Uiso   1.00
C1252  C     0.50005   0.95746   0.75077   0.00000  Uiso   1.00
C1253  C     0.65208   0.80199   0.72749   0.00000  Uiso   1.00
C1254  C     0.34789   0.86462   0.77264   0.00000  Uiso   1.00
C1255  C     0.36600   0.80210   0.72808   0.00000  Uiso   1.00
C1256  C     0.63397   0.86452   0.77202   0.00000  Uiso   1.00
C1257  C     0.46997   0.83490   0.83808   0.00000  Uiso   1.00
C1258  C     0.52996   0.83360   0.66196   0.00000  Uiso   1.00
C1259  C     0.45163   0.84171   0.88934   0.00000  Uiso   1.00
C1260  C     0.50040   0.75351   0.74889   0.00000  Uiso   1.00
C1261  C     0.54768   0.83481   0.61051   0.00000  Uiso   1.00
C1262  C     0.40070   0.81958   0.96821   0.00000  Uiso   1.00
C1263  C     0.58519   0.79667   0.53584   0.00000  Uiso   1.00
C1264  C     0.41517   0.81652   0.91849   0.00000  Uiso   1.00
C1265  C     0.57665   0.80196   0.58420   0.00000  Uiso   1.00
C1266  C     0.47665   0.86796   0.90960   0.00000  Uiso   1.00
C1267  C     0.52497   0.86182   0.58909   0.00000  Uiso   1.00
C1268  C     0.46788   0.86452   0.95784   0.00000  Uiso   1.00
C1269  C     0.52970   0.85367   0.54210   0.00000  Uiso   1.00
C1270  C     0.42323   0.84934   0.98800   0.00000  Uiso   1.00
C1271  C     0.44504   0.86691   0.55512   0.00000  Uiso   1.00
C1272  C     0.56725   0.82714   0.51308   0.00000  Uiso   1.00
C1273  C     0.50546   0.86448   0.97515   0.00000  Uiso   1.00
C1274  C     0.49393   0.86515   0.52471   0.00000  Uiso   1.00
C1275  C     0.35843   0.85969   0.56976   0.00000  Uiso   1.00
C1276  C     0.62877   0.81415   0.92999   0.00000  Uiso   1.00
C1277  C     0.37436   0.78410   0.99669   0.00000  Uiso   1.00
C1278  C     0.60035   0.75423   0.51532   0.00000  Uiso   1.00
C1279  C     0.64072   0.76702   0.70153   0.00000  Uiso   1.00
C1280  C     0.35919   0.89947   0.79886   0.00000  Uiso   1.00
C1281  C     0.55214   0.85223   0.94498   0.00000  Uiso   1.00
C1282  C     0.40932   0.85780   0.53713   0.00000  Uiso   1.00
C1283  C     0.58201   0.83077   0.96323   0.00000  Uiso   1.00
C1284  C     0.52657   0.97949   0.77303   0.00000  Uiso   1.00
C1285  C     0.47498   0.68732   0.72496   0.00000  Uiso   1.00
C1286  C     0.52649   0.68914   0.77150   0.00000  Uiso   1.00
H1287  H     0.58872   0.77824   0.60239   0.00000  Uiso   1.00
H1288  H     0.65329   0.79981   0.94364   0.00000  Uiso   1.00
H1289  H     0.50709   0.90366   0.64039   0.00000  Uiso   1.00
H1290  H     0.50330   0.90360   0.85536   0.00000  Uiso   1.00
H1291  H     0.35891   0.78589   0.53502   0.00000  Uiso   1.00
H1292  H     0.61794   0.73345   0.53183   0.00000  Uiso   1.00
H1293  H     0.56791   0.97912   0.80991   0.00000  Uiso   1.00
H1294  H     0.43558   0.68788   0.68619   0.00000  Uiso   1.00
H1295  H     0.65301   0.73577   0.70483   0.00000  Uiso   1.00
H1296  H     0.34679   0.93073   0.79578   0.00000  Uiso   1.00
H1297  H     0.40073   0.79253   0.90212   0.00000  Uiso   1.00
H1298  H     0.43438   0.86894   0.59325   0.00000  Uiso   1.00
H1299  H     0.56266   0.85263   0.90688   0.00000  Uiso   1.00
H1300  H     0.54583   0.70690   0.78932   0.00000  Uiso   1.00
H1301  H     0.45518   0.95985   0.70919   0.00000  Uiso   1.00
H1302  H     0.39115   0.77735   0.71013   0.00000  Uiso   1.00
H1303  H     0.60878   0.88921   0.79010   0.00000  Uiso   1.00
H1304  H     0.34922   0.85847   0.60784   0.00000  Uiso   1.00
N1305  N     0.38093   0.83334   0.75001   0.00000  Uiso   1.00
N1306  N     0.61907   0.83332   0.74999   0.00000  Uiso   1.00
O1307  O     0.46179   0.89442   0.75000   0.00000  Uiso   1.00
O1308  O     0.64050   0.81647   0.88705   0.00000  Uiso   1.00
O1309  O     0.49842   0.89635   0.61274   0.00000  Uiso   1.00
O1310  O     0.51049   0.89613   0.88355   0.00000  Uiso   1.00
O1311  O     0.37232   0.75081   0.97734   0.00000  Uiso   1.00
O1312  O     0.59045   0.74082   0.98218   0.00000  Uiso   1.00
O1313  O     0.55132   0.95866   0.79656   0.00000  Uiso   1.00
O1314  O     0.45178   0.70829   0.70002   0.00000  Uiso   1.00
O1315  O     0.62111   0.77283   0.67347   0.00000  Uiso   1.00
O1316  O     0.37883   0.89355   0.82689   0.00000  Uiso   1.00
O1317  O     0.53821   0.77225   0.74999   0.00000  Uiso   1.00
O1318  O     0.53823   0.89441   0.75000   0.00000  Uiso   1.00
O1319  O     0.46177   0.77226   0.75000   0.00000  Uiso   1.00
O1320  O     0.43994   0.83334   0.81612   0.00000  Uiso   1.00
O1321  O     0.56006   0.83333   0.68387   0.00000  Uiso   1.00
O1322  O     0.51639   0.83333   0.81612   0.00000  Uiso   1.00
O1323  O     0.48361   0.83334   0.68388   0.00000  Uiso   1.00
O1324  O     0.65973   0.86437   0.55450   0.00000  Uiso   1.00
Zn1325 Zn    0.44896   0.83334   0.75000   0.00000  Uiso   1.00
Zn1326 Zn    0.55104   0.83333   0.75000   0.00000  Uiso   1.00
C1327  C     0.83312   0.91320   0.75072   0.00000  Uiso   1.00
C1328  C     0.80786   0.97763   0.72699   0.00000  Uiso   1.00
C1329  C     0.83404   0.70929   0.74804   0.00000  Uiso   1.00
C1330  C     0.83338   0.95746   0.75077   0.00000  Uiso   1.00
C1331  C     0.98542   0.80199   0.72749   0.00000  Uiso   1.00
C1332  C     0.68122   0.86462   0.77264   0.00000  Uiso   1.00
C1333  C     0.69933   0.80210   0.72808   0.00000  Uiso   1.00
C1334  C     0.96730   0.86452   0.77202   0.00000  Uiso   1.00
C1335  C     0.80330   0.83490   0.83808   0.00000  Uiso   1.00
C1336  C     0.86330   0.83360   0.66196   0.00000  Uiso   1.00
C1337  C     0.78496   0.84171   0.88934   0.00000  Uiso   1.00
C1338  C     0.83373   0.75351   0.74889   0.00000  Uiso   1.00
C1339  C     0.88102   0.83481   0.61051   0.00000  Uiso   1.00
C1340  C     0.73403   0.81958   0.96821   0.00000  Uiso   1.00
C1341  C     0.91853   0.79667   0.53584   0.00000  Uiso   1.00
C1342  C     0.74851   0.81652   0.91849   0.00000  Uiso   1.00
C1343  C     0.90999   0.80196   0.58420   0.00000  Uiso   1.00
C1344  C     0.80998   0.86796   0.90960   0.00000  Uiso   1.00
C1345  C     0.85830   0.86182   0.58909   0.00000  Uiso   1.00
C1346  C     0.80121   0.86452   0.95784   0.00000  Uiso   1.00
C1347  C     0.86303   0.85367   0.54210   0.00000  Uiso   1.00
C1348  C     0.75656   0.84934   0.98800   0.00000  Uiso   1.00
C1349  C     0.77837   0.86691   0.55512   0.00000  Uiso   1.00
C1350  C     0.90059   0.82714   0.51308   0.00000  Uiso   1.00
C1351  C     0.83879   0.86448   0.97515   0.00000  Uiso   1.00
C1352  C     0.82726   0.86515   0.52471   0.00000  Uiso   1.00
C1353  C     0.69176   0.85969   0.56976   0.00000  Uiso   1.00
C1354  C     0.96210   0.81415   0.92999   0.00000  Uiso   1.00
C1355  C     0.70769   0.78410   0.99669   0.00000  Uiso   1.00
C1356  C     0.93368   0.75423   0.51532   0.00000  Uiso   1.00
C1357  C     0.97405   0.76702   0.70153   0.00000  Uiso   1.00
C1358  C     0.69252   0.89947   0.79886   0.00000  Uiso   1.00
C1359  C     0.88548   0.85223   0.94498   0.00000  Uiso   1.00
C1360  C     0.74265   0.85780   0.53713   0.00000  Uiso   1.00
C1361  C     0.91534   0.83077   0.96323   0.00000  Uiso   1.00
C1362  C     0.85991   0.97949   0.77303   0.00000  Uiso   1.00
C1363  C     0.80831   0.68732   0.72496   0.00000  Uiso   1.00
C1364  C     0.85982   0.68914   0.77150   0.00000  Uiso   1.00
H1365  H     0.92205   0.77824   0.60239   0.00000  Uiso   1.00
H1366  H     0.98662   0.79981   0.94364   0.00000  Uiso   1.00
H1367  H     0.84042   0.90366   0.64039   0.00000  Uiso   1.00
H1368  H     0.83663   0.90360   0.85536   0.00000  Uiso   1.00
H1369  H     0.69224   0.78589   0.53502   0.00000  Uiso   1.00
H1370  H     0.95127   0.73345   0.53183   0.00000  Uiso   1.00
H1371  H     0.90124   0.97912   0.80991   0.00000  Uiso   1.00
H1372  H     0.76891   0.68788   0.68619   0.00000  Uiso   1.00
H1373  H     0.98634   0.73577   0.70483   0.00000  Uiso   1.00
H1374  H     0.68012   0.93073   0.79578   0.00000  Uiso   1.00
H1375  H     0.73406   0.79253   0.90212   0.00000  Uiso   1.00
H1376  H     0.76772   0.86894   0.59325   0.00000  Uiso   1.00
H1377  H     0.89599   0.85263   0.90688   0.00000  Uiso   1.00
H1378  H     0.87917   0.70690   0.78932   0.00000  Uiso   1.00
H1379  H     0.78851   0.95985   0.70919   0.00000  Uiso   1.00
H1380  H     0.72448   0.77735   0.71013   0.00000  Uiso   1.00
H1381  H     0.94211   0.88921   0.79010   0.00000  Uiso   1.00
H1382  H     0.68256   0.85847   0.60784   0.00000  Uiso   1.00
N1383  N     0.71426   0.83334   0.75001   0.00000  Uiso   1.00
N1384  N     0.95241   0.83332   0.74999   0.00000  Uiso   1.00
O1385  O     0.79512   0.89442   0.75000   0.00000  Uiso   1.00
O1386  O     0.97383   0.81647   0.88705   0.00000  Uiso   1.00
O1387  O     0.83175   0.89635   0.61274   0.00000  Uiso   1.00
O1388  O     0.84382   0.89613   0.88355   0.00000  Uiso   1.00
O1389  O     0.70566   0.75081   0.97734   0.00000  Uiso   1.00
O1390  O     0.92378   0.74082   0.98218   0.00000  Uiso   1.00
O1391  O     0.88465   0.95866   0.79656   0.00000  Uiso   1.00
O1392  O     0.78511   0.70829   0.70002   0.00000  Uiso   1.00
O1393  O     0.95444   0.77283   0.67347   0.00000  Uiso   1.00
O1394  O     0.71216   0.89355   0.82689   0.00000  Uiso   1.00
O1395  O     0.87154   0.77225   0.74999   0.00000  Uiso   1.00
O1396  O     0.87157   0.89441   0.75000   0.00000  Uiso   1.00
O1397  O     0.79510   0.77226   0.75000   0.00000  Uiso   1.00
O1398  O     0.77328   0.83334   0.81612   0.00000  Uiso   1.00
O1399  O     0.89339   0.83333   0.68387   0.00000  Uiso   1.00
O1400  O     0.84972   0.83333   0.81612   0.00000  Uiso   1.00
O1401  O     0.81695   0.83334   0.68388   0.00000  Uiso   1.00
O1402  O     0.99306   0.86437   0.55450   0.00000  Uiso   1.00
Zn1403 Zn    0.78229   0.83334   0.75000   0.00000  Uiso   1.00
Zn1404 Zn    0.88438   0.83333   0.75000   0.00000  Uiso   1.00
loop_
_geom_bond_atom_site_label_1
_geom_bond_atom_site_label_2
_geom_bond_distance
_geom_bond_site_symmetry_2
_ccdc_geom_bond_type
C1     O59     1.297   .     A
C1     O70     1.291   .     A
C1     C4      1.420   .     S
C2     H53     1.085   .     S
C2     C4      1.395   .     A
C2     C271    1.382   .     S
C3     C12     1.418   .     S
C3     C38     1.394   .     A
C3     C37     1.403   .     A
C4     C36     1.404   .     A
C5     N58     1.387   .     A
C5     C31     1.471   .     S
C5     C85     1.423   .     S
C6     C32     1.472   .     S
C6     N57     1.387   .     A
C6     C164    1.424   1_455 S
C7     H54     1.082   .     S
C7     N57     1.359   .     A
C7     C161    1.423   1_455 S
C8     N58     1.359   .     A
C8     H55     1.082   .     S
C8     C84     1.424   .     S
C9     O72     1.304   .     A
C9     C11     1.457   .     S
C9     O74     1.302   .     A
C10    O73     1.304   .     A
C10    O75     1.300   .     A
C10    C13     1.453   .     S
C11    C18     1.406   .     A
C11    C16     1.395   .     A
C12    O69     1.296   .     A
C12    O71     1.292   .     A
C13    C19     1.407   .     A
C13    C17     1.397   .     A
C14    C16     1.409   .     A
C14    C29     1.484   .     S
C14    C22     1.418   .     A
C15    C24     1.420   .     A
C15    C30     1.484   .     S
C15    C17     1.400   .     A
C16    H49     1.083   .     S
C17    H39     1.084   .     S
C18    O62     1.382   .     S
C18    C20     1.395   .     A
C19    C21     1.399   .     A
C19    O61     1.385   .     S
C20    C25     1.408   .     A
C20    C22     1.407   .     A
C21    C26     1.409   .     A
C21    C24     1.414   .     A
C22    C736    1.413   .     S
C23    C26     1.414   .     A
C23    H50     1.081   .     S
C23    C34     1.400   .     A
C24    C737    1.418   1_554 S
C25    C33     1.409   .     A
C25    C728    1.413   .     S
C26    C727    1.413   1_554 S
C27    C34     1.480   .     S
C27    H56     1.086   .     S
C27    O232    1.221   1_455 S
C28    H40     1.074   .     S
C28    O60     1.222   .     D
C28    C35     1.482   .     S
C29    O63     1.222   .     D
C29    H745    1.082   .     S
C30    H44     1.085   .     S
C30    O766    1.221   1_554 S
C31    O67     1.217   .     D
C31    H47     1.086   .     S
C32    O68     1.217   .     D
C32    H48     1.086   .     S
C33    H51     1.080   .     S
C33    C35     1.399   .     A
C34    C724    1.413   1_554 S
C35    C726    1.418   .     S
C36    O65     1.383   .     S
C36    C272    1.380   .     S
C37    O66     1.383   .     S
C37    C470    1.382   1_545 S
C38    H52     1.085   .     S
C38    C504    1.380   1_545 S
H41    O61     0.990   .     S
H42    O62     0.990   .     S
H43    C731    1.082   1_554 S
H45    O65     0.992   .     S
H46    O66     0.992   .     S
N57    Zn77    2.039   .     S
N58    Zn78    2.039   .     S
O59    Zn77    1.998   .     S
O64    C732    1.221   .     S
O69    Zn78    1.998   .     S
O70    Zn78    1.995   .     S
O71    Zn77    1.995   .     S
O72    Zn77    1.923   .     S
O73    Zn78    1.923   .     S
O74    Zn78    1.888   .     S
O75    Zn77    1.888   .     S
O76    C105    1.221   .     S
C79    O137    1.297   .     A
C79    O148    1.291   .     A
C79    C82     1.420   .     S
C80    H131    1.085   .     S
C80    C82     1.395   .     A
C80    C349    1.382   .     S
C81    C90     1.418   .     S
C81    C116    1.394   .     A
C81    C115    1.403   .     A
C82    C114    1.404   .     A
C83    N136    1.387   .     A
C83    C109    1.471   .     S
C83    C163    1.423   .     S
C84    C110    1.472   .     S
C84    N135    1.387   .     A
C85    H132    1.082   .     S
C85    N135    1.359   .     A
C86    N136    1.359   .     A
C86    H133    1.082   .     S
C86    C162    1.424   .     S
C87    O150    1.304   .     A
C87    C89     1.457   .     S
C87    O152    1.302   .     A
C88    O151    1.304   .     A
C88    O153    1.300   .     A
C88    C91     1.453   .     S
C89    C96     1.406   .     A
C89    C94     1.395   .     A
C90    O147    1.296   .     A
C90    O149    1.292   .     A
C91    C97     1.407   .     A
C91    C95     1.397   .     A
C92    C94     1.409   .     A
C92    C107    1.484   .     S
C92    C100    1.418   .     A
C93    C102    1.420   .     A
C93    C108    1.484   .     S
C93    C95     1.400   .     A
C94    H127    1.083   .     S
C95    H117    1.084   .     S
C96    O140    1.382   .     S
C96    C98     1.395   .     A
C97    C99     1.399   .     A
C97    O139    1.385   .     S
C98    C103    1.408   .     A
C98    C100    1.407   .     A
C99    C104    1.409   .     A
C99    C102    1.414   .     A
C100   C814    1.413   .     S
C101   C104    1.414   .     A
C101   H128    1.081   .     S
C101   C112    1.400   .     A
C102   C815    1.418   1_554 S
C103   C111    1.409   .     A
C103   C806    1.413   .     S
C104   C805    1.413   1_554 S
C105   C112    1.480   .     S
C105   H134    1.086   .     S
C106   H118    1.074   .     S
C106   O138    1.222   .     D
C106   C113    1.482   .     S
C107   O141    1.222   .     D
C107   H823    1.082   .     S
C108   H122    1.085   .     S
C108   O844    1.221   1_554 S
C109   O145    1.217   .     D
C109   H125    1.086   .     S
C110   O146    1.217   .     D
C110   H126    1.086   .     S
C111   H129    1.080   .     S
C111   C113    1.399   .     A
C112   C802    1.413   1_554 S
C113   C804    1.418   .     S
C114   O143    1.383   .     S
C114   C350    1.380   .     S
C115   O144    1.383   .     S
C115   C548    1.382   1_545 S
C116   H130    1.085   .     S
C116   C582    1.380   1_545 S
H119   O139    0.990   .     S
H120   O140    0.990   .     S
H121   C809    1.082   1_554 S
H123   O143    0.992   .     S
H124   O144    0.992   .     S
N135   Zn155   2.039   .     S
N136   Zn156   2.039   .     S
O137   Zn155   1.998   .     S
O142   C810    1.221   .     S
O147   Zn156   1.998   .     S
O148   Zn156   1.995   .     S
O149   Zn155   1.995   .     S
O150   Zn155   1.923   .     S
O151   Zn156   1.923   .     S
O152   Zn156   1.888   .     S
O153   Zn155   1.888   .     S
O154   C183    1.221   .     S
C157   O215    1.297   .     A
C157   O226    1.291   .     A
C157   C160    1.420   .     S
C158   H209    1.085   .     S
C158   C160    1.395   .     A
C158   C427    1.382   .     S
C159   C168    1.418   .     S
C159   C194    1.394   .     A
C159   C193    1.403   .     A
C160   C192    1.404   .     A
C161   N214    1.387   .     A
C161   C187    1.471   .     S
C161   C7      1.423   1_655 S
C162   C188    1.472   .     S
C162   N213    1.387   .     A
C163   H210    1.082   .     S
C163   N213    1.359   .     A
C164   N214    1.359   .     A
C164   H211    1.082   .     S
C164   C6      1.424   1_655 S
C165   O228    1.304   .     A
C165   C167    1.457   .     S
C165   O230    1.302   .     A
C166   O229    1.304   .     A
C166   O231    1.300   .     A
C166   C169    1.453   .     S
C167   C174    1.406   .     A
C167   C172    1.395   .     A
C168   O225    1.296   .     A
C168   O227    1.292   .     A
C169   C175    1.407   .     A
C169   C173    1.397   .     A
C170   C172    1.409   .     A
C170   C185    1.484   .     S
C170   C178    1.418   .     A
C171   C180    1.420   .     A
C171   C186    1.484   .     S
C171   C173    1.400   .     A
C172   H205    1.083   .     S
C173   H195    1.084   .     S
C174   O218    1.382   .     S
C174   C176    1.395   .     A
C175   C177    1.399   .     A
C175   O217    1.385   .     S
C176   C181    1.408   .     A
C176   C178    1.407   .     A
C177   C182    1.409   .     A
C177   C180    1.414   .     A
C178   C892    1.413   .     S
C179   C182    1.414   .     A
C179   H206    1.081   .     S
C179   C190    1.400   .     A
C180   C893    1.418   1_554 S
C181   C189    1.409   .     A
C181   C884    1.413   .     S
C182   C883    1.413   1_554 S
C183   C190    1.480   .     S
C183   H212    1.086   .     S
C184   H196    1.074   .     S
C184   O216    1.222   .     D
C184   C191    1.482   .     S
C185   O219    1.222   .     D
C185   H901    1.082   .     S
C186   H200    1.085   .     S
C186   O922    1.221   1_554 S
C187   O223    1.217   .     D
C187   H203    1.086   .     S
C188   O224    1.217   .     D
C188   H204    1.086   .     S
C189   H207    1.080   .     S
C189   C191    1.399   .     A
C190   C880    1.413   1_554 S
C191   C882    1.418   .     S
C192   O221    1.383   .     S
C192   C428    1.380   .     S
C193   O222    1.383   .     S
C193   C626    1.382   1_545 S
C194   H208    1.085   .     S
C194   C660    1.380   1_545 S
H197   O217    0.990   .     S
H198   O218    0.990   .     S
H199   C887    1.082   1_554 S
H201   O221    0.992   .     S
H202   O222    0.992   .     S
N213   Zn233   2.039   .     S
N214   Zn234   2.039   .     S
O215   Zn233   1.998   .     S
O220   C888    1.221   .     S
O225   Zn234   1.998   .     S
O226   Zn234   1.995   .     S
O227   Zn233   1.995   .     S
O228   Zn233   1.923   .     S
O229   Zn234   1.923   .     S
O230   Zn234   1.888   .     S
O231   Zn233   1.888   .     S
O232   C27     1.221   1_655 S
C235   O293    1.297   .     A
C235   O304    1.291   .     A
C235   C238    1.420   .     S
C236   H287    1.085   .     S
C236   C238    1.395   .     A
C236   C505    1.382   .     S
C237   C246    1.418   .     S
C237   C272    1.394   .     A
C237   C271    1.403   .     A
C238   C270    1.404   .     A
C239   N292    1.387   .     A
C239   C265    1.471   .     S
C239   C319    1.423   .     S
C240   C266    1.472   .     S
C240   N291    1.387   .     A
C240   C398    1.424   1_455 S
C241   H288    1.082   .     S
C241   N291    1.359   .     A
C241   C395    1.423   1_455 S
C242   N292    1.359   .     A
C242   H289    1.082   .     S
C242   C318    1.424   .     S
C243   O306    1.304   .     A
C243   C245    1.457   .     S
C243   O308    1.302   .     A
C244   O307    1.304   .     A
C244   O309    1.300   .     A
C244   C247    1.453   .     S
C245   C252    1.406   .     A
C245   C250    1.395   .     A
C246   O303    1.296   .     A
C246   O305    1.292   .     A
C247   C253    1.407   .     A
C247   C251    1.397   .     A
C248   C250    1.409   .     A
C248   C263    1.484   .     S
C248   C256    1.418   .     A
C249   C258    1.420   .     A
C249   C264    1.484   .     S
C249   C251    1.400   .     A
C250   H283    1.083   .     S
C251   H273    1.084   .     S
C252   O296    1.382   .     S
C252   C254    1.395   .     A
C253   C255    1.399   .     A
C253   O295    1.385   .     S
C254   C259    1.408   .     A
C254   C256    1.407   .     A
C255   C260    1.409   .     A
C255   C258    1.414   .     A
C256   C970    1.413   .     S
C257   C260    1.414   .     A
C257   H284    1.081   .     S
C257   C268    1.400   .     A
C258   C971    1.418   1_554 S
C259   C267    1.409   .     A
C259   C962    1.413   .     S
C260   C961    1.413   1_554 S
C261   C268    1.480   .     S
C261   H290    1.086   .     S
C261   O466    1.221   1_455 S
C262   H274    1.074   .     S
C262   O294    1.222   .     D
C262   C269    1.482   .     S
C263   O297    1.222   .     D
C263   H979    1.082   .     S
C264   H278    1.085   .     S
C264   O1000   1.221   1_554 S
C265   O301    1.217   .     D
C265   H281    1.086   .     S
C266   O302    1.217   .     D
C266   H282    1.086   .     S
C267   H285    1.080   .     S
C267   C269    1.399   .     A
C268   C958    1.413   1_554 S
C269   C960    1.418   .     S
C270   O299    1.383   .     S
C270   C506    1.380   .     S
C271   O300    1.383   .     S
C272   H286    1.085   .     S
H275   O295    0.990   .     S
H276   O296    0.990   .     S
H277   C965    1.082   1_554 S
H279   O299    0.992   .     S
H280   O300    0.992   .     S
N291   Zn311   2.039   .     S
N292   Zn312   2.039   .     S
O293   Zn311   1.998   .     S
O298   C966    1.221   .     S
O303   Zn312   1.998   .     S
O304   Zn312   1.995   .     S
O305   Zn311   1.995   .     S
O306   Zn311   1.923   .     S
O307   Zn312   1.923   .     S
O308   Zn312   1.888   .     S
O309   Zn311   1.888   .     S
O310   C339    1.221   .     S
C313   O371    1.297   .     A
C313   O382    1.291   .     A
C313   C316    1.420   .     S
C314   H365    1.085   .     S
C314   C316    1.395   .     A
C314   C583    1.382   .     S
C315   C324    1.418   .     S
C315   C350    1.394   .     A
C315   C349    1.403   .     A
C316   C348    1.404   .     A
C317   N370    1.387   .     A
C317   C343    1.471   .     S
C317   C397    1.423   .     S
C318   C344    1.472   .     S
C318   N369    1.387   .     A
C319   H366    1.082   .     S
C319   N369    1.359   .     A
C320   N370    1.359   .     A
C320   H367    1.082   .     S
C320   C396    1.424   .     S
C321   O384    1.304   .     A
C321   C323    1.457   .     S
C321   O386    1.302   .     A
C322   O385    1.304   .     A
C322   O387    1.300   .     A
C322   C325    1.453   .     S
C323   C330    1.406   .     A
C323   C328    1.395   .     A
C324   O381    1.296   .     A
C324   O383    1.292   .     A
C325   C331    1.407   .     A
C325   C329    1.397   .     A
C326   C328    1.409   .     A
C326   C341    1.484   .     S
C326   C334    1.418   .     A
C327   C336    1.420   .     A
C327   C342    1.484   .     S
C327   C329    1.400   .     A
C328   H361    1.083   .     S
C329   H351    1.084   .     S
C330   O374    1.382   .     S
C330   C332    1.395   .     A
C331   C333    1.399   .     A
C331   O373    1.385   .     S
C332   C337    1.408   .     A
C332   C334    1.407   .     A
C333   C338    1.409   .     A
C333   C336    1.414   .     A
C334   C1048   1.413   .     S
C335   C338    1.414   .     A
C335   H362    1.081   .     S
C335   C346    1.400   .     A
C336   C1049   1.418   1_554 S
C337   C345    1.409   .     A
C337   C1040   1.413   .     S
C338   C1039   1.413   1_554 S
C339   C346    1.480   .     S
C339   H368    1.086   .     S
C340   H352    1.074   .     S
C340   O372    1.222   .     D
C340   C347    1.482   .     S
C341   O375    1.222   .     D
C341   H1057   1.082   .     S
C342   H356    1.085   .     S
C342   O1078   1.221   1_554 S
C343   O379    1.217   .     D
C343   H359    1.086   .     S
C344   O380    1.217   .     D
C344   H360    1.086   .     S
C345   H363    1.080   .     S
C345   C347    1.399   .     A
C346   C1036   1.413   1_554 S
C347   C1038   1.418   .     S
C348   O377    1.383   .     S
C348   C584    1.380   .     S
C349   O378    1.383   .     S
C350   H364    1.085   .     S
H353   O373    0.990   .     S
H354   O374    0.990   .     S
H355   C1043   1.082   1_554 S
H357   O377    0.992   .     S
H358   O378    0.992   .     S
N369   Zn389   2.039   .     S
N370   Zn390   2.039   .     S
O371   Zn389   1.998   .     S
O376   C1044   1.221   .     S
O381   Zn390   1.998   .     S
O382   Zn390   1.995   .     S
O383   Zn389   1.995   .     S
O384   Zn389   1.923   .     S
O385   Zn390   1.923   .     S
O386   Zn390   1.888   .     S
O387   Zn389   1.888   .     S
O388   C417    1.221   .     S
C391   O449    1.297   .     A
C391   O460    1.291   .     A
C391   C394    1.420   .     S
C392   H443    1.085   .     S
C392   C394    1.395   .     A
C392   C661    1.382   .     S
C393   C402    1.418   .     S
C393   C428    1.394   .     A
C393   C427    1.403   .     A
C394   C426    1.404   .     A
C395   N448    1.387   .     A
C395   C421    1.471   .     S
C395   C241    1.423   1_655 S
C396   C422    1.472   .     S
C396   N447    1.387   .     A
C397   H444    1.082   .     S
C397   N447    1.359   .     A
C398   N448    1.359   .     A
C398   H445    1.082   .     S
C398   C240    1.424   1_655 S
C399   O462    1.304   .     A
C399   C401    1.457   .     S
C399   O464    1.302   .     A
C400   O463    1.304   .     A
C400   O465    1.300   .     A
C400   C403    1.453   .     S
C401   C408    1.406   .     A
C401   C406    1.395   .     A
C402   O459    1.296   .     A
C402   O461    1.292   .     A
C403   C409    1.407   .     A
C403   C407    1.397   .     A
C404   C406    1.409   .     A
C404   C419    1.484   .     S
C404   C412    1.418   .     A
C405   C414    1.420   .     A
C405   C420    1.484   .     S
C405   C407    1.400   .     A
C406   H439    1.083   .     S
C407   H429    1.084   .     S
C408   O452    1.382   .     S
C408   C410    1.395   .     A
C409   C411    1.399   .     A
C409   O451    1.385   .     S
C410   C415    1.408   .     A
C410   C412    1.407   .     A
C411   C416    1.409   .     A
C411   C414    1.414   .     A
C412   C1126   1.413   .     S
C413   C416    1.414   .     A
C413   H440    1.081   .     S
C413   C424    1.400   .     A
C414   C1127   1.418   1_554 S
C415   C423    1.409   .     A
C415   C1118   1.413   .     S
C416   C1117   1.413   1_554 S
C417   C424    1.480   .     S
C417   H446    1.086   .     S
C418   H430    1.074   .     S
C418   O450    1.222   .     D
C418   C425    1.482   .     S
C419   O453    1.222   .     D
C419   H1135   1.082   .     S
C420   H434    1.085   .     S
C420   O1156   1.221   1_554 S
C421   O457    1.217   .     D
C421   H437    1.086   .     S
C422   O458    1.217   .     D
C422   H438    1.086   .     S
C423   H441    1.080   .     S
C423   C425    1.399   .     A
C424   C1114   1.413   1_554 S
C425   C1116   1.418   .     S
C426   O455    1.383   .     S
C426   C662    1.380   .     S
C427   O456    1.383   .     S
C428   H442    1.085   .     S
H431   O451    0.990   .     S
H432   O452    0.990   .     S
H433   C1121   1.082   1_554 S
H435   O455    0.992   .     S
H436   O456    0.992   .     S
N447   Zn467   2.039   .     S
N448   Zn468   2.039   .     S
O449   Zn467   1.998   .     S
O454   C1122   1.221   .     S
O459   Zn468   1.998   .     S
O460   Zn468   1.995   .     S
O461   Zn467   1.995   .     S
O462   Zn467   1.923   .     S
O463   Zn468   1.923   .     S
O464   Zn468   1.888   .     S
O465   Zn467   1.888   .     S
O466   C261    1.221   1_655 S
C469   O527    1.297   .     A
C469   O538    1.291   .     A
C469   C472    1.420   .     S
C470   H521    1.085   .     S
C470   C472    1.395   .     A
C470   C37     1.382   1_565 S
C471   C480    1.418   .     S
C471   C506    1.394   .     A
C471   C505    1.403   .     A
C472   C504    1.404   .     A
C473   N526    1.387   .     A
C473   C499    1.471   .     S
C473   C553    1.423   .     S
C474   C500    1.472   .     S
C474   N525    1.387   .     A
C474   C632    1.424   1_455 S
C475   H522    1.082   .     S
C475   N525    1.359   .     A
C475   C629    1.423   1_455 S
C476   N526    1.359   .     A
C476   H523    1.082   .     S
C476   C552    1.424   .     S
C477   O540    1.304   .     A
C477   C479    1.457   .     S
C477   O542    1.302   .     A
C478   O541    1.304   .     A
C478   O543    1.300   .     A
C478   C481    1.453   .     S
C479   C486    1.406   .     A
C479   C484    1.395   .     A
C480   O537    1.296   .     A
C480   O539    1.292   .     A
C481   C487    1.407   .     A
C481   C485    1.397   .     A
C482   C484    1.409   .     A
C482   C497    1.484   .     S
C482   C490    1.418   .     A
C483   C492    1.420   .     A
C483   C498    1.484   .     S
C483   C485    1.400   .     A
C484   H517    1.083   .     S
C485   H507    1.084   .     S
C486   O530    1.382   .     S
C486   C488    1.395   .     A
C487   C489    1.399   .     A
C487   O529    1.385   .     S
C488   C493    1.408   .     A
C488   C490    1.407   .     A
C489   C494    1.409   .     A
C489   C492    1.414   .     A
C490   C1204   1.413   .     S
C491   C494    1.414   .     A
C491   H518    1.081   .     S
C491   C502    1.400   .     A
C492   C1205   1.418   1_554 S
C493   C501    1.409   .     A
C493   C1196   1.413   .     S
C494   C1195   1.413   1_554 S
C495   C502    1.480   .     S
C495   H524    1.086   .     S
C495   O700    1.221   1_455 S
C496   H508    1.074   .     S
C496   O528    1.222   .     D
C496   C503    1.482   .     S
C497   O531    1.222   .     D
C497   H1213   1.082   .     S
C498   H512    1.085   .     S
C498   O1234   1.221   1_554 S
C499   O535    1.217   .     D
C499   H515    1.086   .     S
C500   O536    1.217   .     D
C500   H516    1.086   .     S
C501   H519    1.080   .     S
C501   C503    1.399   .     A
C502   C1192   1.413   1_554 S
C503   C1194   1.418   .     S
C504   O533    1.383   .     S
C504   C38     1.380   1_565 S
C505   O534    1.383   .     S
C506   H520    1.085   .     S
H509   O529    0.990   .     S
H510   O530    0.990   .     S
H511   C1199   1.082   1_554 S
H513   O533    0.992   .     S
H514   O534    0.992   .     S
N525   Zn545   2.039   .     S
N526   Zn546   2.039   .     S
O527   Zn545   1.998   .     S
O532   C1200   1.221   .     S
O537   Zn546   1.998   .     S
O538   Zn546   1.995   .     S
O539   Zn545   1.995   .     S
O540   Zn545   1.923   .     S
O541   Zn546   1.923   .     S
O542   Zn546   1.888   .     S
O543   Zn545   1.888   .     S
O544   C573    1.221   .     S
C547   O605    1.297   .     A
C547   O616    1.291   .     A
C547   C550    1.420   .     S
C548   H599    1.085   .     S
C548   C550    1.395   .     A
C548   C115    1.382   1_565 S
C549   C558    1.418   .     S
C549   C584    1.394   .     A
C549   C583    1.403   .     A
C550   C582    1.404   .     A
C551   N604    1.387   .     A
C551   C577    1.471   .     S
C551   C631    1.423   .     S
C552   C578    1.472   .     S
C552   N603    1.387   .     A
C553   H600    1.082   .     S
C553   N603    1.359   .     A
C554   N604    1.359   .     A
C554   H601    1.082   .     S
C554   C630    1.424   .     S
C555   O618    1.304   .     A
C555   C557    1.457   .     S
C555   O620    1.302   .     A
C556   O619    1.304   .     A
C556   O621    1.300   .     A
C556   C559    1.453   .     S
C557   C564    1.406   .     A
C557   C562    1.395   .     A
C558   O615    1.296   .     A
C558   O617    1.292   .     A
C559   C565    1.407   .     A
C559   C563    1.397   .     A
C560   C562    1.409   .     A
C560   C575    1.484   .     S
C560   C568    1.418   .     A
C561   C570    1.420   .     A
C561   C576    1.484   .     S
C561   C563    1.400   .     A
C562   H595    1.083   .     S
C563   H585    1.084   .     S
C564   O608    1.382   .     S
C564   C566    1.395   .     A
C565   C567    1.399   .     A
C565   O607    1.385   .     S
C566   C571    1.408   .     A
C566   C568    1.407   .     A
C567   C572    1.409   .     A
C567   C570    1.414   .     A
C568   C1282   1.413   .     S
C569   C572    1.414   .     A
C569   H596    1.081   .     S
C569   C580    1.400   .     A
C570   C1283   1.418   1_554 S
C571   C579    1.409   .     A
C571   C1274   1.413   .     S
C572   C1273   1.413   1_554 S
C573   C580    1.480   .     S
C573   H602    1.086   .     S
C574   H586    1.074   .     S
C574   O606    1.222   .     D
C574   C581    1.482   .     S
C575   O609    1.222   .     D
C575   H1291   1.082   .     S
C576   H590    1.085   .     S
C576   O1312   1.221   1_554 S
C577   O613    1.217   .     D
C577   H593    1.086   .     S
C578   O614    1.217   .     D
C578   H594    1.086   .     S
C579   H597    1.080   .     S
C579   C581    1.399   .     A
C580   C1270   1.413   1_554 S
C581   C1272   1.418   .     S
C582   O611    1.383   .     S
C582   C116    1.380   1_565 S
C583   O612    1.383   .     S
C584   H598    1.085   .     S
H587   O607    0.990   .     S
H588   O608    0.990   .     S
H589   C1277   1.082   1_554 S
H591   O611    0.992   .     S
H592   O612    0.992   .     S
N603   Zn623   2.039   .     S
N604   Zn624   2.039   .     S
O605   Zn623   1.998   .     S
O610   C1278   1.221   .     S
O615   Zn624   1.998   .     S
O616   Zn624   1.995   .     S
O617   Zn623   1.995   .     S
O618   Zn623   1.923   .     S
O619   Zn624   1.923   .     S
O620   Zn624   1.888   .     S
O621   Zn623   1.888   .     S
O622   C651    1.221   .     S
C625   O683    1.297   .     A
C625   O694    1.291   .     A
C625   C628    1.420   .     S
C626   H677    1.085   .     S
C626   C628    1.395   .     A
C626   C193    1.382   1_565 S
C627   C636    1.418   .     S
C627   C662    1.394   .     A
C627   C661    1.403   .     A
C628   C660    1.404   .     A
C629   N682    1.387   .     A
C629   C655    1.471   .     S
C629   C475    1.423   1_655 S
C630   C656    1.472   .     S
C630   N681    1.387   .     A
C631   H678    1.082   .     S
C631   N681    1.359   .     A
C632   N682    1.359   .     A
C632   H679    1.082   .     S
C632   C474    1.424   1_655 S
C633   O696    1.304   .     A
C633   C635    1.457   .     S
C633   O698    1.302   .     A
C634   O697    1.304   .     A
C634   O699    1.300   .     A
C634   C637    1.453   .     S
C635   C642    1.406   .     A
C635   C640    1.395   .     A
C636   O693    1.296   .     A
C636   O695    1.292   .     A
C637   C643    1.407   .     A
C637   C641    1.397   .     A
C638   C640    1.409   .     A
C638   C653    1.484   .     S
C638   C646    1.418   .     A
C639   C648    1.420   .     A
C639   C654    1.484   .     S
C639   C641    1.400   .     A
C640   H673    1.083   .     S
C641   H663    1.084   .     S
C642   O686    1.382   .     S
C642   C644    1.395   .     A
C643   C645    1.399   .     A
C643   O685    1.385   .     S
C644   C649    1.408   .     A
C644   C646    1.407   .     A
C645   C650    1.409   .     A
C645   C648    1.414   .     A
C646   C1360   1.413   .     S
C647   C650    1.414   .     A
C647   H674    1.081   .     S
C647   C658    1.400   .     A
C648   C1361   1.418   1_554 S
C649   C657    1.409   .     A
C649   C1352   1.413   .     S
C650   C1351   1.413   1_554 S
C651   C658    1.480   .     S
C651   H680    1.086   .     S
C652   H664    1.074   .     S
C652   O684    1.222   .     D
C652   C659    1.482   .     S
C653   O687    1.222   .     D
C653   H1369   1.082   .     S
C654   H668    1.085   .     S
C654   O1390   1.221   1_554 S
C655   O691    1.217   .     D
C655   H671    1.086   .     S
C656   O692    1.217   .     D
C656   H672    1.086   .     S
C657   H675    1.080   .     S
C657   C659    1.399   .     A
C658   C1348   1.413   1_554 S
C659   C1350   1.418   .     S
C660   O689    1.383   .     S
C660   C194    1.380   1_565 S
C661   O690    1.383   .     S
C662   H676    1.085   .     S
H665   O685    0.990   .     S
H666   O686    0.990   .     S
H667   C1355   1.082   1_554 S
H669   O689    0.992   .     S
H670   O690    0.992   .     S
N681   Zn701   2.039   .     S
N682   Zn702   2.039   .     S
O683   Zn701   1.998   .     S
O688   C1356   1.221   .     S
O693   Zn702   1.998   .     S
O694   Zn702   1.995   .     S
O695   Zn701   1.995   .     S
O696   Zn701   1.923   .     S
O697   Zn702   1.923   .     S
O698   Zn702   1.888   .     S
O699   Zn701   1.888   .     S
O700   C495    1.221   1_655 S
C703   O761    1.297   .     A
C703   O772    1.291   .     A
C703   C706    1.420   .     S
C704   H755    1.085   .     S
C704   C706    1.395   .     A
C704   C973    1.382   .     S
C705   C714    1.418   .     S
C705   C740    1.394   .     A
C705   C739    1.403   .     A
C706   C738    1.404   .     A
C707   N760    1.387   .     A
C707   C733    1.471   .     S
C707   C787    1.423   .     S
C708   C734    1.472   .     S
C708   N759    1.387   .     A
C708   C866    1.424   1_455 S
C709   H756    1.082   .     S
C709   N759    1.359   .     A
C709   C863    1.423   1_455 S
C710   N760    1.359   .     A
C710   H757    1.082   .     S
C710   C786    1.424   .     S
C711   O774    1.304   .     A
C711   C713    1.457   .     S
C711   O776    1.302   .     A
C712   O775    1.304   .     A
C712   O777    1.300   .     A
C712   C715    1.453   .     S
C713   C720    1.406   .     A
C713   C718    1.395   .     A
C714   O771    1.296   .     A
C714   O773    1.292   .     A
C715   C721    1.407   .     A
C715   C719    1.397   .     A
C716   C718    1.409   .     A
C716   C731    1.484   .     S
C716   C724    1.418   .     A
C717   C726    1.420   .     A
C717   C732    1.484   .     S
C717   C719    1.400   .     A
C718   H751    1.083   .     S
C719   H741    1.084   .     S
C720   O764    1.382   .     S
C720   C722    1.395   .     A
C721   C723    1.399   .     A
C721   O763    1.385   .     S
C722   C727    1.408   .     A
C722   C724    1.407   .     A
C723   C728    1.409   .     A
C723   C726    1.414   .     A
C724   C34     1.413   1_556 S
C725   C728    1.414   .     A
C725   H752    1.081   .     S
C725   C736    1.400   .     A
C727   C735    1.409   .     A
C727   C26     1.413   1_556 S
C729   C736    1.480   .     S
C729   H758    1.086   .     S
C729   O934    1.221   1_455 S
C730   H742    1.074   .     S
C730   O762    1.222   .     D
C730   C737    1.482   .     S
C731   O765    1.222   .     D
C731   H43     1.082   1_556 S
C732   H746    1.085   .     S
C733   O769    1.217   .     D
C733   H749    1.086   .     S
C734   O770    1.217   .     D
C734   H750    1.086   .     S
C735   H753    1.080   .     S
C735   C737    1.399   .     A
C737   C24     1.418   1_556 S
C738   O767    1.383   .     S
C738   C974    1.380   .     S
C739   O768    1.383   .     S
C739   C1172   1.382   1_545 S
C740   H754    1.085   .     S
C740   C1206   1.380   1_545 S
H743   O763    0.990   .     S
H744   O764    0.990   .     S
H747   O767    0.992   .     S
H748   O768    0.992   .     S
N759   Zn779   2.039   .     S
N760   Zn780   2.039   .     S
O761   Zn779   1.998   .     S
O766   C30     1.221   1_556 S
O771   Zn780   1.998   .     S
O772   Zn780   1.995   .     S
O773   Zn779   1.995   .     S
O774   Zn779   1.923   .     S
O775   Zn780   1.923   .     S
O776   Zn780   1.888   .     S
O777   Zn779   1.888   .     S
O778   C807    1.221   .     S
C781   O839    1.297   .     A
C781   O850    1.291   .     A
C781   C784    1.420   .     S
C782   H833    1.085   .     S
C782   C784    1.395   .     A
C782   C1051   1.382   .     S
C783   C792    1.418   .     S
C783   C818    1.394   .     A
C783   C817    1.403   .     A
C784   C816    1.404   .     A
C785   N838    1.387   .     A
C785   C811    1.471   .     S
C785   C865    1.423   .     S
C786   C812    1.472   .     S
C786   N837    1.387   .     A
C787   H834    1.082   .     S
C787   N837    1.359   .     A
C788   N838    1.359   .     A
C788   H835    1.082   .     S
C788   C864    1.424   .     S
C789   O852    1.304   .     A
C789   C791    1.457   .     S
C789   O854    1.302   .     A
C790   O853    1.304   .     A
C790   O855    1.300   .     A
C790   C793    1.453   .     S
C791   C798    1.406   .     A
C791   C796    1.395   .     A
C792   O849    1.296   .     A
C792   O851    1.292   .     A
C793   C799    1.407   .     A
C793   C797    1.397   .     A
C794   C796    1.409   .     A
C794   C809    1.484   .     S
C794   C802    1.418   .     A
C795   C804    1.420   .     A
C795   C810    1.484   .     S
C795   C797    1.400   .     A
C796   H829    1.083   .     S
C797   H819    1.084   .     S
C798   O842    1.382   .     S
C798   C800    1.395   .     A
C799   C801    1.399   .     A
C799   O841    1.385   .     S
C800   C805    1.408   .     A
C800   C802    1.407   .     A
C801   C806    1.409   .     A
C801   C804    1.414   .     A
C802   C112    1.413   1_556 S
C803   C806    1.414   .     A
C803   H830    1.081   .     S
C803   C814    1.400   .     A
C805   C813    1.409   .     A
C805   C104    1.413   1_556 S
C807   C814    1.480   .     S
C807   H836    1.086   .     S
C808   H820    1.074   .     S
C808   O840    1.222   .     D
C808   C815    1.482   .     S
C809   O843    1.222   .     D
C809   H121    1.082   1_556 S
C810   H824    1.085   .     S
C811   O847    1.217   .     D
C811   H827    1.086   .     S
C812   O848    1.217   .     D
C812   H828    1.086   .     S
C813   H831    1.080   .     S
C813   C815    1.399   .     A
C815   C102    1.418   1_556 S
C816   O845    1.383   .     S
C816   C1052   1.380   .     S
C817   O846    1.383   .     S
C817   C1250   1.382   1_545 S
C818   H832    1.085   .     S
C818   C1284   1.380   1_545 S
H821   O841    0.990   .     S
H822   O842    0.990   .     S
H825   O845    0.992   .     S
H826   O846    0.992   .     S
N837   Zn857   2.039   .     S
N838   Zn858   2.039   .     S
O839   Zn857   1.998   .     S
O844   C108    1.221   1_556 S
O849   Zn858   1.998   .     S
O850   Zn858   1.995   .     S
O851   Zn857   1.995   .     S
O852   Zn857   1.923   .     S
O853   Zn858   1.923   .     S
O854   Zn858   1.888   .     S
O855   Zn857   1.888   .     S
O856   C885    1.221   .     S
C859   O917    1.297   .     A
C859   O928    1.291   .     A
C859   C862    1.420   .     S
C860   H911    1.085   .     S
C860   C862    1.395   .     A
C860   C1129   1.382   .     S
C861   C870    1.418   .     S
C861   C896    1.394   .     A
C861   C895    1.403   .     A
C862   C894    1.404   .     A
C863   N916    1.387   .     A
C863   C889    1.471   .     S
C863   C709    1.423   1_655 S
C864   C890    1.472   .     S
C864   N915    1.387   .     A
C865   H912    1.082   .     S
C865   N915    1.359   .     A
C866   N916    1.359   .     A
C866   H913    1.082   .     S
C866   C708    1.424   1_655 S
C867   O930    1.304   .     A
C867   C869    1.457   .     S
C867   O932    1.302   .     A
C868   O931    1.304   .     A
C868   O933    1.300   .     A
C868   C871    1.453   .     S
C869   C876    1.406   .     A
C869   C874    1.395   .     A
C870   O927    1.296   .     A
C870   O929    1.292   .     A
C871   C877    1.407   .     A
C871   C875    1.397   .     A
C872   C874    1.409   .     A
C872   C887    1.484   .     S
C872   C880    1.418   .     A
C873   C882    1.420   .     A
C873   C888    1.484   .     S
C873   C875    1.400   .     A
C874   H907    1.083   .     S
C875   H897    1.084   .     S
C876   O920    1.382   .     S
C876   C878    1.395   .     A
C877   C879    1.399   .     A
C877   O919    1.385   .     S
C878   C883    1.408   .     A
C878   C880    1.407   .     A
C879   C884    1.409   .     A
C879   C882    1.414   .     A
C880   C190    1.413   1_556 S
C881   C884    1.414   .     A
C881   H908    1.081   .     S
C881   C892    1.400   .     A
C883   C891    1.409   .     A
C883   C182    1.413   1_556 S
C885   C892    1.480   .     S
C885   H914    1.086   .     S
C886   H898    1.074   .     S
C886   O918    1.222   .     D
C886   C893    1.482   .     S
C887   O921    1.222   .     D
C887   H199    1.082   1_556 S
C888   H902    1.085   .     S
C889   O925    1.217   .     D
C889   H905    1.086   .     S
C890   O926    1.217   .     D
C890   H906    1.086   .     S
C891   H909    1.080   .     S
C891   C893    1.399   .     A
C893   C180    1.418   1_556 S
C894   O923    1.383   .     S
C894   C1130   1.380   .     S
C895   O924    1.383   .     S
C895   C1328   1.382   1_545 S
C896   H910    1.085   .     S
C896   C1362   1.380   1_545 S
H899   O919    0.990   .     S
H900   O920    0.990   .     S
H903   O923    0.992   .     S
H904   O924    0.992   .     S
N915   Zn935   2.039   .     S
N916   Zn936   2.039   .     S
O917   Zn935   1.998   .     S
O922   C186    1.221   1_556 S
O927   Zn936   1.998   .     S
O928   Zn936   1.995   .     S
O929   Zn935   1.995   .     S
O930   Zn935   1.923   .     S
O931   Zn936   1.923   .     S
O932   Zn936   1.888   .     S
O933   Zn935   1.888   .     S
O934   C729    1.221   1_655 S
C937   O995    1.297   .     A
C937   O1006   1.291   .     A
C937   C940    1.420   .     S
C938   H989    1.085   .     S
C938   C940    1.395   .     A
C938   C1207   1.382   .     S
C939   C948    1.418   .     S
C939   C974    1.394   .     A
C939   C973    1.403   .     A
C940   C972    1.404   .     A
C941   N994    1.387   .     A
C941   C967    1.471   .     S
C941   C1021   1.423   .     S
C942   C968    1.472   .     S
C942   N993    1.387   .     A
C942   C1100   1.424   1_455 S
C943   H990    1.082   .     S
C943   N993    1.359   .     A
C943   C1097   1.423   1_455 S
C944   N994    1.359   .     A
C944   H991    1.082   .     S
C944   C1020   1.424   .     S
C945   O1008   1.304   .     A
C945   C947    1.457   .     S
C945   O1010   1.302   .     A
C946   O1009   1.304   .     A
C946   O1011   1.300   .     A
C946   C949    1.453   .     S
C947   C954    1.406   .     A
C947   C952    1.395   .     A
C948   O1005   1.296   .     A
C948   O1007   1.292   .     A
C949   C955    1.407   .     A
C949   C953    1.397   .     A
C950   C952    1.409   .     A
C950   C965    1.484   .     S
C950   C958    1.418   .     A
C951   C960    1.420   .     A
C951   C966    1.484   .     S
C951   C953    1.400   .     A
C952   H985    1.083   .     S
C953   H975    1.084   .     S
C954   O998    1.382   .     S
C954   C956    1.395   .     A
C955   C957    1.399   .     A
C955   O997    1.385   .     S
C956   C961    1.408   .     A
C956   C958    1.407   .     A
C957   C962    1.409   .     A
C957   C960    1.414   .     A
C958   C268    1.413   1_556 S
C959   C962    1.414   .     A
C959   H986    1.081   .     S
C959   C970    1.400   .     A
C961   C969    1.409   .     A
C961   C260    1.413   1_556 S
C963   C970    1.480   .     S
C963   H992    1.086   .     S
C963   O1168   1.221   1_455 S
C964   H976    1.074   .     S
C964   O996    1.222   .     D
C964   C971    1.482   .     S
C965   O999    1.222   .     D
C965   H277    1.082   1_556 S
C966   H980    1.085   .     S
C967   O1003   1.217   .     D
C967   H983    1.086   .     S
C968   O1004   1.217   .     D
C968   H984    1.086   .     S
C969   H987    1.080   .     S
C969   C971    1.399   .     A
C971   C258    1.418   1_556 S
C972   O1001   1.383   .     S
C972   C1208   1.380   .     S
C973   O1002   1.383   .     S
C974   H988    1.085   .     S
H977   O997    0.990   .     S
H978   O998    0.990   .     S
H981   O1001   0.992   .     S
H982   O1002   0.992   .     S
N993   Zn1013  2.039   .     S
N994   Zn1014  2.039   .     S
O995   Zn1013  1.998   .     S
O1000  C264    1.221   1_556 S
O1005  Zn1014  1.998   .     S
O1006  Zn1014  1.995   .     S
O1007  Zn1013  1.995   .     S
O1008  Zn1013  1.923   .     S
O1009  Zn1014  1.923   .     S
O1010  Zn1014  1.888   .     S
O1011  Zn1013  1.888   .     S
O1012  C1041   1.221   .     S
C1015  O1073   1.297   .     A
C1015  O1084   1.291   .     A
C1015  C1018   1.420   .     S
C1016  H1067   1.085   .     S
C1016  C1018   1.395   .     A
C1016  C1285   1.382   .     S
C1017  C1026   1.418   .     S
C1017  C1052   1.394   .     A
C1017  C1051   1.403   .     A
C1018  C1050   1.404   .     A
C1019  N1072   1.387   .     A
C1019  C1045   1.471   .     S
C1019  C1099   1.423   .     S
C1020  C1046   1.472   .     S
C1020  N1071   1.387   .     A
C1021  H1068   1.082   .     S
C1021  N1071   1.359   .     A
C1022  N1072   1.359   .     A
C1022  H1069   1.082   .     S
C1022  C1098   1.424   .     S
C1023  O1086   1.304   .     A
C1023  C1025   1.457   .     S
C1023  O1088   1.302   .     A
C1024  O1087   1.304   .     A
C1024  O1089   1.300   .     A
C1024  C1027   1.453   .     S
C1025  C1032   1.406   .     A
C1025  C1030   1.395   .     A
C1026  O1083   1.296   .     A
C1026  O1085   1.292   .     A
C1027  C1033   1.407   .     A
C1027  C1031   1.397   .     A
C1028  C1030   1.409   .     A
C1028  C1043   1.484   .     S
C1028  C1036   1.418   .     A
C1029  C1038   1.420   .     A
C1029  C1044   1.484   .     S
C1029  C1031   1.400   .     A
C1030  H1063   1.083   .     S
C1031  H1053   1.084   .     S
C1032  O1076   1.382   .     S
C1032  C1034   1.395   .     A
C1033  C1035   1.399   .     A
C1033  O1075   1.385   .     S
C1034  C1039   1.408   .     A
C1034  C1036   1.407   .     A
C1035  C1040   1.409   .     A
C1035  C1038   1.414   .     A
C1036  C346    1.413   1_556 S
C1037  C1040   1.414   .     A
C1037  H1064   1.081   .     S
C1037  C1048   1.400   .     A
C1039  C1047   1.409   .     A
C1039  C338    1.413   1_556 S
C1041  C1048   1.480   .     S
C1041  H1070   1.086   .     S
C1042  H1054   1.074   .     S
C1042  O1074   1.222   .     D
C1042  C1049   1.482   .     S
C1043  O1077   1.222   .     D
C1043  H355    1.082   1_556 S
C1044  H1058   1.085   .     S
C1045  O1081   1.217   .     D
C1045  H1061   1.086   .     S
C1046  O1082   1.217   .     D
C1046  H1062   1.086   .     S
C1047  H1065   1.080   .     S
C1047  C1049   1.399   .     A
C1049  C336    1.418   1_556 S
C1050  O1079   1.383   .     S
C1050  C1286   1.380   .     S
C1051  O1080   1.383   .     S
C1052  H1066   1.085   .     S
H1055  O1075   0.990   .     S
H1056  O1076   0.990   .     S
H1059  O1079   0.992   .     S
H1060  O1080   0.992   .     S
N1071  Zn1091  2.039   .     S
N1072  Zn1092  2.039   .     S
O1073  Zn1091  1.998   .     S
O1078  C342    1.221   1_556 S
O1083  Zn1092  1.998   .     S
O1084  Zn1092  1.995   .     S
O1085  Zn1091  1.995   .     S
O1086  Zn1091  1.923   .     S
O1087  Zn1092  1.923   .     S
O1088  Zn1092  1.888   .     S
O1089  Zn1091  1.888   .     S
O1090  C1119   1.221   .     S
C1093  O1151   1.297   .     A
C1093  O1162   1.291   .     A
C1093  C1096   1.420   .     S
C1094  H1145   1.085   .     S
C1094  C1096   1.395   .     A
C1094  C1363   1.382   .     S
C1095  C1104   1.418   .     S
C1095  C1130   1.394   .     A
C1095  C1129   1.403   .     A
C1096  C1128   1.404   .     A
C1097  N1150   1.387   .     A
C1097  C1123   1.471   .     S
C1097  C943    1.423   1_655 S
C1098  C1124   1.472   .     S
C1098  N1149   1.387   .     A
C1099  H1146   1.082   .     S
C1099  N1149   1.359   .     A
C1100  N1150   1.359   .     A
C1100  H1147   1.082   .     S
C1100  C942    1.424   1_655 S
C1101  O1164   1.304   .     A
C1101  C1103   1.457   .     S
C1101  O1166   1.302   .     A
C1102  O1165   1.304   .     A
C1102  O1167   1.300   .     A
C1102  C1105   1.453   .     S
C1103  C1110   1.406   .     A
C1103  C1108   1.395   .     A
C1104  O1161   1.296   .     A
C1104  O1163   1.292   .     A
C1105  C1111   1.407   .     A
C1105  C1109   1.397   .     A
C1106  C1108   1.409   .     A
C1106  C1121   1.484   .     S
C1106  C1114   1.418   .     A
C1107  C1116   1.420   .     A
C1107  C1122   1.484   .     S
C1107  C1109   1.400   .     A
C1108  H1141   1.083   .     S
C1109  H1131   1.084   .     S
C1110  O1154   1.382   .     S
C1110  C1112   1.395   .     A
C1111  C1113   1.399   .     A
C1111  O1153   1.385   .     S
C1112  C1117   1.408   .     A
C1112  C1114   1.407   .     A
C1113  C1118   1.409   .     A
C1113  C1116   1.414   .     A
C1114  C424    1.413   1_556 S
C1115  C1118   1.414   .     A
C1115  H1142   1.081   .     S
C1115  C1126   1.400   .     A
C1117  C1125   1.409   .     A
C1117  C416    1.413   1_556 S
C1119  C1126   1.480   .     S
C1119  H1148   1.086   .     S
C1120  H1132   1.074   .     S
C1120  O1152   1.222   .     D
C1120  C1127   1.482   .     S
C1121  O1155   1.222   .     D
C1121  H433    1.082   1_556 S
C1122  H1136   1.085   .     S
C1123  O1159   1.217   .     D
C1123  H1139   1.086   .     S
C1124  O1160   1.217   .     D
C1124  H1140   1.086   .     S
C1125  H1143   1.080   .     S
C1125  C1127   1.399   .     A
C1127  C414    1.418   1_556 S
C1128  O1157   1.383   .     S
C1128  C1364   1.380   .     S
C1129  O1158   1.383   .     S
C1130  H1144   1.085   .     S
H1133  O1153   0.990   .     S
H1134  O1154   0.990   .     S
H1137  O1157   0.992   .     S
H1138  O1158   0.992   .     S
N1149  Zn1169  2.039   .     S
N1150  Zn1170  2.039   .     S
O1151  Zn1169  1.998   .     S
O1156  C420    1.221   1_556 S
O1161  Zn1170  1.998   .     S
O1162  Zn1170  1.995   .     S
O1163  Zn1169  1.995   .     S
O1164  Zn1169  1.923   .     S
O1165  Zn1170  1.923   .     S
O1166  Zn1170  1.888   .     S
O1167  Zn1169  1.888   .     S
O1168  C963    1.221   1_655 S
C1171  O1229   1.297   .     A
C1171  O1240   1.291   .     A
C1171  C1174   1.420   .     S
C1172  H1223   1.085   .     S
C1172  C1174   1.395   .     A
C1172  C739    1.382   1_565 S
C1173  C1182   1.418   .     S
C1173  C1208   1.394   .     A
C1173  C1207   1.403   .     A
C1174  C1206   1.404   .     A
C1175  N1228   1.387   .     A
C1175  C1201   1.471   .     S
C1175  C1255   1.423   .     S
C1176  C1202   1.472   .     S
C1176  N1227   1.387   .     A
C1176  C1334   1.424   1_455 S
C1177  H1224   1.082   .     S
C1177  N1227   1.359   .     A
C1177  C1331   1.423   1_455 S
C1178  N1228   1.359   .     A
C1178  H1225   1.082   .     S
C1178  C1254   1.424   .     S
C1179  O1242   1.304   .     A
C1179  C1181   1.457   .     S
C1179  O1244   1.302   .     A
C1180  O1243   1.304   .     A
C1180  O1245   1.300   .     A
C1180  C1183   1.453   .     S
C1181  C1188   1.406   .     A
C1181  C1186   1.395   .     A
C1182  O1239   1.296   .     A
C1182  O1241   1.292   .     A
C1183  C1189   1.407   .     A
C1183  C1187   1.397   .     A
C1184  C1186   1.409   .     A
C1184  C1199   1.484   .     S
C1184  C1192   1.418   .     A
C1185  C1194   1.420   .     A
C1185  C1200   1.484   .     S
C1185  C1187   1.400   .     A
C1186  H1219   1.083   .     S
C1187  H1209   1.084   .     S
C1188  O1232   1.382   .     S
C1188  C1190   1.395   .     A
C1189  C1191   1.399   .     A
C1189  O1231   1.385   .     S
C1190  C1195   1.408   .     A
C1190  C1192   1.407   .     A
C1191  C1196   1.409   .     A
C1191  C1194   1.414   .     A
C1192  C502    1.413   1_556 S
C1193  C1196   1.414   .     A
C1193  H1220   1.081   .     S
C1193  C1204   1.400   .     A
C1195  C1203   1.409   .     A
C1195  C494    1.413   1_556 S
C1197  C1204   1.480   .     S
C1197  H1226   1.086   .     S
C1197  O1402   1.221   1_455 S
C1198  H1210   1.074   .     S
C1198  O1230   1.222   .     D
C1198  C1205   1.482   .     S
C1199  O1233   1.222   .     D
C1199  H511    1.082   1_556 S
C1200  H1214   1.085   .     S
C1201  O1237   1.217   .     D
C1201  H1217   1.086   .     S
C1202  O1238   1.217   .     D
C1202  H1218   1.086   .     S
C1203  H1221   1.080   .     S
C1203  C1205   1.399   .     A
C1205  C492    1.418   1_556 S
C1206  O1235   1.383   .     S
C1206  C740    1.380   1_565 S
C1207  O1236   1.383   .     S
C1208  H1222   1.085   .     S
H1211  O1231   0.990   .     S
H1212  O1232   0.990   .     S
H1215  O1235   0.992   .     S
H1216  O1236   0.992   .     S
N1227  Zn1247  2.039   .     S
N1228  Zn1248  2.039   .     S
O1229  Zn1247  1.998   .     S
O1234  C498    1.221   1_556 S
O1239  Zn1248  1.998   .     S
O1240  Zn1248  1.995   .     S
O1241  Zn1247  1.995   .     S
O1242  Zn1247  1.923   .     S
O1243  Zn1248  1.923   .     S
O1244  Zn1248  1.888   .     S
O1245  Zn1247  1.888   .     S
O1246  C1275   1.221   .     S
C1249  O1307   1.297   .     A
C1249  O1318   1.291   .     A
C1249  C1252   1.420   .     S
C1250  H1301   1.085   .     S
C1250  C1252   1.395   .     A
C1250  C817    1.382   1_565 S
C1251  C1260   1.418   .     S
C1251  C1286   1.394   .     A
C1251  C1285   1.403   .     A
C1252  C1284   1.404   .     A
C1253  N1306   1.387   .     A
C1253  C1279   1.471   .     S
C1253  C1333   1.423   .     S
C1254  C1280   1.472   .     S
C1254  N1305   1.387   .     A
C1255  H1302   1.082   .     S
C1255  N1305   1.359   .     A
C1256  N1306   1.359   .     A
C1256  H1303   1.082   .     S
C1256  C1332   1.424   .     S
C1257  O1320   1.304   .     A
C1257  C1259   1.457   .     S
C1257  O1322   1.302   .     A
C1258  O1321   1.304   .     A
C1258  O1323   1.300   .     A
C1258  C1261   1.453   .     S
C1259  C1266   1.406   .     A
C1259  C1264   1.395   .     A
C1260  O1317   1.296   .     A
C1260  O1319   1.292   .     A
C1261  C1267   1.407   .     A
C1261  C1265   1.397   .     A
C1262  C1264   1.409   .     A
C1262  C1277   1.484   .     S
C1262  C1270   1.418   .     A
C1263  C1272   1.420   .     A
C1263  C1278   1.484   .     S
C1263  C1265   1.400   .     A
C1264  H1297   1.083   .     S
C1265  H1287   1.084   .     S
C1266  O1310   1.382   .     S
C1266  C1268   1.395   .     A
C1267  C1269   1.399   .     A
C1267  O1309   1.385   .     S
C1268  C1273   1.408   .     A
C1268  C1270   1.407   .     A
C1269  C1274   1.409   .     A
C1269  C1272   1.414   .     A
C1270  C580    1.413   1_556 S
C1271  C1274   1.414   .     A
C1271  H1298   1.081   .     S
C1271  C1282   1.400   .     A
C1273  C1281   1.409   .     A
C1273  C572    1.413   1_556 S
C1275  C1282   1.480   .     S
C1275  H1304   1.086   .     S
C1276  H1288   1.074   .     S
C1276  O1308   1.222   .     D
C1276  C1283   1.482   .     S
C1277  O1311   1.222   .     D
C1277  H589    1.082   1_556 S
C1278  H1292   1.085   .     S
C1279  O1315   1.217   .     D
C1279  H1295   1.086   .     S
C1280  O1316   1.217   .     D
C1280  H1296   1.086   .     S
C1281  H1299   1.080   .     S
C1281  C1283   1.399   .     A
C1283  C570    1.418   1_556 S
C1284  O1313   1.383   .     S
C1284  C818    1.380   1_565 S
C1285  O1314   1.383   .     S
C1286  H1300   1.085   .     S
H1289  O1309   0.990   .     S
H1290  O1310   0.990   .     S
H1293  O1313   0.992   .     S
H1294  O1314   0.992   .     S
N1305  Zn1325  2.039   .     S
N1306  Zn1326  2.039   .     S
O1307  Zn1325  1.998   .     S
O1312  C576    1.221   1_556 S
O1317  Zn1326  1.998   .     S
O1318  Zn1326  1.995   .     S
O1319  Zn1325  1.995   .     S
O1320  Zn1325  1.923   .     S
O1321  Zn1326  1.923   .     S
O1322  Zn1326  1.888   .     S
O1323  Zn1325  1.888   .     S
O1324  C1353   1.221   .     S
C1327  O1385   1.297   .     A
C1327  O1396   1.291   .     A
C1327  C1330   1.420   .     S
C1328  H1379   1.085   .     S
C1328  C1330   1.395   .     A
C1328  C895    1.382   1_565 S
C1329  C1338   1.418   .     S
C1329  C1364   1.394   .     A
C1329  C1363   1.403   .     A
C1330  C1362   1.404   .     A
C1331  N1384   1.387   .     A
C1331  C1357   1.471   .     S
C1331  C1177   1.423   1_655 S
C1332  C1358   1.472   .     S
C1332  N1383   1.387   .     A
C1333  H1380   1.082   .     S
C1333  N1383   1.359   .     A
C1334  N1384   1.359   .     A
C1334  H1381   1.082   .     S
C1334  C1176   1.424   1_655 S
C1335  O1398   1.304   .     A
C1335  C1337   1.457   .     S
C1335  O1400   1.302   .     A
C1336  O1399   1.304   .     A
C1336  O1401   1.300   .     A
C1336  C1339   1.453   .     S
C1337  C1344   1.406   .     A
C1337  C1342   1.395   .     A
C1338  O1395   1.296   .     A
C1338  O1397   1.292   .     A
C1339  C1345   1.407   .     A
C1339  C1343   1.397   .     A
C1340  C1342   1.409   .     A
C1340  C1355   1.484   .     S
C1340  C1348   1.418   .     A
C1341  C1350   1.420   .     A
C1341  C1356   1.484   .     S
C1341  C1343   1.400   .     A
C1342  H1375   1.083   .     S
C1343  H1365   1.084   .     S
C1344  O1388   1.382   .     S
C1344  C1346   1.395   .     A
C1345  C1347   1.399   .     A
C1345  O1387   1.385   .     S
C1346  C1351   1.408   .     A
C1346  C1348   1.407   .     A
C1347  C1352   1.409   .     A
C1347  C1350   1.414   .     A
C1348  C658    1.413   1_556 S
C1349  C1352   1.414   .     A
C1349  H1376   1.081   .     S
C1349  C1360   1.400   .     A
C1351  C1359   1.409   .     A
C1351  C650    1.413   1_556 S
C1353  C1360   1.480   .     S
C1353  H1382   1.086   .     S
C1354  H1366   1.074   .     S
C1354  O1386   1.222   .     D
C1354  C1361   1.482   .     S
C1355  O1389   1.222   .     D
C1355  H667    1.082   1_556 S
C1356  H1370   1.085   .     S
C1357  O1393   1.217   .     D
C1357  H1373   1.086   .     S
C1358  O1394   1.217   .     D
C1358  H1374   1.086   .     S
C1359  H1377   1.080   .     S
C1359  C1361   1.399   .     A
C1361  C648    1.418   1_556 S
C1362  O1391   1.383   .     S
C1362  C896    1.380   1_565 S
C1363  O1392   1.383   .     S
C1364  H1378   1.085   .     S
H1367  O1387   0.990   .     S
H1368  O1388   0.990   .     S
H1371  O1391   0.992   .     S
H1372  O1392   0.992   .     S
N1383  Zn1403  2.039   .     S
N1384  Zn1404  2.039   .     S
O1385  Zn1403  1.998   .     S
O1390  C654    1.221   1_556 S
O1395  Zn1404  1.998   .     S
O1396  Zn1404  1.995   .     S
O1397  Zn1403  1.995   .     S
O1398  Zn1403  1.923   .     S
O1399  Zn1404  1.923   .     S
O1400  Zn1404  1.888   .     S
O1401  Zn1403  1.888   .     S
O1402  C1197   1.221   1_655 S
