data_str_m3_o1_o10_pcu_sym.32
_audit_creation_date              2020-01-03
_audit_creation_method            'Materials Studio'
_symmetry_space_group_name_H-M    'P1'
_symmetry_Int_Tables_number       1
_symmetry_cell_setting            triclinic
loop_
_symmetry_equiv_pos_as_xyz
  x,y,z
_cell_length_a                    25.7556
_cell_length_b                    32.0322
_cell_length_c                    29.7100
_cell_angle_alpha                 92.9270
_cell_angle_beta                  99.6094
_cell_angle_gamma                 90.8347
loop_
_atom_site_label
_atom_site_type_symbol
_atom_site_fract_x
_atom_site_fract_y
_atom_site_fract_z
_atom_site_U_iso_or_equiv
_atom_site_adp_type
_atom_site_occupancy
C1     C     0.16695   0.08670   0.16576   0.00000  Uiso   1.00
C2     C     0.13324   0.02314   0.19067   0.00000  Uiso   1.00
C3     C     0.16659   0.29072   0.16917   0.00000  Uiso   1.00
C4     C     0.16606   0.04238   0.16436   0.00000  Uiso   1.00
C5     C     0.19044   0.19837   0.02965   0.00000  Uiso   1.00
C6     C     0.14259   0.13520   0.30339   0.00000  Uiso   1.00
C7     C     0.19397   0.19714   0.31577   0.00000  Uiso   1.00
C8     C     0.14500   0.13341   0.01806   0.00000  Uiso   1.00
C9     C     0.31667   0.14647   0.09382   0.00000  Uiso   1.00
C10    C     0.01024   0.12259   0.05901   0.00000  Uiso   1.00
C11    C     0.00897   0.12333   0.22383   0.00000  Uiso   1.00
C12    C     0.16606   0.24653   0.16758   0.00000  Uiso   1.00
C13    C     0.30694   0.08639   0.23147   0.00000  Uiso   1.00
C14    C     0.23585   0.03742   0.11464   0.00000  Uiso   1.00
C15    C     0.09783   0.29426   0.21947   0.00000  Uiso   1.00
C16    C     0.23066   0.22885   0.30075   0.00000  Uiso   1.00
C17    C     0.28735   0.22537   0.32557   0.00000  Uiso   1.00
C18    C     0.12996   0.09269   0.03657   0.00000  Uiso   1.00
C19    C     0.09580   0.06150   0.00310   0.00000  Uiso   1.00
C20    C     0.06715   0.16066   0.15384   0.00000  Uiso   1.00
C21    C     0.26599   0.16135   0.17799   0.00000  Uiso   1.00
C22    C     0.01165   0.14844   0.14441   0.00000  Uiso   1.00
C23    C     0.31931   0.14584   0.18116   0.00000  Uiso   1.00
C24    C     0.19944   0.01915   0.14040   0.00000  Uiso   1.00
C25    C     0.13331   0.31370   0.19339   0.00000  Uiso   1.00
C26    C     0.19938   0.30988   0.14310   0.00000  Uiso   1.00
H27    H     0.22523   0.29140   0.12500   0.00000  Uiso   1.00
H28    H     0.27082   0.09725   0.24372   0.00000  Uiso   1.00
H29    H     0.29592   0.06670   0.19938   0.00000  Uiso   1.00
H30    H     0.32815   0.06652   0.25764   0.00000  Uiso   1.00
H31    H     0.04742   0.10950   0.22041   0.00000  Uiso   1.00
H32    H     0.01456   0.14557   0.25430   0.00000  Uiso   1.00
H33    H     0.29080   0.23539   0.02893   0.00000  Uiso   1.00
H34    H     0.30074   0.19270   0.32231   0.00000  Uiso   1.00
H35    H     0.31376   0.24604   0.31013   0.00000  Uiso   1.00
H36    H     0.23273   0.22432   0.26450   0.00000  Uiso   1.00
H37    H     0.21646   0.26089   0.30692   0.00000  Uiso   1.00
H38    H     0.10754   0.04158   0.20894   0.00000  Uiso   1.00
H39    H     0.06038   0.07711   0.31926   0.00000  Uiso   1.00
H40    H     0.11844   0.04779   0.31081   0.00000  Uiso   1.00
H41    H     0.08274   0.03547   0.02218   0.00000  Uiso   1.00
H42    H     0.16665   0.07685   0.05042   0.00000  Uiso   1.00
H43    H     0.10755   0.09984   0.06393   0.00000  Uiso   1.00
H44    H     0.20952   0.22347   0.05249   0.00000  Uiso   1.00
H45    H     0.12449   0.11042   0.27986   0.00000  Uiso   1.00
H46    H     0.04037   0.14264   0.04758   0.00000  Uiso   1.00
H47    H     0.02607   0.09318   0.07341   0.00000  Uiso   1.00
H48    H     0.31442   0.11397   0.02775   0.00000  Uiso   1.00
H49    H     0.27930   0.12827   0.08988   0.00000  Uiso   1.00
H50    H     0.30861   0.17863   0.08262   0.00000  Uiso   1.00
N51    N     0.16665   0.16666   0.28573   0.00000  Uiso   1.00
N52    N     0.16668   0.16668   0.04760   0.00000  Uiso   1.00
N53    N     0.26546   0.05107   0.09371   0.00000  Uiso   1.00
N54    N     0.06944   0.27870   0.24034   0.00000  Uiso   1.00
O55    O     0.16666   0.10558   0.20487   0.00000  Uiso   1.00
O56    O     0.16667   0.22775   0.12846   0.00000  Uiso   1.00
O57    O     0.16666   0.10559   0.12843   0.00000  Uiso   1.00
O58    O     0.16667   0.22774   0.20490   0.00000  Uiso   1.00
O59    O     0.09058   0.16666   0.19595   0.00000  Uiso   1.00
O60    O     0.24275   0.16667   0.13739   0.00000  Uiso   1.00
O61    O     0.09058   0.16667   0.11950   0.00000  Uiso   1.00
O62    O     0.24275   0.16666   0.21383   0.00000  Uiso   1.00
Zn63   Zn    0.16667   0.16666   0.21771   0.00000  Uiso   1.00
Zn64   Zn    0.16667   0.16667   0.11563   0.00000  Uiso   1.00
C65    C     0.50028   0.08670   0.16576   0.00000  Uiso   1.00
C66    C     0.46657   0.02314   0.19067   0.00000  Uiso   1.00
C67    C     0.49992   0.29072   0.16917   0.00000  Uiso   1.00
C68    C     0.49940   0.04238   0.16436   0.00000  Uiso   1.00
C69    C     0.52377   0.19837   0.02965   0.00000  Uiso   1.00
C70    C     0.47592   0.13520   0.30339   0.00000  Uiso   1.00
C71    C     0.52730   0.19714   0.31577   0.00000  Uiso   1.00
C72    C     0.47834   0.13341   0.01806   0.00000  Uiso   1.00
C73    C     0.65000   0.14647   0.09382   0.00000  Uiso   1.00
C74    C     0.34358   0.12259   0.05901   0.00000  Uiso   1.00
C75    C     0.34230   0.12333   0.22383   0.00000  Uiso   1.00
C76    C     0.49939   0.24653   0.16758   0.00000  Uiso   1.00
C77    C     0.64027   0.08639   0.23147   0.00000  Uiso   1.00
C78    C     0.56918   0.03742   0.11464   0.00000  Uiso   1.00
C79    C     0.43117   0.29426   0.21947   0.00000  Uiso   1.00
C80    C     0.56399   0.22885   0.30075   0.00000  Uiso   1.00
C81    C     0.62068   0.22537   0.32557   0.00000  Uiso   1.00
C82    C     0.46330   0.09269   0.03657   0.00000  Uiso   1.00
C83    C     0.42914   0.06150   0.00310   0.00000  Uiso   1.00
C84    C     0.40049   0.16066   0.15384   0.00000  Uiso   1.00
C85    C     0.59933   0.16135   0.17799   0.00000  Uiso   1.00
C86    C     0.34498   0.14844   0.14441   0.00000  Uiso   1.00
C87    C     0.65264   0.14584   0.18116   0.00000  Uiso   1.00
C88    C     0.53277   0.01915   0.14040   0.00000  Uiso   1.00
C89    C     0.46665   0.31370   0.19339   0.00000  Uiso   1.00
C90    C     0.53272   0.30988   0.14310   0.00000  Uiso   1.00
H91    H     0.55856   0.29140   0.12500   0.00000  Uiso   1.00
H92    H     0.60415   0.09725   0.24372   0.00000  Uiso   1.00
H93    H     0.62926   0.06670   0.19938   0.00000  Uiso   1.00
H94    H     0.66148   0.06652   0.25764   0.00000  Uiso   1.00
H95    H     0.38075   0.10950   0.22041   0.00000  Uiso   1.00
H96    H     0.34790   0.14557   0.25430   0.00000  Uiso   1.00
H97    H     0.62413   0.23539   0.02893   0.00000  Uiso   1.00
H98    H     0.63407   0.19270   0.32231   0.00000  Uiso   1.00
H99    H     0.64709   0.24604   0.31013   0.00000  Uiso   1.00
H100   H     0.56607   0.22432   0.26450   0.00000  Uiso   1.00
H101   H     0.54979   0.26089   0.30692   0.00000  Uiso   1.00
H102   H     0.44087   0.04158   0.20894   0.00000  Uiso   1.00
H103   H     0.39371   0.07711   0.31926   0.00000  Uiso   1.00
H104   H     0.45178   0.04779   0.31081   0.00000  Uiso   1.00
H105   H     0.41607   0.03547   0.02218   0.00000  Uiso   1.00
H106   H     0.49998   0.07685   0.05042   0.00000  Uiso   1.00
H107   H     0.44088   0.09984   0.06393   0.00000  Uiso   1.00
H108   H     0.54285   0.22347   0.05249   0.00000  Uiso   1.00
H109   H     0.45782   0.11042   0.27986   0.00000  Uiso   1.00
H110   H     0.37370   0.14264   0.04758   0.00000  Uiso   1.00
H111   H     0.35940   0.09318   0.07341   0.00000  Uiso   1.00
H112   H     0.64776   0.11397   0.02775   0.00000  Uiso   1.00
H113   H     0.61264   0.12827   0.08988   0.00000  Uiso   1.00
H114   H     0.64195   0.17863   0.08262   0.00000  Uiso   1.00
N115   N     0.49999   0.16666   0.28573   0.00000  Uiso   1.00
N116   N     0.50001   0.16668   0.04760   0.00000  Uiso   1.00
N117   N     0.59879   0.05107   0.09371   0.00000  Uiso   1.00
N118   N     0.40278   0.27870   0.24034   0.00000  Uiso   1.00
O119   O     0.50000   0.10558   0.20487   0.00000  Uiso   1.00
O120   O     0.50000   0.22775   0.12846   0.00000  Uiso   1.00
O121   O     0.50000   0.10559   0.12843   0.00000  Uiso   1.00
O122   O     0.50000   0.22774   0.20490   0.00000  Uiso   1.00
O123   O     0.42392   0.16666   0.19595   0.00000  Uiso   1.00
O124   O     0.57608   0.16667   0.13739   0.00000  Uiso   1.00
O125   O     0.42392   0.16667   0.11950   0.00000  Uiso   1.00
O126   O     0.57608   0.16666   0.21383   0.00000  Uiso   1.00
Zn127  Zn    0.50000   0.16666   0.21771   0.00000  Uiso   1.00
Zn128  Zn    0.50000   0.16667   0.11563   0.00000  Uiso   1.00
C129   C     0.83361   0.08670   0.16576   0.00000  Uiso   1.00
C130   C     0.79991   0.02314   0.19067   0.00000  Uiso   1.00
C131   C     0.83326   0.29072   0.16917   0.00000  Uiso   1.00
C132   C     0.83273   0.04238   0.16436   0.00000  Uiso   1.00
C133   C     0.85710   0.19837   0.02965   0.00000  Uiso   1.00
C134   C     0.80926   0.13520   0.30339   0.00000  Uiso   1.00
C135   C     0.86063   0.19714   0.31577   0.00000  Uiso   1.00
C136   C     0.81167   0.13341   0.01806   0.00000  Uiso   1.00
C137   C     0.98334   0.14647   0.09382   0.00000  Uiso   1.00
C138   C     0.67691   0.12259   0.05901   0.00000  Uiso   1.00
C139   C     0.67564   0.12333   0.22383   0.00000  Uiso   1.00
C140   C     0.83273   0.24653   0.16758   0.00000  Uiso   1.00
C141   C     0.97360   0.08639   0.23147   0.00000  Uiso   1.00
C142   C     0.90251   0.03742   0.11464   0.00000  Uiso   1.00
C143   C     0.76450   0.29426   0.21947   0.00000  Uiso   1.00
C144   C     0.89733   0.22885   0.30075   0.00000  Uiso   1.00
C145   C     0.95402   0.22537   0.32557   0.00000  Uiso   1.00
C146   C     0.79663   0.09269   0.03657   0.00000  Uiso   1.00
C147   C     0.76247   0.06150   0.00310   0.00000  Uiso   1.00
C148   C     0.73382   0.16066   0.15384   0.00000  Uiso   1.00
C149   C     0.93266   0.16135   0.17799   0.00000  Uiso   1.00
C150   C     0.67832   0.14844   0.14441   0.00000  Uiso   1.00
C151   C     0.98598   0.14584   0.18116   0.00000  Uiso   1.00
C152   C     0.86611   0.01915   0.14040   0.00000  Uiso   1.00
C153   C     0.79998   0.31370   0.19339   0.00000  Uiso   1.00
C154   C     0.86605   0.30988   0.14310   0.00000  Uiso   1.00
H155   H     0.89189   0.29140   0.12500   0.00000  Uiso   1.00
H156   H     0.93748   0.09725   0.24372   0.00000  Uiso   1.00
H157   H     0.96259   0.06670   0.19938   0.00000  Uiso   1.00
H158   H     0.99482   0.06652   0.25764   0.00000  Uiso   1.00
H159   H     0.71409   0.10950   0.22041   0.00000  Uiso   1.00
H160   H     0.68123   0.14557   0.25430   0.00000  Uiso   1.00
H161   H     0.95747   0.23539   0.02893   0.00000  Uiso   1.00
H162   H     0.96741   0.19270   0.32231   0.00000  Uiso   1.00
H163   H     0.98043   0.24604   0.31013   0.00000  Uiso   1.00
H164   H     0.89940   0.22432   0.26450   0.00000  Uiso   1.00
H165   H     0.88313   0.26089   0.30692   0.00000  Uiso   1.00
H166   H     0.77420   0.04158   0.20894   0.00000  Uiso   1.00
H167   H     0.72704   0.07711   0.31926   0.00000  Uiso   1.00
H168   H     0.78511   0.04779   0.31081   0.00000  Uiso   1.00
H169   H     0.74941   0.03547   0.02218   0.00000  Uiso   1.00
H170   H     0.83331   0.07685   0.05042   0.00000  Uiso   1.00
H171   H     0.77421   0.09984   0.06393   0.00000  Uiso   1.00
H172   H     0.87619   0.22347   0.05249   0.00000  Uiso   1.00
H173   H     0.79116   0.11042   0.27986   0.00000  Uiso   1.00
H174   H     0.70703   0.14264   0.04758   0.00000  Uiso   1.00
H175   H     0.69273   0.09318   0.07341   0.00000  Uiso   1.00
H176   H     0.98109   0.11397   0.02775   0.00000  Uiso   1.00
H177   H     0.94597   0.12827   0.08988   0.00000  Uiso   1.00
H178   H     0.97528   0.17863   0.08262   0.00000  Uiso   1.00
N179   N     0.83332   0.16666   0.28573   0.00000  Uiso   1.00
N180   N     0.83335   0.16668   0.04760   0.00000  Uiso   1.00
N181   N     0.93212   0.05107   0.09371   0.00000  Uiso   1.00
N182   N     0.73611   0.27870   0.24034   0.00000  Uiso   1.00
O183   O     0.83333   0.10558   0.20487   0.00000  Uiso   1.00
O184   O     0.83334   0.22775   0.12846   0.00000  Uiso   1.00
O185   O     0.83333   0.10559   0.12843   0.00000  Uiso   1.00
O186   O     0.83334   0.22774   0.20490   0.00000  Uiso   1.00
O187   O     0.75725   0.16666   0.19595   0.00000  Uiso   1.00
O188   O     0.90942   0.16667   0.13739   0.00000  Uiso   1.00
O189   O     0.75725   0.16667   0.11950   0.00000  Uiso   1.00
O190   O     0.90942   0.16666   0.21383   0.00000  Uiso   1.00
Zn191  Zn    0.83333   0.16666   0.21771   0.00000  Uiso   1.00
Zn192  Zn    0.83333   0.16667   0.11563   0.00000  Uiso   1.00
C193   C     0.16695   0.42003   0.16576   0.00000  Uiso   1.00
C194   C     0.13324   0.35648   0.19067   0.00000  Uiso   1.00
C195   C     0.16659   0.62405   0.16917   0.00000  Uiso   1.00
C196   C     0.16606   0.37572   0.16436   0.00000  Uiso   1.00
C197   C     0.19044   0.53170   0.02965   0.00000  Uiso   1.00
C198   C     0.14259   0.46854   0.30339   0.00000  Uiso   1.00
C199   C     0.19397   0.53047   0.31577   0.00000  Uiso   1.00
C200   C     0.14500   0.46674   0.01806   0.00000  Uiso   1.00
C201   C     0.31667   0.47980   0.09382   0.00000  Uiso   1.00
C202   C     0.01024   0.45592   0.05901   0.00000  Uiso   1.00
C203   C     0.00897   0.45666   0.22383   0.00000  Uiso   1.00
C204   C     0.16606   0.57987   0.16758   0.00000  Uiso   1.00
C205   C     0.30694   0.41973   0.23147   0.00000  Uiso   1.00
C206   C     0.23585   0.37076   0.11464   0.00000  Uiso   1.00
C207   C     0.09783   0.62759   0.21947   0.00000  Uiso   1.00
C208   C     0.23066   0.56218   0.30075   0.00000  Uiso   1.00
C209   C     0.28735   0.55870   0.32557   0.00000  Uiso   1.00
C210   C     0.12996   0.42602   0.03657   0.00000  Uiso   1.00
C211   C     0.09580   0.39483   0.00310   0.00000  Uiso   1.00
C212   C     0.06715   0.49399   0.15384   0.00000  Uiso   1.00
C213   C     0.26599   0.49468   0.17799   0.00000  Uiso   1.00
C214   C     0.01165   0.48177   0.14441   0.00000  Uiso   1.00
C215   C     0.31931   0.47918   0.18116   0.00000  Uiso   1.00
C216   C     0.19944   0.35249   0.14040   0.00000  Uiso   1.00
C217   C     0.13331   0.64703   0.19339   0.00000  Uiso   1.00
C218   C     0.19938   0.64321   0.14310   0.00000  Uiso   1.00
H219   H     0.22523   0.62474   0.12500   0.00000  Uiso   1.00
H220   H     0.27082   0.43058   0.24372   0.00000  Uiso   1.00
H221   H     0.29592   0.40004   0.19938   0.00000  Uiso   1.00
H222   H     0.32815   0.39986   0.25764   0.00000  Uiso   1.00
H223   H     0.04742   0.44283   0.22041   0.00000  Uiso   1.00
H224   H     0.01456   0.47890   0.25430   0.00000  Uiso   1.00
H225   H     0.29080   0.56872   0.02893   0.00000  Uiso   1.00
H226   H     0.30074   0.52603   0.32231   0.00000  Uiso   1.00
H227   H     0.31376   0.57937   0.31013   0.00000  Uiso   1.00
H228   H     0.23273   0.55765   0.26450   0.00000  Uiso   1.00
H229   H     0.21646   0.59422   0.30692   0.00000  Uiso   1.00
H230   H     0.10754   0.37491   0.20894   0.00000  Uiso   1.00
H231   H     0.06038   0.41044   0.31926   0.00000  Uiso   1.00
H232   H     0.11844   0.38113   0.31081   0.00000  Uiso   1.00
H233   H     0.08274   0.36880   0.02218   0.00000  Uiso   1.00
H234   H     0.16665   0.41019   0.05042   0.00000  Uiso   1.00
H235   H     0.10755   0.43317   0.06393   0.00000  Uiso   1.00
H236   H     0.20952   0.55680   0.05249   0.00000  Uiso   1.00
H237   H     0.12449   0.44376   0.27986   0.00000  Uiso   1.00
H238   H     0.04037   0.47597   0.04758   0.00000  Uiso   1.00
H239   H     0.02607   0.42651   0.07341   0.00000  Uiso   1.00
H240   H     0.31442   0.44731   0.02775   0.00000  Uiso   1.00
H241   H     0.27930   0.46160   0.08988   0.00000  Uiso   1.00
H242   H     0.30861   0.51197   0.08262   0.00000  Uiso   1.00
N243   N     0.16665   0.49999   0.28573   0.00000  Uiso   1.00
N244   N     0.16668   0.50001   0.04760   0.00000  Uiso   1.00
N245   N     0.26546   0.38440   0.09371   0.00000  Uiso   1.00
N246   N     0.06944   0.61204   0.24034   0.00000  Uiso   1.00
O247   O     0.16666   0.43892   0.20487   0.00000  Uiso   1.00
O248   O     0.16667   0.56108   0.12846   0.00000  Uiso   1.00
O249   O     0.16666   0.43893   0.12843   0.00000  Uiso   1.00
O250   O     0.16667   0.56107   0.20490   0.00000  Uiso   1.00
O251   O     0.09058   0.50000   0.19595   0.00000  Uiso   1.00
O252   O     0.24275   0.50000   0.13739   0.00000  Uiso   1.00
O253   O     0.09058   0.50000   0.11950   0.00000  Uiso   1.00
O254   O     0.24275   0.50000   0.21383   0.00000  Uiso   1.00
Zn255  Zn    0.16667   0.49999   0.21771   0.00000  Uiso   1.00
Zn256  Zn    0.16667   0.50001   0.11563   0.00000  Uiso   1.00
C257   C     0.50028   0.42003   0.16576   0.00000  Uiso   1.00
C258   C     0.46657   0.35648   0.19067   0.00000  Uiso   1.00
C259   C     0.49992   0.62405   0.16917   0.00000  Uiso   1.00
C260   C     0.49940   0.37572   0.16436   0.00000  Uiso   1.00
C261   C     0.52377   0.53170   0.02965   0.00000  Uiso   1.00
C262   C     0.47592   0.46854   0.30339   0.00000  Uiso   1.00
C263   C     0.52730   0.53047   0.31577   0.00000  Uiso   1.00
C264   C     0.47834   0.46674   0.01806   0.00000  Uiso   1.00
C265   C     0.65000   0.47980   0.09382   0.00000  Uiso   1.00
C266   C     0.34358   0.45592   0.05901   0.00000  Uiso   1.00
C267   C     0.34230   0.45666   0.22383   0.00000  Uiso   1.00
C268   C     0.49939   0.57987   0.16758   0.00000  Uiso   1.00
C269   C     0.64027   0.41973   0.23147   0.00000  Uiso   1.00
C270   C     0.56918   0.37076   0.11464   0.00000  Uiso   1.00
C271   C     0.43117   0.62759   0.21947   0.00000  Uiso   1.00
C272   C     0.56399   0.56218   0.30075   0.00000  Uiso   1.00
C273   C     0.62068   0.55870   0.32557   0.00000  Uiso   1.00
C274   C     0.46330   0.42602   0.03657   0.00000  Uiso   1.00
C275   C     0.42914   0.39483   0.00310   0.00000  Uiso   1.00
C276   C     0.40049   0.49399   0.15384   0.00000  Uiso   1.00
C277   C     0.59933   0.49468   0.17799   0.00000  Uiso   1.00
C278   C     0.34498   0.48177   0.14441   0.00000  Uiso   1.00
C279   C     0.65264   0.47918   0.18116   0.00000  Uiso   1.00
C280   C     0.53277   0.35249   0.14040   0.00000  Uiso   1.00
C281   C     0.46665   0.64703   0.19339   0.00000  Uiso   1.00
C282   C     0.53272   0.64321   0.14310   0.00000  Uiso   1.00
H283   H     0.55856   0.62474   0.12500   0.00000  Uiso   1.00
H284   H     0.60415   0.43058   0.24372   0.00000  Uiso   1.00
H285   H     0.62926   0.40004   0.19938   0.00000  Uiso   1.00
H286   H     0.66148   0.39986   0.25764   0.00000  Uiso   1.00
H287   H     0.38075   0.44283   0.22041   0.00000  Uiso   1.00
H288   H     0.34790   0.47890   0.25430   0.00000  Uiso   1.00
H289   H     0.62413   0.56872   0.02893   0.00000  Uiso   1.00
H290   H     0.63407   0.52603   0.32231   0.00000  Uiso   1.00
H291   H     0.64709   0.57937   0.31013   0.00000  Uiso   1.00
H292   H     0.56607   0.55765   0.26450   0.00000  Uiso   1.00
H293   H     0.54979   0.59422   0.30692   0.00000  Uiso   1.00
H294   H     0.44087   0.37491   0.20894   0.00000  Uiso   1.00
H295   H     0.39371   0.41044   0.31926   0.00000  Uiso   1.00
H296   H     0.45178   0.38113   0.31081   0.00000  Uiso   1.00
H297   H     0.41607   0.36880   0.02218   0.00000  Uiso   1.00
H298   H     0.49998   0.41019   0.05042   0.00000  Uiso   1.00
H299   H     0.44088   0.43317   0.06393   0.00000  Uiso   1.00
H300   H     0.54285   0.55680   0.05249   0.00000  Uiso   1.00
H301   H     0.45782   0.44376   0.27986   0.00000  Uiso   1.00
H302   H     0.37370   0.47597   0.04758   0.00000  Uiso   1.00
H303   H     0.35940   0.42651   0.07341   0.00000  Uiso   1.00
H304   H     0.64776   0.44731   0.02775   0.00000  Uiso   1.00
H305   H     0.61264   0.46160   0.08988   0.00000  Uiso   1.00
H306   H     0.64195   0.51197   0.08262   0.00000  Uiso   1.00
N307   N     0.49999   0.49999   0.28573   0.00000  Uiso   1.00
N308   N     0.50001   0.50001   0.04760   0.00000  Uiso   1.00
N309   N     0.59879   0.38440   0.09371   0.00000  Uiso   1.00
N310   N     0.40278   0.61204   0.24034   0.00000  Uiso   1.00
O311   O     0.50000   0.43892   0.20487   0.00000  Uiso   1.00
O312   O     0.50000   0.56108   0.12846   0.00000  Uiso   1.00
O313   O     0.50000   0.43893   0.12843   0.00000  Uiso   1.00
O314   O     0.50000   0.56107   0.20490   0.00000  Uiso   1.00
O315   O     0.42392   0.50000   0.19595   0.00000  Uiso   1.00
O316   O     0.57608   0.50000   0.13739   0.00000  Uiso   1.00
O317   O     0.42392   0.50000   0.11950   0.00000  Uiso   1.00
O318   O     0.57608   0.50000   0.21383   0.00000  Uiso   1.00
Zn319  Zn    0.50000   0.49999   0.21771   0.00000  Uiso   1.00
Zn320  Zn    0.50000   0.50001   0.11563   0.00000  Uiso   1.00
C321   C     0.83361   0.42003   0.16576   0.00000  Uiso   1.00
C322   C     0.79991   0.35648   0.19067   0.00000  Uiso   1.00
C323   C     0.83326   0.62405   0.16917   0.00000  Uiso   1.00
C324   C     0.83273   0.37572   0.16436   0.00000  Uiso   1.00
C325   C     0.85710   0.53170   0.02965   0.00000  Uiso   1.00
C326   C     0.80926   0.46854   0.30339   0.00000  Uiso   1.00
C327   C     0.86063   0.53047   0.31577   0.00000  Uiso   1.00
C328   C     0.81167   0.46674   0.01806   0.00000  Uiso   1.00
C329   C     0.98334   0.47980   0.09382   0.00000  Uiso   1.00
C330   C     0.67691   0.45592   0.05901   0.00000  Uiso   1.00
C331   C     0.67564   0.45666   0.22383   0.00000  Uiso   1.00
C332   C     0.83273   0.57987   0.16758   0.00000  Uiso   1.00
C333   C     0.97360   0.41973   0.23147   0.00000  Uiso   1.00
C334   C     0.90251   0.37076   0.11464   0.00000  Uiso   1.00
C335   C     0.76450   0.62759   0.21947   0.00000  Uiso   1.00
C336   C     0.89733   0.56218   0.30075   0.00000  Uiso   1.00
C337   C     0.95402   0.55870   0.32557   0.00000  Uiso   1.00
C338   C     0.79663   0.42602   0.03657   0.00000  Uiso   1.00
C339   C     0.76247   0.39483   0.00310   0.00000  Uiso   1.00
C340   C     0.73382   0.49399   0.15384   0.00000  Uiso   1.00
C341   C     0.93266   0.49468   0.17799   0.00000  Uiso   1.00
C342   C     0.67832   0.48177   0.14441   0.00000  Uiso   1.00
C343   C     0.98598   0.47918   0.18116   0.00000  Uiso   1.00
C344   C     0.86611   0.35249   0.14040   0.00000  Uiso   1.00
C345   C     0.79998   0.64703   0.19339   0.00000  Uiso   1.00
C346   C     0.86605   0.64321   0.14310   0.00000  Uiso   1.00
H347   H     0.89189   0.62474   0.12500   0.00000  Uiso   1.00
H348   H     0.93748   0.43058   0.24372   0.00000  Uiso   1.00
H349   H     0.96259   0.40004   0.19938   0.00000  Uiso   1.00
H350   H     0.99482   0.39986   0.25764   0.00000  Uiso   1.00
H351   H     0.71409   0.44283   0.22041   0.00000  Uiso   1.00
H352   H     0.68123   0.47890   0.25430   0.00000  Uiso   1.00
H353   H     0.95747   0.56872   0.02893   0.00000  Uiso   1.00
H354   H     0.96741   0.52603   0.32231   0.00000  Uiso   1.00
H355   H     0.98043   0.57937   0.31013   0.00000  Uiso   1.00
H356   H     0.89940   0.55765   0.26450   0.00000  Uiso   1.00
H357   H     0.88313   0.59422   0.30692   0.00000  Uiso   1.00
H358   H     0.77420   0.37491   0.20894   0.00000  Uiso   1.00
H359   H     0.72704   0.41044   0.31926   0.00000  Uiso   1.00
H360   H     0.78511   0.38113   0.31081   0.00000  Uiso   1.00
H361   H     0.74941   0.36880   0.02218   0.00000  Uiso   1.00
H362   H     0.83331   0.41019   0.05042   0.00000  Uiso   1.00
H363   H     0.77421   0.43317   0.06393   0.00000  Uiso   1.00
H364   H     0.87619   0.55680   0.05249   0.00000  Uiso   1.00
H365   H     0.79116   0.44376   0.27986   0.00000  Uiso   1.00
H366   H     0.70703   0.47597   0.04758   0.00000  Uiso   1.00
H367   H     0.69273   0.42651   0.07341   0.00000  Uiso   1.00
H368   H     0.98109   0.44731   0.02775   0.00000  Uiso   1.00
H369   H     0.94597   0.46160   0.08988   0.00000  Uiso   1.00
H370   H     0.97528   0.51197   0.08262   0.00000  Uiso   1.00
N371   N     0.83332   0.49999   0.28573   0.00000  Uiso   1.00
N372   N     0.83335   0.50001   0.04760   0.00000  Uiso   1.00
N373   N     0.93212   0.38440   0.09371   0.00000  Uiso   1.00
N374   N     0.73611   0.61204   0.24034   0.00000  Uiso   1.00
O375   O     0.83333   0.43892   0.20487   0.00000  Uiso   1.00
O376   O     0.83334   0.56108   0.12846   0.00000  Uiso   1.00
O377   O     0.83333   0.43893   0.12843   0.00000  Uiso   1.00
O378   O     0.83334   0.56107   0.20490   0.00000  Uiso   1.00
O379   O     0.75725   0.50000   0.19595   0.00000  Uiso   1.00
O380   O     0.90942   0.50000   0.13739   0.00000  Uiso   1.00
O381   O     0.75725   0.50000   0.11950   0.00000  Uiso   1.00
O382   O     0.90942   0.50000   0.21383   0.00000  Uiso   1.00
Zn383  Zn    0.83333   0.49999   0.21771   0.00000  Uiso   1.00
Zn384  Zn    0.83333   0.50001   0.11563   0.00000  Uiso   1.00
C385   C     0.16695   0.75336   0.16576   0.00000  Uiso   1.00
C386   C     0.13324   0.68981   0.19067   0.00000  Uiso   1.00
C387   C     0.16659   0.95738   0.16917   0.00000  Uiso   1.00
C388   C     0.16606   0.70905   0.16436   0.00000  Uiso   1.00
C389   C     0.19044   0.86503   0.02965   0.00000  Uiso   1.00
C390   C     0.14259   0.80187   0.30339   0.00000  Uiso   1.00
C391   C     0.19397   0.86380   0.31577   0.00000  Uiso   1.00
C392   C     0.14500   0.80007   0.01806   0.00000  Uiso   1.00
C393   C     0.31667   0.81314   0.09382   0.00000  Uiso   1.00
C394   C     0.01024   0.78925   0.05901   0.00000  Uiso   1.00
C395   C     0.00897   0.79000   0.22383   0.00000  Uiso   1.00
C396   C     0.16606   0.91320   0.16758   0.00000  Uiso   1.00
C397   C     0.30694   0.75306   0.23147   0.00000  Uiso   1.00
C398   C     0.23585   0.70409   0.11464   0.00000  Uiso   1.00
C399   C     0.09783   0.96092   0.21947   0.00000  Uiso   1.00
C400   C     0.23066   0.89552   0.30075   0.00000  Uiso   1.00
C401   C     0.28735   0.89203   0.32557   0.00000  Uiso   1.00
C402   C     0.12996   0.75935   0.03657   0.00000  Uiso   1.00
C403   C     0.09580   0.72817   0.00310   0.00000  Uiso   1.00
C404   C     0.06715   0.82732   0.15384   0.00000  Uiso   1.00
C405   C     0.26599   0.82802   0.17799   0.00000  Uiso   1.00
C406   C     0.01165   0.81511   0.14441   0.00000  Uiso   1.00
C407   C     0.31931   0.81251   0.18116   0.00000  Uiso   1.00
C408   C     0.19944   0.68582   0.14040   0.00000  Uiso   1.00
C409   C     0.13331   0.98037   0.19339   0.00000  Uiso   1.00
C410   C     0.19938   0.97655   0.14310   0.00000  Uiso   1.00
H411   H     0.22523   0.95807   0.12500   0.00000  Uiso   1.00
H412   H     0.27082   0.76392   0.24372   0.00000  Uiso   1.00
H413   H     0.29592   0.73337   0.19938   0.00000  Uiso   1.00
H414   H     0.32815   0.73319   0.25764   0.00000  Uiso   1.00
H415   H     0.04742   0.77617   0.22041   0.00000  Uiso   1.00
H416   H     0.01456   0.81224   0.25430   0.00000  Uiso   1.00
H417   H     0.29080   0.90206   0.02893   0.00000  Uiso   1.00
H418   H     0.30074   0.85936   0.32231   0.00000  Uiso   1.00
H419   H     0.31376   0.91271   0.31013   0.00000  Uiso   1.00
H420   H     0.23273   0.89099   0.26450   0.00000  Uiso   1.00
H421   H     0.21646   0.92756   0.30692   0.00000  Uiso   1.00
H422   H     0.10754   0.70824   0.20894   0.00000  Uiso   1.00
H423   H     0.06038   0.74377   0.31926   0.00000  Uiso   1.00
H424   H     0.11844   0.71446   0.31081   0.00000  Uiso   1.00
H425   H     0.08274   0.70213   0.02218   0.00000  Uiso   1.00
H426   H     0.16665   0.74352   0.05042   0.00000  Uiso   1.00
H427   H     0.10755   0.76651   0.06393   0.00000  Uiso   1.00
H428   H     0.20952   0.89014   0.05249   0.00000  Uiso   1.00
H429   H     0.12449   0.77709   0.27986   0.00000  Uiso   1.00
H430   H     0.04037   0.80931   0.04758   0.00000  Uiso   1.00
H431   H     0.02607   0.75984   0.07341   0.00000  Uiso   1.00
H432   H     0.31442   0.78064   0.02775   0.00000  Uiso   1.00
H433   H     0.27930   0.79493   0.08988   0.00000  Uiso   1.00
H434   H     0.30861   0.84530   0.08262   0.00000  Uiso   1.00
N435   N     0.16665   0.83332   0.28573   0.00000  Uiso   1.00
N436   N     0.16668   0.83334   0.04760   0.00000  Uiso   1.00
N437   N     0.26546   0.71773   0.09371   0.00000  Uiso   1.00
N438   N     0.06944   0.94537   0.24034   0.00000  Uiso   1.00
O439   O     0.16666   0.77225   0.20487   0.00000  Uiso   1.00
O440   O     0.16667   0.89442   0.12846   0.00000  Uiso   1.00
O441   O     0.16666   0.77226   0.12843   0.00000  Uiso   1.00
O442   O     0.16667   0.89441   0.20490   0.00000  Uiso   1.00
O443   O     0.09058   0.83333   0.19595   0.00000  Uiso   1.00
O444   O     0.24275   0.83334   0.13739   0.00000  Uiso   1.00
O445   O     0.09058   0.83334   0.11950   0.00000  Uiso   1.00
O446   O     0.24275   0.83333   0.21383   0.00000  Uiso   1.00
Zn447  Zn    0.16667   0.83333   0.21771   0.00000  Uiso   1.00
Zn448  Zn    0.16667   0.83334   0.11563   0.00000  Uiso   1.00
C449   C     0.50028   0.75336   0.16576   0.00000  Uiso   1.00
C450   C     0.46657   0.68981   0.19067   0.00000  Uiso   1.00
C451   C     0.49992   0.95738   0.16917   0.00000  Uiso   1.00
C452   C     0.49940   0.70905   0.16436   0.00000  Uiso   1.00
C453   C     0.52377   0.86503   0.02965   0.00000  Uiso   1.00
C454   C     0.47592   0.80187   0.30339   0.00000  Uiso   1.00
C455   C     0.52730   0.86380   0.31577   0.00000  Uiso   1.00
C456   C     0.47834   0.80007   0.01806   0.00000  Uiso   1.00
C457   C     0.65000   0.81314   0.09382   0.00000  Uiso   1.00
C458   C     0.34358   0.78925   0.05901   0.00000  Uiso   1.00
C459   C     0.34230   0.79000   0.22383   0.00000  Uiso   1.00
C460   C     0.49939   0.91320   0.16758   0.00000  Uiso   1.00
C461   C     0.64027   0.75306   0.23147   0.00000  Uiso   1.00
C462   C     0.56918   0.70409   0.11464   0.00000  Uiso   1.00
C463   C     0.43117   0.96092   0.21947   0.00000  Uiso   1.00
C464   C     0.56399   0.89552   0.30075   0.00000  Uiso   1.00
C465   C     0.62068   0.89203   0.32557   0.00000  Uiso   1.00
C466   C     0.46330   0.75935   0.03657   0.00000  Uiso   1.00
C467   C     0.42914   0.72817   0.00310   0.00000  Uiso   1.00
C468   C     0.40049   0.82732   0.15384   0.00000  Uiso   1.00
C469   C     0.59933   0.82802   0.17799   0.00000  Uiso   1.00
C470   C     0.34498   0.81511   0.14441   0.00000  Uiso   1.00
C471   C     0.65264   0.81251   0.18116   0.00000  Uiso   1.00
C472   C     0.53277   0.68582   0.14040   0.00000  Uiso   1.00
C473   C     0.46665   0.98037   0.19339   0.00000  Uiso   1.00
C474   C     0.53272   0.97655   0.14310   0.00000  Uiso   1.00
H475   H     0.55856   0.95807   0.12500   0.00000  Uiso   1.00
H476   H     0.60415   0.76392   0.24372   0.00000  Uiso   1.00
H477   H     0.62926   0.73337   0.19938   0.00000  Uiso   1.00
H478   H     0.66148   0.73319   0.25764   0.00000  Uiso   1.00
H479   H     0.38075   0.77617   0.22041   0.00000  Uiso   1.00
H480   H     0.34790   0.81224   0.25430   0.00000  Uiso   1.00
H481   H     0.62413   0.90206   0.02893   0.00000  Uiso   1.00
H482   H     0.63407   0.85936   0.32231   0.00000  Uiso   1.00
H483   H     0.64709   0.91271   0.31013   0.00000  Uiso   1.00
H484   H     0.56607   0.89099   0.26450   0.00000  Uiso   1.00
H485   H     0.54979   0.92756   0.30692   0.00000  Uiso   1.00
H486   H     0.44087   0.70824   0.20894   0.00000  Uiso   1.00
H487   H     0.39371   0.74377   0.31926   0.00000  Uiso   1.00
H488   H     0.45178   0.71446   0.31081   0.00000  Uiso   1.00
H489   H     0.41607   0.70213   0.02218   0.00000  Uiso   1.00
H490   H     0.49998   0.74352   0.05042   0.00000  Uiso   1.00
H491   H     0.44088   0.76651   0.06393   0.00000  Uiso   1.00
H492   H     0.54285   0.89014   0.05249   0.00000  Uiso   1.00
H493   H     0.45782   0.77709   0.27986   0.00000  Uiso   1.00
H494   H     0.37370   0.80931   0.04758   0.00000  Uiso   1.00
H495   H     0.35940   0.75984   0.07341   0.00000  Uiso   1.00
H496   H     0.64776   0.78064   0.02775   0.00000  Uiso   1.00
H497   H     0.61264   0.79493   0.08988   0.00000  Uiso   1.00
H498   H     0.64195   0.84530   0.08262   0.00000  Uiso   1.00
N499   N     0.49999   0.83332   0.28573   0.00000  Uiso   1.00
N500   N     0.50001   0.83334   0.04760   0.00000  Uiso   1.00
N501   N     0.59879   0.71773   0.09371   0.00000  Uiso   1.00
N502   N     0.40278   0.94537   0.24034   0.00000  Uiso   1.00
O503   O     0.50000   0.77225   0.20487   0.00000  Uiso   1.00
O504   O     0.50000   0.89442   0.12846   0.00000  Uiso   1.00
O505   O     0.50000   0.77226   0.12843   0.00000  Uiso   1.00
O506   O     0.50000   0.89441   0.20490   0.00000  Uiso   1.00
O507   O     0.42392   0.83333   0.19595   0.00000  Uiso   1.00
O508   O     0.57608   0.83334   0.13739   0.00000  Uiso   1.00
O509   O     0.42392   0.83334   0.11950   0.00000  Uiso   1.00
O510   O     0.57608   0.83333   0.21383   0.00000  Uiso   1.00
Zn511  Zn    0.50000   0.83333   0.21771   0.00000  Uiso   1.00
Zn512  Zn    0.50000   0.83334   0.11563   0.00000  Uiso   1.00
C513   C     0.83361   0.75336   0.16576   0.00000  Uiso   1.00
C514   C     0.79991   0.68981   0.19067   0.00000  Uiso   1.00
C515   C     0.83326   0.95738   0.16917   0.00000  Uiso   1.00
C516   C     0.83273   0.70905   0.16436   0.00000  Uiso   1.00
C517   C     0.85710   0.86503   0.02965   0.00000  Uiso   1.00
C518   C     0.80926   0.80187   0.30339   0.00000  Uiso   1.00
C519   C     0.86063   0.86380   0.31577   0.00000  Uiso   1.00
C520   C     0.81167   0.80007   0.01806   0.00000  Uiso   1.00
C521   C     0.98334   0.81314   0.09382   0.00000  Uiso   1.00
C522   C     0.67691   0.78925   0.05901   0.00000  Uiso   1.00
C523   C     0.67564   0.79000   0.22383   0.00000  Uiso   1.00
C524   C     0.83273   0.91320   0.16758   0.00000  Uiso   1.00
C525   C     0.97360   0.75306   0.23147   0.00000  Uiso   1.00
C526   C     0.90251   0.70409   0.11464   0.00000  Uiso   1.00
C527   C     0.76450   0.96092   0.21947   0.00000  Uiso   1.00
C528   C     0.89733   0.89552   0.30075   0.00000  Uiso   1.00
C529   C     0.95402   0.89203   0.32557   0.00000  Uiso   1.00
C530   C     0.79663   0.75935   0.03657   0.00000  Uiso   1.00
C531   C     0.76247   0.72817   0.00310   0.00000  Uiso   1.00
C532   C     0.73382   0.82732   0.15384   0.00000  Uiso   1.00
C533   C     0.93266   0.82802   0.17799   0.00000  Uiso   1.00
C534   C     0.67832   0.81511   0.14441   0.00000  Uiso   1.00
C535   C     0.98598   0.81251   0.18116   0.00000  Uiso   1.00
C536   C     0.86611   0.68582   0.14040   0.00000  Uiso   1.00
C537   C     0.79998   0.98037   0.19339   0.00000  Uiso   1.00
C538   C     0.86605   0.97655   0.14310   0.00000  Uiso   1.00
H539   H     0.89189   0.95807   0.12500   0.00000  Uiso   1.00
H540   H     0.93748   0.76392   0.24372   0.00000  Uiso   1.00
H541   H     0.96259   0.73337   0.19938   0.00000  Uiso   1.00
H542   H     0.99482   0.73319   0.25764   0.00000  Uiso   1.00
H543   H     0.71409   0.77617   0.22041   0.00000  Uiso   1.00
H544   H     0.68123   0.81224   0.25430   0.00000  Uiso   1.00
H545   H     0.95747   0.90206   0.02893   0.00000  Uiso   1.00
H546   H     0.96741   0.85936   0.32231   0.00000  Uiso   1.00
H547   H     0.98043   0.91271   0.31013   0.00000  Uiso   1.00
H548   H     0.89940   0.89099   0.26450   0.00000  Uiso   1.00
H549   H     0.88313   0.92756   0.30692   0.00000  Uiso   1.00
H550   H     0.77420   0.70824   0.20894   0.00000  Uiso   1.00
H551   H     0.72704   0.74377   0.31926   0.00000  Uiso   1.00
H552   H     0.78511   0.71446   0.31081   0.00000  Uiso   1.00
H553   H     0.74941   0.70213   0.02218   0.00000  Uiso   1.00
H554   H     0.83331   0.74352   0.05042   0.00000  Uiso   1.00
H555   H     0.77421   0.76651   0.06393   0.00000  Uiso   1.00
H556   H     0.87619   0.89014   0.05249   0.00000  Uiso   1.00
H557   H     0.79116   0.77709   0.27986   0.00000  Uiso   1.00
H558   H     0.70703   0.80931   0.04758   0.00000  Uiso   1.00
H559   H     0.69273   0.75984   0.07341   0.00000  Uiso   1.00
H560   H     0.98109   0.78064   0.02775   0.00000  Uiso   1.00
H561   H     0.94597   0.79493   0.08988   0.00000  Uiso   1.00
H562   H     0.97528   0.84530   0.08262   0.00000  Uiso   1.00
N563   N     0.83332   0.83332   0.28573   0.00000  Uiso   1.00
N564   N     0.83335   0.83334   0.04760   0.00000  Uiso   1.00
N565   N     0.93212   0.71773   0.09371   0.00000  Uiso   1.00
N566   N     0.73611   0.94537   0.24034   0.00000  Uiso   1.00
O567   O     0.83333   0.77225   0.20487   0.00000  Uiso   1.00
O568   O     0.83334   0.89442   0.12846   0.00000  Uiso   1.00
O569   O     0.83333   0.77226   0.12843   0.00000  Uiso   1.00
O570   O     0.83334   0.89441   0.20490   0.00000  Uiso   1.00
O571   O     0.75725   0.83333   0.19595   0.00000  Uiso   1.00
O572   O     0.90942   0.83334   0.13739   0.00000  Uiso   1.00
O573   O     0.75725   0.83334   0.11950   0.00000  Uiso   1.00
O574   O     0.90942   0.83333   0.21383   0.00000  Uiso   1.00
Zn575  Zn    0.83333   0.83333   0.21771   0.00000  Uiso   1.00
Zn576  Zn    0.83333   0.83334   0.11563   0.00000  Uiso   1.00
C577   C     0.16695   0.08670   0.49909   0.00000  Uiso   1.00
C578   C     0.13324   0.02314   0.52401   0.00000  Uiso   1.00
C579   C     0.16659   0.29072   0.50251   0.00000  Uiso   1.00
C580   C     0.16606   0.04238   0.49770   0.00000  Uiso   1.00
C581   C     0.19044   0.19837   0.36298   0.00000  Uiso   1.00
C582   C     0.14259   0.13520   0.63672   0.00000  Uiso   1.00
C583   C     0.19397   0.19714   0.64910   0.00000  Uiso   1.00
C584   C     0.14500   0.13341   0.35139   0.00000  Uiso   1.00
C585   C     0.31667   0.14647   0.42715   0.00000  Uiso   1.00
C586   C     0.01024   0.12259   0.39235   0.00000  Uiso   1.00
C587   C     0.00897   0.12333   0.55717   0.00000  Uiso   1.00
C588   C     0.16606   0.24653   0.50091   0.00000  Uiso   1.00
C589   C     0.30694   0.08639   0.56481   0.00000  Uiso   1.00
C590   C     0.23585   0.03742   0.44797   0.00000  Uiso   1.00
C591   C     0.09783   0.29426   0.55280   0.00000  Uiso   1.00
C592   C     0.23066   0.22885   0.63408   0.00000  Uiso   1.00
C593   C     0.28735   0.22537   0.65891   0.00000  Uiso   1.00
C594   C     0.12996   0.09269   0.36990   0.00000  Uiso   1.00
C595   C     0.09580   0.06150   0.33643   0.00000  Uiso   1.00
C596   C     0.06715   0.16066   0.48718   0.00000  Uiso   1.00
C597   C     0.26599   0.16135   0.51132   0.00000  Uiso   1.00
C598   C     0.01165   0.14844   0.47774   0.00000  Uiso   1.00
C599   C     0.31931   0.14584   0.51449   0.00000  Uiso   1.00
C600   C     0.19944   0.01915   0.47374   0.00000  Uiso   1.00
C601   C     0.13331   0.31370   0.52672   0.00000  Uiso   1.00
C602   C     0.19938   0.30988   0.47643   0.00000  Uiso   1.00
H603   H     0.22523   0.29140   0.45833   0.00000  Uiso   1.00
H604   H     0.27082   0.09725   0.57706   0.00000  Uiso   1.00
H605   H     0.29592   0.06670   0.53271   0.00000  Uiso   1.00
H606   H     0.32815   0.06652   0.59097   0.00000  Uiso   1.00
H607   H     0.04742   0.10950   0.55374   0.00000  Uiso   1.00
H608   H     0.01456   0.14557   0.58763   0.00000  Uiso   1.00
H609   H     0.29080   0.23539   0.36227   0.00000  Uiso   1.00
H610   H     0.30074   0.19270   0.65564   0.00000  Uiso   1.00
H611   H     0.31376   0.24604   0.64346   0.00000  Uiso   1.00
H612   H     0.23273   0.22432   0.59783   0.00000  Uiso   1.00
H613   H     0.21646   0.26089   0.64025   0.00000  Uiso   1.00
H614   H     0.10754   0.04158   0.54227   0.00000  Uiso   1.00
H615   H     0.06038   0.07711   0.65259   0.00000  Uiso   1.00
H616   H     0.11844   0.04779   0.64414   0.00000  Uiso   1.00
H617   H     0.08274   0.03547   0.35551   0.00000  Uiso   1.00
H618   H     0.16665   0.07685   0.38376   0.00000  Uiso   1.00
H619   H     0.10755   0.09984   0.39727   0.00000  Uiso   1.00
H620   H     0.20952   0.22347   0.38582   0.00000  Uiso   1.00
H621   H     0.12449   0.11042   0.61319   0.00000  Uiso   1.00
H622   H     0.04037   0.14264   0.38091   0.00000  Uiso   1.00
H623   H     0.02607   0.09318   0.40674   0.00000  Uiso   1.00
H624   H     0.31442   0.11397   0.36108   0.00000  Uiso   1.00
H625   H     0.27930   0.12827   0.42321   0.00000  Uiso   1.00
H626   H     0.30861   0.17863   0.41595   0.00000  Uiso   1.00
N627   N     0.16665   0.16666   0.61907   0.00000  Uiso   1.00
N628   N     0.16668   0.16668   0.38093   0.00000  Uiso   1.00
N629   N     0.26546   0.05107   0.42704   0.00000  Uiso   1.00
N630   N     0.06944   0.27870   0.57367   0.00000  Uiso   1.00
O631   O     0.16666   0.10558   0.53821   0.00000  Uiso   1.00
O632   O     0.16667   0.22775   0.46179   0.00000  Uiso   1.00
O633   O     0.16666   0.10559   0.46176   0.00000  Uiso   1.00
O634   O     0.16667   0.22774   0.53824   0.00000  Uiso   1.00
O635   O     0.09058   0.16666   0.52928   0.00000  Uiso   1.00
O636   O     0.24275   0.16667   0.47072   0.00000  Uiso   1.00
O637   O     0.09058   0.16667   0.45284   0.00000  Uiso   1.00
O638   O     0.24275   0.16666   0.54716   0.00000  Uiso   1.00
Zn639  Zn    0.16667   0.16666   0.55104   0.00000  Uiso   1.00
Zn640  Zn    0.16667   0.16667   0.44896   0.00000  Uiso   1.00
C641   C     0.50028   0.08670   0.49909   0.00000  Uiso   1.00
C642   C     0.46657   0.02314   0.52401   0.00000  Uiso   1.00
C643   C     0.49992   0.29072   0.50251   0.00000  Uiso   1.00
C644   C     0.49940   0.04238   0.49770   0.00000  Uiso   1.00
C645   C     0.52377   0.19837   0.36298   0.00000  Uiso   1.00
C646   C     0.47592   0.13520   0.63672   0.00000  Uiso   1.00
C647   C     0.52730   0.19714   0.64910   0.00000  Uiso   1.00
C648   C     0.47834   0.13341   0.35139   0.00000  Uiso   1.00
C649   C     0.65000   0.14647   0.42715   0.00000  Uiso   1.00
C650   C     0.34358   0.12259   0.39235   0.00000  Uiso   1.00
C651   C     0.34230   0.12333   0.55717   0.00000  Uiso   1.00
C652   C     0.49939   0.24653   0.50091   0.00000  Uiso   1.00
C653   C     0.64027   0.08639   0.56481   0.00000  Uiso   1.00
C654   C     0.56918   0.03742   0.44797   0.00000  Uiso   1.00
C655   C     0.43117   0.29426   0.55280   0.00000  Uiso   1.00
C656   C     0.56399   0.22885   0.63408   0.00000  Uiso   1.00
C657   C     0.62068   0.22537   0.65891   0.00000  Uiso   1.00
C658   C     0.46330   0.09269   0.36990   0.00000  Uiso   1.00
C659   C     0.42914   0.06150   0.33643   0.00000  Uiso   1.00
C660   C     0.40049   0.16066   0.48718   0.00000  Uiso   1.00
C661   C     0.59933   0.16135   0.51132   0.00000  Uiso   1.00
C662   C     0.34498   0.14844   0.47774   0.00000  Uiso   1.00
C663   C     0.65264   0.14584   0.51449   0.00000  Uiso   1.00
C664   C     0.53277   0.01915   0.47374   0.00000  Uiso   1.00
C665   C     0.46665   0.31370   0.52672   0.00000  Uiso   1.00
C666   C     0.53272   0.30988   0.47643   0.00000  Uiso   1.00
H667   H     0.55856   0.29140   0.45833   0.00000  Uiso   1.00
H668   H     0.60415   0.09725   0.57706   0.00000  Uiso   1.00
H669   H     0.62926   0.06670   0.53271   0.00000  Uiso   1.00
H670   H     0.66148   0.06652   0.59097   0.00000  Uiso   1.00
H671   H     0.38075   0.10950   0.55374   0.00000  Uiso   1.00
H672   H     0.34790   0.14557   0.58763   0.00000  Uiso   1.00
H673   H     0.62413   0.23539   0.36227   0.00000  Uiso   1.00
H674   H     0.63407   0.19270   0.65564   0.00000  Uiso   1.00
H675   H     0.64709   0.24604   0.64346   0.00000  Uiso   1.00
H676   H     0.56607   0.22432   0.59783   0.00000  Uiso   1.00
H677   H     0.54979   0.26089   0.64025   0.00000  Uiso   1.00
H678   H     0.44087   0.04158   0.54227   0.00000  Uiso   1.00
H679   H     0.39371   0.07711   0.65259   0.00000  Uiso   1.00
H680   H     0.45178   0.04779   0.64414   0.00000  Uiso   1.00
H681   H     0.41607   0.03547   0.35551   0.00000  Uiso   1.00
H682   H     0.49998   0.07685   0.38376   0.00000  Uiso   1.00
H683   H     0.44088   0.09984   0.39727   0.00000  Uiso   1.00
H684   H     0.54285   0.22347   0.38582   0.00000  Uiso   1.00
H685   H     0.45782   0.11042   0.61319   0.00000  Uiso   1.00
H686   H     0.37370   0.14264   0.38091   0.00000  Uiso   1.00
H687   H     0.35940   0.09318   0.40674   0.00000  Uiso   1.00
H688   H     0.64776   0.11397   0.36108   0.00000  Uiso   1.00
H689   H     0.61264   0.12827   0.42321   0.00000  Uiso   1.00
H690   H     0.64195   0.17863   0.41595   0.00000  Uiso   1.00
N691   N     0.49999   0.16666   0.61907   0.00000  Uiso   1.00
N692   N     0.50001   0.16668   0.38093   0.00000  Uiso   1.00
N693   N     0.59879   0.05107   0.42704   0.00000  Uiso   1.00
N694   N     0.40278   0.27870   0.57367   0.00000  Uiso   1.00
O695   O     0.50000   0.10558   0.53821   0.00000  Uiso   1.00
O696   O     0.50000   0.22775   0.46179   0.00000  Uiso   1.00
O697   O     0.50000   0.10559   0.46176   0.00000  Uiso   1.00
O698   O     0.50000   0.22774   0.53824   0.00000  Uiso   1.00
O699   O     0.42392   0.16666   0.52928   0.00000  Uiso   1.00
O700   O     0.57608   0.16667   0.47072   0.00000  Uiso   1.00
O701   O     0.42392   0.16667   0.45284   0.00000  Uiso   1.00
O702   O     0.57608   0.16666   0.54716   0.00000  Uiso   1.00
Zn703  Zn    0.50000   0.16666   0.55104   0.00000  Uiso   1.00
Zn704  Zn    0.50000   0.16667   0.44896   0.00000  Uiso   1.00
C705   C     0.83361   0.08670   0.49909   0.00000  Uiso   1.00
C706   C     0.79991   0.02314   0.52401   0.00000  Uiso   1.00
C707   C     0.83326   0.29072   0.50251   0.00000  Uiso   1.00
C708   C     0.83273   0.04238   0.49770   0.00000  Uiso   1.00
C709   C     0.85710   0.19837   0.36298   0.00000  Uiso   1.00
C710   C     0.80926   0.13520   0.63672   0.00000  Uiso   1.00
C711   C     0.86063   0.19714   0.64910   0.00000  Uiso   1.00
C712   C     0.81167   0.13341   0.35139   0.00000  Uiso   1.00
C713   C     0.98334   0.14647   0.42715   0.00000  Uiso   1.00
C714   C     0.67691   0.12259   0.39235   0.00000  Uiso   1.00
C715   C     0.67564   0.12333   0.55717   0.00000  Uiso   1.00
C716   C     0.83273   0.24653   0.50091   0.00000  Uiso   1.00
C717   C     0.97360   0.08639   0.56481   0.00000  Uiso   1.00
C718   C     0.90251   0.03742   0.44797   0.00000  Uiso   1.00
C719   C     0.76450   0.29426   0.55280   0.00000  Uiso   1.00
C720   C     0.89733   0.22885   0.63408   0.00000  Uiso   1.00
C721   C     0.95402   0.22537   0.65891   0.00000  Uiso   1.00
C722   C     0.79663   0.09269   0.36990   0.00000  Uiso   1.00
C723   C     0.76247   0.06150   0.33643   0.00000  Uiso   1.00
C724   C     0.73382   0.16066   0.48718   0.00000  Uiso   1.00
C725   C     0.93266   0.16135   0.51132   0.00000  Uiso   1.00
C726   C     0.67832   0.14844   0.47774   0.00000  Uiso   1.00
C727   C     0.98598   0.14584   0.51449   0.00000  Uiso   1.00
C728   C     0.86611   0.01915   0.47374   0.00000  Uiso   1.00
C729   C     0.79998   0.31370   0.52672   0.00000  Uiso   1.00
C730   C     0.86605   0.30988   0.47643   0.00000  Uiso   1.00
H731   H     0.89189   0.29140   0.45833   0.00000  Uiso   1.00
H732   H     0.93748   0.09725   0.57706   0.00000  Uiso   1.00
H733   H     0.96259   0.06670   0.53271   0.00000  Uiso   1.00
H734   H     0.99482   0.06652   0.59097   0.00000  Uiso   1.00
H735   H     0.71409   0.10950   0.55374   0.00000  Uiso   1.00
H736   H     0.68123   0.14557   0.58763   0.00000  Uiso   1.00
H737   H     0.95747   0.23539   0.36227   0.00000  Uiso   1.00
H738   H     0.96741   0.19270   0.65564   0.00000  Uiso   1.00
H739   H     0.98043   0.24604   0.64346   0.00000  Uiso   1.00
H740   H     0.89940   0.22432   0.59783   0.00000  Uiso   1.00
H741   H     0.88313   0.26089   0.64025   0.00000  Uiso   1.00
H742   H     0.77420   0.04158   0.54227   0.00000  Uiso   1.00
H743   H     0.72704   0.07711   0.65259   0.00000  Uiso   1.00
H744   H     0.78511   0.04779   0.64414   0.00000  Uiso   1.00
H745   H     0.74941   0.03547   0.35551   0.00000  Uiso   1.00
H746   H     0.83331   0.07685   0.38376   0.00000  Uiso   1.00
H747   H     0.77421   0.09984   0.39727   0.00000  Uiso   1.00
H748   H     0.87619   0.22347   0.38582   0.00000  Uiso   1.00
H749   H     0.79116   0.11042   0.61319   0.00000  Uiso   1.00
H750   H     0.70703   0.14264   0.38091   0.00000  Uiso   1.00
H751   H     0.69273   0.09318   0.40674   0.00000  Uiso   1.00
H752   H     0.98109   0.11397   0.36108   0.00000  Uiso   1.00
H753   H     0.94597   0.12827   0.42321   0.00000  Uiso   1.00
H754   H     0.97528   0.17863   0.41595   0.00000  Uiso   1.00
N755   N     0.83332   0.16666   0.61907   0.00000  Uiso   1.00
N756   N     0.83335   0.16668   0.38093   0.00000  Uiso   1.00
N757   N     0.93212   0.05107   0.42704   0.00000  Uiso   1.00
N758   N     0.73611   0.27870   0.57367   0.00000  Uiso   1.00
O759   O     0.83333   0.10558   0.53821   0.00000  Uiso   1.00
O760   O     0.83334   0.22775   0.46179   0.00000  Uiso   1.00
O761   O     0.83333   0.10559   0.46176   0.00000  Uiso   1.00
O762   O     0.83334   0.22774   0.53824   0.00000  Uiso   1.00
O763   O     0.75725   0.16666   0.52928   0.00000  Uiso   1.00
O764   O     0.90942   0.16667   0.47072   0.00000  Uiso   1.00
O765   O     0.75725   0.16667   0.45284   0.00000  Uiso   1.00
O766   O     0.90942   0.16666   0.54716   0.00000  Uiso   1.00
Zn767  Zn    0.83333   0.16666   0.55104   0.00000  Uiso   1.00
Zn768  Zn    0.83333   0.16667   0.44896   0.00000  Uiso   1.00
C769   C     0.16695   0.42003   0.49909   0.00000  Uiso   1.00
C770   C     0.13324   0.35648   0.52401   0.00000  Uiso   1.00
C771   C     0.16659   0.62405   0.50251   0.00000  Uiso   1.00
C772   C     0.16606   0.37572   0.49770   0.00000  Uiso   1.00
C773   C     0.19044   0.53170   0.36298   0.00000  Uiso   1.00
C774   C     0.14259   0.46854   0.63672   0.00000  Uiso   1.00
C775   C     0.19397   0.53047   0.64910   0.00000  Uiso   1.00
C776   C     0.14500   0.46674   0.35139   0.00000  Uiso   1.00
C777   C     0.31667   0.47980   0.42715   0.00000  Uiso   1.00
C778   C     0.01024   0.45592   0.39235   0.00000  Uiso   1.00
C779   C     0.00897   0.45666   0.55717   0.00000  Uiso   1.00
C780   C     0.16606   0.57987   0.50091   0.00000  Uiso   1.00
C781   C     0.30694   0.41973   0.56481   0.00000  Uiso   1.00
C782   C     0.23585   0.37076   0.44797   0.00000  Uiso   1.00
C783   C     0.09783   0.62759   0.55280   0.00000  Uiso   1.00
C784   C     0.23066   0.56218   0.63408   0.00000  Uiso   1.00
C785   C     0.28735   0.55870   0.65891   0.00000  Uiso   1.00
C786   C     0.12996   0.42602   0.36990   0.00000  Uiso   1.00
C787   C     0.09580   0.39483   0.33643   0.00000  Uiso   1.00
C788   C     0.06715   0.49399   0.48718   0.00000  Uiso   1.00
C789   C     0.26599   0.49468   0.51132   0.00000  Uiso   1.00
C790   C     0.01165   0.48177   0.47774   0.00000  Uiso   1.00
C791   C     0.31931   0.47918   0.51449   0.00000  Uiso   1.00
C792   C     0.19944   0.35249   0.47374   0.00000  Uiso   1.00
C793   C     0.13331   0.64703   0.52672   0.00000  Uiso   1.00
C794   C     0.19938   0.64321   0.47643   0.00000  Uiso   1.00
H795   H     0.22523   0.62474   0.45833   0.00000  Uiso   1.00
H796   H     0.27082   0.43058   0.57706   0.00000  Uiso   1.00
H797   H     0.29592   0.40004   0.53271   0.00000  Uiso   1.00
H798   H     0.32815   0.39986   0.59097   0.00000  Uiso   1.00
H799   H     0.04742   0.44283   0.55374   0.00000  Uiso   1.00
H800   H     0.01456   0.47890   0.58763   0.00000  Uiso   1.00
H801   H     0.29080   0.56872   0.36227   0.00000  Uiso   1.00
H802   H     0.30074   0.52603   0.65564   0.00000  Uiso   1.00
H803   H     0.31376   0.57937   0.64346   0.00000  Uiso   1.00
H804   H     0.23273   0.55765   0.59783   0.00000  Uiso   1.00
H805   H     0.21646   0.59422   0.64025   0.00000  Uiso   1.00
H806   H     0.10754   0.37491   0.54227   0.00000  Uiso   1.00
H807   H     0.06038   0.41044   0.65259   0.00000  Uiso   1.00
H808   H     0.11844   0.38113   0.64414   0.00000  Uiso   1.00
H809   H     0.08274   0.36880   0.35551   0.00000  Uiso   1.00
H810   H     0.16665   0.41019   0.38376   0.00000  Uiso   1.00
H811   H     0.10755   0.43317   0.39727   0.00000  Uiso   1.00
H812   H     0.20952   0.55680   0.38582   0.00000  Uiso   1.00
H813   H     0.12449   0.44376   0.61319   0.00000  Uiso   1.00
H814   H     0.04037   0.47597   0.38091   0.00000  Uiso   1.00
H815   H     0.02607   0.42651   0.40674   0.00000  Uiso   1.00
H816   H     0.31442   0.44731   0.36108   0.00000  Uiso   1.00
H817   H     0.27930   0.46160   0.42321   0.00000  Uiso   1.00
H818   H     0.30861   0.51197   0.41595   0.00000  Uiso   1.00
N819   N     0.16665   0.49999   0.61907   0.00000  Uiso   1.00
N820   N     0.16668   0.50001   0.38093   0.00000  Uiso   1.00
N821   N     0.26546   0.38440   0.42704   0.00000  Uiso   1.00
N822   N     0.06944   0.61204   0.57367   0.00000  Uiso   1.00
O823   O     0.16666   0.43892   0.53821   0.00000  Uiso   1.00
O824   O     0.16667   0.56108   0.46179   0.00000  Uiso   1.00
O825   O     0.16666   0.43893   0.46176   0.00000  Uiso   1.00
O826   O     0.16667   0.56107   0.53824   0.00000  Uiso   1.00
O827   O     0.09058   0.50000   0.52928   0.00000  Uiso   1.00
O828   O     0.24275   0.50000   0.47072   0.00000  Uiso   1.00
O829   O     0.09058   0.50000   0.45284   0.00000  Uiso   1.00
O830   O     0.24275   0.50000   0.54716   0.00000  Uiso   1.00
Zn831  Zn    0.16667   0.49999   0.55104   0.00000  Uiso   1.00
Zn832  Zn    0.16667   0.50001   0.44896   0.00000  Uiso   1.00
C833   C     0.50028   0.42003   0.49909   0.00000  Uiso   1.00
C834   C     0.46657   0.35648   0.52401   0.00000  Uiso   1.00
C835   C     0.49992   0.62405   0.50251   0.00000  Uiso   1.00
C836   C     0.49940   0.37572   0.49770   0.00000  Uiso   1.00
C837   C     0.52377   0.53170   0.36298   0.00000  Uiso   1.00
C838   C     0.47592   0.46854   0.63672   0.00000  Uiso   1.00
C839   C     0.52730   0.53047   0.64910   0.00000  Uiso   1.00
C840   C     0.47834   0.46674   0.35139   0.00000  Uiso   1.00
C841   C     0.65000   0.47980   0.42715   0.00000  Uiso   1.00
C842   C     0.34358   0.45592   0.39235   0.00000  Uiso   1.00
C843   C     0.34230   0.45666   0.55717   0.00000  Uiso   1.00
C844   C     0.49939   0.57987   0.50091   0.00000  Uiso   1.00
C845   C     0.64027   0.41973   0.56481   0.00000  Uiso   1.00
C846   C     0.56918   0.37076   0.44797   0.00000  Uiso   1.00
C847   C     0.43117   0.62759   0.55280   0.00000  Uiso   1.00
C848   C     0.56399   0.56218   0.63408   0.00000  Uiso   1.00
C849   C     0.62068   0.55870   0.65891   0.00000  Uiso   1.00
C850   C     0.46330   0.42602   0.36990   0.00000  Uiso   1.00
C851   C     0.42914   0.39483   0.33643   0.00000  Uiso   1.00
C852   C     0.40049   0.49399   0.48718   0.00000  Uiso   1.00
C853   C     0.59933   0.49468   0.51132   0.00000  Uiso   1.00
C854   C     0.34498   0.48177   0.47774   0.00000  Uiso   1.00
C855   C     0.65264   0.47918   0.51449   0.00000  Uiso   1.00
C856   C     0.53277   0.35249   0.47374   0.00000  Uiso   1.00
C857   C     0.46665   0.64703   0.52672   0.00000  Uiso   1.00
C858   C     0.53272   0.64321   0.47643   0.00000  Uiso   1.00
H859   H     0.55856   0.62474   0.45833   0.00000  Uiso   1.00
H860   H     0.60415   0.43058   0.57706   0.00000  Uiso   1.00
H861   H     0.62926   0.40004   0.53271   0.00000  Uiso   1.00
H862   H     0.66148   0.39986   0.59097   0.00000  Uiso   1.00
H863   H     0.38075   0.44283   0.55374   0.00000  Uiso   1.00
H864   H     0.34790   0.47890   0.58763   0.00000  Uiso   1.00
H865   H     0.62413   0.56872   0.36227   0.00000  Uiso   1.00
H866   H     0.63407   0.52603   0.65564   0.00000  Uiso   1.00
H867   H     0.64709   0.57937   0.64346   0.00000  Uiso   1.00
H868   H     0.56607   0.55765   0.59783   0.00000  Uiso   1.00
H869   H     0.54979   0.59422   0.64025   0.00000  Uiso   1.00
H870   H     0.44087   0.37491   0.54227   0.00000  Uiso   1.00
H871   H     0.39371   0.41044   0.65259   0.00000  Uiso   1.00
H872   H     0.45178   0.38113   0.64414   0.00000  Uiso   1.00
H873   H     0.41607   0.36880   0.35551   0.00000  Uiso   1.00
H874   H     0.49998   0.41019   0.38376   0.00000  Uiso   1.00
H875   H     0.44088   0.43317   0.39727   0.00000  Uiso   1.00
H876   H     0.54285   0.55680   0.38582   0.00000  Uiso   1.00
H877   H     0.45782   0.44376   0.61319   0.00000  Uiso   1.00
H878   H     0.37370   0.47597   0.38091   0.00000  Uiso   1.00
H879   H     0.35940   0.42651   0.40674   0.00000  Uiso   1.00
H880   H     0.64776   0.44731   0.36108   0.00000  Uiso   1.00
H881   H     0.61264   0.46160   0.42321   0.00000  Uiso   1.00
H882   H     0.64195   0.51197   0.41595   0.00000  Uiso   1.00
N883   N     0.49999   0.49999   0.61907   0.00000  Uiso   1.00
N884   N     0.50001   0.50001   0.38093   0.00000  Uiso   1.00
N885   N     0.59879   0.38440   0.42704   0.00000  Uiso   1.00
N886   N     0.40278   0.61204   0.57367   0.00000  Uiso   1.00
O887   O     0.50000   0.43892   0.53821   0.00000  Uiso   1.00
O888   O     0.50000   0.56108   0.46179   0.00000  Uiso   1.00
O889   O     0.50000   0.43893   0.46176   0.00000  Uiso   1.00
O890   O     0.50000   0.56107   0.53824   0.00000  Uiso   1.00
O891   O     0.42392   0.50000   0.52928   0.00000  Uiso   1.00
O892   O     0.57608   0.50000   0.47072   0.00000  Uiso   1.00
O893   O     0.42392   0.50000   0.45284   0.00000  Uiso   1.00
O894   O     0.57608   0.50000   0.54716   0.00000  Uiso   1.00
Zn895  Zn    0.50000   0.49999   0.55104   0.00000  Uiso   1.00
Zn896  Zn    0.50000   0.50001   0.44896   0.00000  Uiso   1.00
C897   C     0.83361   0.42003   0.49909   0.00000  Uiso   1.00
C898   C     0.79991   0.35648   0.52401   0.00000  Uiso   1.00
C899   C     0.83326   0.62405   0.50251   0.00000  Uiso   1.00
C900   C     0.83273   0.37572   0.49770   0.00000  Uiso   1.00
C901   C     0.85710   0.53170   0.36298   0.00000  Uiso   1.00
C902   C     0.80926   0.46854   0.63672   0.00000  Uiso   1.00
C903   C     0.86063   0.53047   0.64910   0.00000  Uiso   1.00
C904   C     0.81167   0.46674   0.35139   0.00000  Uiso   1.00
C905   C     0.98334   0.47980   0.42715   0.00000  Uiso   1.00
C906   C     0.67691   0.45592   0.39235   0.00000  Uiso   1.00
C907   C     0.67564   0.45666   0.55717   0.00000  Uiso   1.00
C908   C     0.83273   0.57987   0.50091   0.00000  Uiso   1.00
C909   C     0.97360   0.41973   0.56481   0.00000  Uiso   1.00
C910   C     0.90251   0.37076   0.44797   0.00000  Uiso   1.00
C911   C     0.76450   0.62759   0.55280   0.00000  Uiso   1.00
C912   C     0.89733   0.56218   0.63408   0.00000  Uiso   1.00
C913   C     0.95402   0.55870   0.65891   0.00000  Uiso   1.00
C914   C     0.79663   0.42602   0.36990   0.00000  Uiso   1.00
C915   C     0.76247   0.39483   0.33643   0.00000  Uiso   1.00
C916   C     0.73382   0.49399   0.48718   0.00000  Uiso   1.00
C917   C     0.93266   0.49468   0.51132   0.00000  Uiso   1.00
C918   C     0.67832   0.48177   0.47774   0.00000  Uiso   1.00
C919   C     0.98598   0.47918   0.51449   0.00000  Uiso   1.00
C920   C     0.86611   0.35249   0.47374   0.00000  Uiso   1.00
C921   C     0.79998   0.64703   0.52672   0.00000  Uiso   1.00
C922   C     0.86605   0.64321   0.47643   0.00000  Uiso   1.00
H923   H     0.89189   0.62474   0.45833   0.00000  Uiso   1.00
H924   H     0.93748   0.43058   0.57706   0.00000  Uiso   1.00
H925   H     0.96259   0.40004   0.53271   0.00000  Uiso   1.00
H926   H     0.99482   0.39986   0.59097   0.00000  Uiso   1.00
H927   H     0.71409   0.44283   0.55374   0.00000  Uiso   1.00
H928   H     0.68123   0.47890   0.58763   0.00000  Uiso   1.00
H929   H     0.95747   0.56872   0.36227   0.00000  Uiso   1.00
H930   H     0.96741   0.52603   0.65564   0.00000  Uiso   1.00
H931   H     0.98043   0.57937   0.64346   0.00000  Uiso   1.00
H932   H     0.89940   0.55765   0.59783   0.00000  Uiso   1.00
H933   H     0.88313   0.59422   0.64025   0.00000  Uiso   1.00
H934   H     0.77420   0.37491   0.54227   0.00000  Uiso   1.00
H935   H     0.72704   0.41044   0.65259   0.00000  Uiso   1.00
H936   H     0.78511   0.38113   0.64414   0.00000  Uiso   1.00
H937   H     0.74941   0.36880   0.35551   0.00000  Uiso   1.00
H938   H     0.83331   0.41019   0.38376   0.00000  Uiso   1.00
H939   H     0.77421   0.43317   0.39727   0.00000  Uiso   1.00
H940   H     0.87619   0.55680   0.38582   0.00000  Uiso   1.00
H941   H     0.79116   0.44376   0.61319   0.00000  Uiso   1.00
H942   H     0.70703   0.47597   0.38091   0.00000  Uiso   1.00
H943   H     0.69273   0.42651   0.40674   0.00000  Uiso   1.00
H944   H     0.98109   0.44731   0.36108   0.00000  Uiso   1.00
H945   H     0.94597   0.46160   0.42321   0.00000  Uiso   1.00
H946   H     0.97528   0.51197   0.41595   0.00000  Uiso   1.00
N947   N     0.83332   0.49999   0.61907   0.00000  Uiso   1.00
N948   N     0.83335   0.50001   0.38093   0.00000  Uiso   1.00
N949   N     0.93212   0.38440   0.42704   0.00000  Uiso   1.00
N950   N     0.73611   0.61204   0.57367   0.00000  Uiso   1.00
O951   O     0.83333   0.43892   0.53821   0.00000  Uiso   1.00
O952   O     0.83334   0.56108   0.46179   0.00000  Uiso   1.00
O953   O     0.83333   0.43893   0.46176   0.00000  Uiso   1.00
O954   O     0.83334   0.56107   0.53824   0.00000  Uiso   1.00
O955   O     0.75725   0.50000   0.52928   0.00000  Uiso   1.00
O956   O     0.90942   0.50000   0.47072   0.00000  Uiso   1.00
O957   O     0.75725   0.50000   0.45284   0.00000  Uiso   1.00
O958   O     0.90942   0.50000   0.54716   0.00000  Uiso   1.00
Zn959  Zn    0.83333   0.49999   0.55104   0.00000  Uiso   1.00
Zn960  Zn    0.83333   0.50001   0.44896   0.00000  Uiso   1.00
C961   C     0.16695   0.75336   0.49909   0.00000  Uiso   1.00
C962   C     0.13324   0.68981   0.52401   0.00000  Uiso   1.00
C963   C     0.16659   0.95738   0.50251   0.00000  Uiso   1.00
C964   C     0.16606   0.70905   0.49770   0.00000  Uiso   1.00
C965   C     0.19044   0.86503   0.36298   0.00000  Uiso   1.00
C966   C     0.14259   0.80187   0.63672   0.00000  Uiso   1.00
C967   C     0.19397   0.86380   0.64910   0.00000  Uiso   1.00
C968   C     0.14500   0.80007   0.35139   0.00000  Uiso   1.00
C969   C     0.31667   0.81314   0.42715   0.00000  Uiso   1.00
C970   C     0.01024   0.78925   0.39235   0.00000  Uiso   1.00
C971   C     0.00897   0.79000   0.55717   0.00000  Uiso   1.00
C972   C     0.16606   0.91320   0.50091   0.00000  Uiso   1.00
C973   C     0.30694   0.75306   0.56481   0.00000  Uiso   1.00
C974   C     0.23585   0.70409   0.44797   0.00000  Uiso   1.00
C975   C     0.09783   0.96092   0.55280   0.00000  Uiso   1.00
C976   C     0.23066   0.89552   0.63408   0.00000  Uiso   1.00
C977   C     0.28735   0.89203   0.65891   0.00000  Uiso   1.00
C978   C     0.12996   0.75935   0.36990   0.00000  Uiso   1.00
C979   C     0.09580   0.72817   0.33643   0.00000  Uiso   1.00
C980   C     0.06715   0.82732   0.48718   0.00000  Uiso   1.00
C981   C     0.26599   0.82802   0.51132   0.00000  Uiso   1.00
C982   C     0.01165   0.81511   0.47774   0.00000  Uiso   1.00
C983   C     0.31931   0.81251   0.51449   0.00000  Uiso   1.00
C984   C     0.19944   0.68582   0.47374   0.00000  Uiso   1.00
C985   C     0.13331   0.98037   0.52672   0.00000  Uiso   1.00
C986   C     0.19938   0.97655   0.47643   0.00000  Uiso   1.00
H987   H     0.22523   0.95807   0.45833   0.00000  Uiso   1.00
H988   H     0.27082   0.76392   0.57706   0.00000  Uiso   1.00
H989   H     0.29592   0.73337   0.53271   0.00000  Uiso   1.00
H990   H     0.32815   0.73319   0.59097   0.00000  Uiso   1.00
H991   H     0.04742   0.77617   0.55374   0.00000  Uiso   1.00
H992   H     0.01456   0.81224   0.58763   0.00000  Uiso   1.00
H993   H     0.29080   0.90206   0.36227   0.00000  Uiso   1.00
H994   H     0.30074   0.85936   0.65564   0.00000  Uiso   1.00
H995   H     0.31376   0.91271   0.64346   0.00000  Uiso   1.00
H996   H     0.23273   0.89099   0.59783   0.00000  Uiso   1.00
H997   H     0.21646   0.92756   0.64025   0.00000  Uiso   1.00
H998   H     0.10754   0.70824   0.54227   0.00000  Uiso   1.00
H999   H     0.06038   0.74377   0.65259   0.00000  Uiso   1.00
H1000  H     0.11844   0.71446   0.64414   0.00000  Uiso   1.00
H1001  H     0.08274   0.70213   0.35551   0.00000  Uiso   1.00
H1002  H     0.16665   0.74352   0.38376   0.00000  Uiso   1.00
H1003  H     0.10755   0.76651   0.39727   0.00000  Uiso   1.00
H1004  H     0.20952   0.89014   0.38582   0.00000  Uiso   1.00
H1005  H     0.12449   0.77709   0.61319   0.00000  Uiso   1.00
H1006  H     0.04037   0.80931   0.38091   0.00000  Uiso   1.00
H1007  H     0.02607   0.75984   0.40674   0.00000  Uiso   1.00
H1008  H     0.31442   0.78064   0.36108   0.00000  Uiso   1.00
H1009  H     0.27930   0.79493   0.42321   0.00000  Uiso   1.00
H1010  H     0.30861   0.84530   0.41595   0.00000  Uiso   1.00
N1011  N     0.16665   0.83332   0.61907   0.00000  Uiso   1.00
N1012  N     0.16668   0.83334   0.38093   0.00000  Uiso   1.00
N1013  N     0.26546   0.71773   0.42704   0.00000  Uiso   1.00
N1014  N     0.06944   0.94537   0.57367   0.00000  Uiso   1.00
O1015  O     0.16666   0.77225   0.53821   0.00000  Uiso   1.00
O1016  O     0.16667   0.89442   0.46179   0.00000  Uiso   1.00
O1017  O     0.16666   0.77226   0.46176   0.00000  Uiso   1.00
O1018  O     0.16667   0.89441   0.53824   0.00000  Uiso   1.00
O1019  O     0.09058   0.83333   0.52928   0.00000  Uiso   1.00
O1020  O     0.24275   0.83334   0.47072   0.00000  Uiso   1.00
O1021  O     0.09058   0.83334   0.45284   0.00000  Uiso   1.00
O1022  O     0.24275   0.83333   0.54716   0.00000  Uiso   1.00
Zn1023 Zn    0.16667   0.83333   0.55104   0.00000  Uiso   1.00
Zn1024 Zn    0.16667   0.83334   0.44896   0.00000  Uiso   1.00
C1025  C     0.50028   0.75336   0.49909   0.00000  Uiso   1.00
C1026  C     0.46657   0.68981   0.52401   0.00000  Uiso   1.00
C1027  C     0.49992   0.95738   0.50251   0.00000  Uiso   1.00
C1028  C     0.49940   0.70905   0.49770   0.00000  Uiso   1.00
C1029  C     0.52377   0.86503   0.36298   0.00000  Uiso   1.00
C1030  C     0.47592   0.80187   0.63672   0.00000  Uiso   1.00
C1031  C     0.52730   0.86380   0.64910   0.00000  Uiso   1.00
C1032  C     0.47834   0.80007   0.35139   0.00000  Uiso   1.00
C1033  C     0.65000   0.81314   0.42715   0.00000  Uiso   1.00
C1034  C     0.34358   0.78925   0.39235   0.00000  Uiso   1.00
C1035  C     0.34230   0.79000   0.55717   0.00000  Uiso   1.00
C1036  C     0.49939   0.91320   0.50091   0.00000  Uiso   1.00
C1037  C     0.64027   0.75306   0.56481   0.00000  Uiso   1.00
C1038  C     0.56918   0.70409   0.44797   0.00000  Uiso   1.00
C1039  C     0.43117   0.96092   0.55280   0.00000  Uiso   1.00
C1040  C     0.56399   0.89552   0.63408   0.00000  Uiso   1.00
C1041  C     0.62068   0.89203   0.65891   0.00000  Uiso   1.00
C1042  C     0.46330   0.75935   0.36990   0.00000  Uiso   1.00
C1043  C     0.42914   0.72817   0.33643   0.00000  Uiso   1.00
C1044  C     0.40049   0.82732   0.48718   0.00000  Uiso   1.00
C1045  C     0.59933   0.82802   0.51132   0.00000  Uiso   1.00
C1046  C     0.34498   0.81511   0.47774   0.00000  Uiso   1.00
C1047  C     0.65264   0.81251   0.51449   0.00000  Uiso   1.00
C1048  C     0.53277   0.68582   0.47374   0.00000  Uiso   1.00
C1049  C     0.46665   0.98037   0.52672   0.00000  Uiso   1.00
C1050  C     0.53272   0.97655   0.47643   0.00000  Uiso   1.00
H1051  H     0.55856   0.95807   0.45833   0.00000  Uiso   1.00
H1052  H     0.60415   0.76392   0.57706   0.00000  Uiso   1.00
H1053  H     0.62926   0.73337   0.53271   0.00000  Uiso   1.00
H1054  H     0.66148   0.73319   0.59097   0.00000  Uiso   1.00
H1055  H     0.38075   0.77617   0.55374   0.00000  Uiso   1.00
H1056  H     0.34790   0.81224   0.58763   0.00000  Uiso   1.00
H1057  H     0.62413   0.90206   0.36227   0.00000  Uiso   1.00
H1058  H     0.63407   0.85936   0.65564   0.00000  Uiso   1.00
H1059  H     0.64709   0.91271   0.64346   0.00000  Uiso   1.00
H1060  H     0.56607   0.89099   0.59783   0.00000  Uiso   1.00
H1061  H     0.54979   0.92756   0.64025   0.00000  Uiso   1.00
H1062  H     0.44087   0.70824   0.54227   0.00000  Uiso   1.00
H1063  H     0.39371   0.74377   0.65259   0.00000  Uiso   1.00
H1064  H     0.45178   0.71446   0.64414   0.00000  Uiso   1.00
H1065  H     0.41607   0.70213   0.35551   0.00000  Uiso   1.00
H1066  H     0.49998   0.74352   0.38376   0.00000  Uiso   1.00
H1067  H     0.44088   0.76651   0.39727   0.00000  Uiso   1.00
H1068  H     0.54285   0.89014   0.38582   0.00000  Uiso   1.00
H1069  H     0.45782   0.77709   0.61319   0.00000  Uiso   1.00
H1070  H     0.37370   0.80931   0.38091   0.00000  Uiso   1.00
H1071  H     0.35940   0.75984   0.40674   0.00000  Uiso   1.00
H1072  H     0.64776   0.78064   0.36108   0.00000  Uiso   1.00
H1073  H     0.61264   0.79493   0.42321   0.00000  Uiso   1.00
H1074  H     0.64195   0.84530   0.41595   0.00000  Uiso   1.00
N1075  N     0.49999   0.83332   0.61907   0.00000  Uiso   1.00
N1076  N     0.50001   0.83334   0.38093   0.00000  Uiso   1.00
N1077  N     0.59879   0.71773   0.42704   0.00000  Uiso   1.00
N1078  N     0.40278   0.94537   0.57367   0.00000  Uiso   1.00
O1079  O     0.50000   0.77225   0.53821   0.00000  Uiso   1.00
O1080  O     0.50000   0.89442   0.46179   0.00000  Uiso   1.00
O1081  O     0.50000   0.77226   0.46176   0.00000  Uiso   1.00
O1082  O     0.50000   0.89441   0.53824   0.00000  Uiso   1.00
O1083  O     0.42392   0.83333   0.52928   0.00000  Uiso   1.00
O1084  O     0.57608   0.83334   0.47072   0.00000  Uiso   1.00
O1085  O     0.42392   0.83334   0.45284   0.00000  Uiso   1.00
O1086  O     0.57608   0.83333   0.54716   0.00000  Uiso   1.00
Zn1087 Zn    0.50000   0.83333   0.55104   0.00000  Uiso   1.00
Zn1088 Zn    0.50000   0.83334   0.44896   0.00000  Uiso   1.00
C1089  C     0.83361   0.75336   0.49909   0.00000  Uiso   1.00
C1090  C     0.79991   0.68981   0.52401   0.00000  Uiso   1.00
C1091  C     0.83326   0.95738   0.50251   0.00000  Uiso   1.00
C1092  C     0.83273   0.70905   0.49770   0.00000  Uiso   1.00
C1093  C     0.85710   0.86503   0.36298   0.00000  Uiso   1.00
C1094  C     0.80926   0.80187   0.63672   0.00000  Uiso   1.00
C1095  C     0.86063   0.86380   0.64910   0.00000  Uiso   1.00
C1096  C     0.81167   0.80007   0.35139   0.00000  Uiso   1.00
C1097  C     0.98334   0.81314   0.42715   0.00000  Uiso   1.00
C1098  C     0.67691   0.78925   0.39235   0.00000  Uiso   1.00
C1099  C     0.67564   0.79000   0.55717   0.00000  Uiso   1.00
C1100  C     0.83273   0.91320   0.50091   0.00000  Uiso   1.00
C1101  C     0.97360   0.75306   0.56481   0.00000  Uiso   1.00
C1102  C     0.90251   0.70409   0.44797   0.00000  Uiso   1.00
C1103  C     0.76450   0.96092   0.55280   0.00000  Uiso   1.00
C1104  C     0.89733   0.89552   0.63408   0.00000  Uiso   1.00
C1105  C     0.95402   0.89203   0.65891   0.00000  Uiso   1.00
C1106  C     0.79663   0.75935   0.36990   0.00000  Uiso   1.00
C1107  C     0.76247   0.72817   0.33643   0.00000  Uiso   1.00
C1108  C     0.73382   0.82732   0.48718   0.00000  Uiso   1.00
C1109  C     0.93266   0.82802   0.51132   0.00000  Uiso   1.00
C1110  C     0.67832   0.81511   0.47774   0.00000  Uiso   1.00
C1111  C     0.98598   0.81251   0.51449   0.00000  Uiso   1.00
C1112  C     0.86611   0.68582   0.47374   0.00000  Uiso   1.00
C1113  C     0.79998   0.98037   0.52672   0.00000  Uiso   1.00
C1114  C     0.86605   0.97655   0.47643   0.00000  Uiso   1.00
H1115  H     0.89189   0.95807   0.45833   0.00000  Uiso   1.00
H1116  H     0.93748   0.76392   0.57706   0.00000  Uiso   1.00
H1117  H     0.96259   0.73337   0.53271   0.00000  Uiso   1.00
H1118  H     0.99482   0.73319   0.59097   0.00000  Uiso   1.00
H1119  H     0.71409   0.77617   0.55374   0.00000  Uiso   1.00
H1120  H     0.68123   0.81224   0.58763   0.00000  Uiso   1.00
H1121  H     0.95747   0.90206   0.36227   0.00000  Uiso   1.00
H1122  H     0.96741   0.85936   0.65564   0.00000  Uiso   1.00
H1123  H     0.98043   0.91271   0.64346   0.00000  Uiso   1.00
H1124  H     0.89940   0.89099   0.59783   0.00000  Uiso   1.00
H1125  H     0.88313   0.92756   0.64025   0.00000  Uiso   1.00
H1126  H     0.77420   0.70824   0.54227   0.00000  Uiso   1.00
H1127  H     0.72704   0.74377   0.65259   0.00000  Uiso   1.00
H1128  H     0.78511   0.71446   0.64414   0.00000  Uiso   1.00
H1129  H     0.74941   0.70213   0.35551   0.00000  Uiso   1.00
H1130  H     0.83331   0.74352   0.38376   0.00000  Uiso   1.00
H1131  H     0.77421   0.76651   0.39727   0.00000  Uiso   1.00
H1132  H     0.87619   0.89014   0.38582   0.00000  Uiso   1.00
H1133  H     0.79116   0.77709   0.61319   0.00000  Uiso   1.00
H1134  H     0.70703   0.80931   0.38091   0.00000  Uiso   1.00
H1135  H     0.69273   0.75984   0.40674   0.00000  Uiso   1.00
H1136  H     0.98109   0.78064   0.36108   0.00000  Uiso   1.00
H1137  H     0.94597   0.79493   0.42321   0.00000  Uiso   1.00
H1138  H     0.97528   0.84530   0.41595   0.00000  Uiso   1.00
N1139  N     0.83332   0.83332   0.61907   0.00000  Uiso   1.00
N1140  N     0.83335   0.83334   0.38093   0.00000  Uiso   1.00
N1141  N     0.93212   0.71773   0.42704   0.00000  Uiso   1.00
N1142  N     0.73611   0.94537   0.57367   0.00000  Uiso   1.00
O1143  O     0.83333   0.77225   0.53821   0.00000  Uiso   1.00
O1144  O     0.83334   0.89442   0.46179   0.00000  Uiso   1.00
O1145  O     0.83333   0.77226   0.46176   0.00000  Uiso   1.00
O1146  O     0.83334   0.89441   0.53824   0.00000  Uiso   1.00
O1147  O     0.75725   0.83333   0.52928   0.00000  Uiso   1.00
O1148  O     0.90942   0.83334   0.47072   0.00000  Uiso   1.00
O1149  O     0.75725   0.83334   0.45284   0.00000  Uiso   1.00
O1150  O     0.90942   0.83333   0.54716   0.00000  Uiso   1.00
Zn1151 Zn    0.83333   0.83333   0.55104   0.00000  Uiso   1.00
Zn1152 Zn    0.83333   0.83334   0.44896   0.00000  Uiso   1.00
C1153  C     0.16695   0.08670   0.83242   0.00000  Uiso   1.00
C1154  C     0.13324   0.02314   0.85734   0.00000  Uiso   1.00
C1155  C     0.16659   0.29072   0.83584   0.00000  Uiso   1.00
C1156  C     0.16606   0.04238   0.83103   0.00000  Uiso   1.00
C1157  C     0.19044   0.19837   0.69632   0.00000  Uiso   1.00
C1158  C     0.14259   0.13520   0.97006   0.00000  Uiso   1.00
C1159  C     0.19397   0.19714   0.98244   0.00000  Uiso   1.00
C1160  C     0.14500   0.13341   0.68473   0.00000  Uiso   1.00
C1161  C     0.31667   0.14647   0.76049   0.00000  Uiso   1.00
C1162  C     0.01024   0.12259   0.72568   0.00000  Uiso   1.00
C1163  C     0.00897   0.12333   0.89050   0.00000  Uiso   1.00
C1164  C     0.16606   0.24653   0.83425   0.00000  Uiso   1.00
C1165  C     0.30694   0.08639   0.89814   0.00000  Uiso   1.00
C1166  C     0.23585   0.03742   0.78130   0.00000  Uiso   1.00
C1167  C     0.09783   0.29426   0.88614   0.00000  Uiso   1.00
C1168  C     0.23066   0.22885   0.96742   0.00000  Uiso   1.00
C1169  C     0.28735   0.22537   0.99224   0.00000  Uiso   1.00
C1170  C     0.12996   0.09269   0.70323   0.00000  Uiso   1.00
C1171  C     0.09580   0.06150   0.66976   0.00000  Uiso   1.00
C1172  C     0.06715   0.16066   0.82051   0.00000  Uiso   1.00
C1173  C     0.26599   0.16135   0.84466   0.00000  Uiso   1.00
C1174  C     0.01165   0.14844   0.81107   0.00000  Uiso   1.00
C1175  C     0.31931   0.14584   0.84783   0.00000  Uiso   1.00
C1176  C     0.19944   0.01915   0.80707   0.00000  Uiso   1.00
C1177  C     0.13331   0.31370   0.86006   0.00000  Uiso   1.00
C1178  C     0.19938   0.30988   0.80977   0.00000  Uiso   1.00
H1179  H     0.22523   0.29140   0.79166   0.00000  Uiso   1.00
H1180  H     0.27082   0.09725   0.91039   0.00000  Uiso   1.00
H1181  H     0.29592   0.06670   0.86604   0.00000  Uiso   1.00
H1182  H     0.32815   0.06652   0.92430   0.00000  Uiso   1.00
H1183  H     0.04742   0.10950   0.88708   0.00000  Uiso   1.00
H1184  H     0.01456   0.14557   0.92096   0.00000  Uiso   1.00
H1185  H     0.29080   0.23539   0.69560   0.00000  Uiso   1.00
H1186  H     0.30074   0.19270   0.98898   0.00000  Uiso   1.00
H1187  H     0.31376   0.24604   0.97680   0.00000  Uiso   1.00
H1188  H     0.23273   0.22432   0.93116   0.00000  Uiso   1.00
H1189  H     0.21646   0.26089   0.97359   0.00000  Uiso   1.00
H1190  H     0.10754   0.04158   0.87560   0.00000  Uiso   1.00
H1191  H     0.06038   0.07711   0.98593   0.00000  Uiso   1.00
H1192  H     0.11844   0.04779   0.97747   0.00000  Uiso   1.00
H1193  H     0.08274   0.03547   0.68884   0.00000  Uiso   1.00
H1194  H     0.16665   0.07685   0.71709   0.00000  Uiso   1.00
H1195  H     0.10755   0.09984   0.73060   0.00000  Uiso   1.00
H1196  H     0.20952   0.22347   0.71916   0.00000  Uiso   1.00
H1197  H     0.12449   0.11042   0.94652   0.00000  Uiso   1.00
H1198  H     0.04037   0.14264   0.71425   0.00000  Uiso   1.00
H1199  H     0.02607   0.09318   0.74007   0.00000  Uiso   1.00
H1200  H     0.31442   0.11397   0.69442   0.00000  Uiso   1.00
H1201  H     0.27930   0.12827   0.75654   0.00000  Uiso   1.00
H1202  H     0.30861   0.17863   0.74928   0.00000  Uiso   1.00
N1203  N     0.16665   0.16666   0.95240   0.00000  Uiso   1.00
N1204  N     0.16668   0.16668   0.71427   0.00000  Uiso   1.00
N1205  N     0.26546   0.05107   0.76038   0.00000  Uiso   1.00
N1206  N     0.06944   0.27870   0.90701   0.00000  Uiso   1.00
O1207  O     0.16666   0.10558   0.87154   0.00000  Uiso   1.00
O1208  O     0.16667   0.22775   0.79513   0.00000  Uiso   1.00
O1209  O     0.16666   0.10559   0.79510   0.00000  Uiso   1.00
O1210  O     0.16667   0.22774   0.87157   0.00000  Uiso   1.00
O1211  O     0.09058   0.16666   0.86261   0.00000  Uiso   1.00
O1212  O     0.24275   0.16667   0.80405   0.00000  Uiso   1.00
O1213  O     0.09058   0.16667   0.78617   0.00000  Uiso   1.00
O1214  O     0.24275   0.16666   0.88050   0.00000  Uiso   1.00
Zn1215 Zn    0.16667   0.16666   0.88437   0.00000  Uiso   1.00
Zn1216 Zn    0.16667   0.16667   0.78229   0.00000  Uiso   1.00
C1217  C     0.50028   0.08670   0.83242   0.00000  Uiso   1.00
C1218  C     0.46657   0.02314   0.85734   0.00000  Uiso   1.00
C1219  C     0.49992   0.29072   0.83584   0.00000  Uiso   1.00
C1220  C     0.49940   0.04238   0.83103   0.00000  Uiso   1.00
C1221  C     0.52377   0.19837   0.69632   0.00000  Uiso   1.00
C1222  C     0.47592   0.13520   0.97006   0.00000  Uiso   1.00
C1223  C     0.52730   0.19714   0.98244   0.00000  Uiso   1.00
C1224  C     0.47834   0.13341   0.68473   0.00000  Uiso   1.00
C1225  C     0.65000   0.14647   0.76049   0.00000  Uiso   1.00
C1226  C     0.34358   0.12259   0.72568   0.00000  Uiso   1.00
C1227  C     0.34230   0.12333   0.89050   0.00000  Uiso   1.00
C1228  C     0.49939   0.24653   0.83425   0.00000  Uiso   1.00
C1229  C     0.64027   0.08639   0.89814   0.00000  Uiso   1.00
C1230  C     0.56918   0.03742   0.78130   0.00000  Uiso   1.00
C1231  C     0.43117   0.29426   0.88614   0.00000  Uiso   1.00
C1232  C     0.56399   0.22885   0.96742   0.00000  Uiso   1.00
C1233  C     0.62068   0.22537   0.99224   0.00000  Uiso   1.00
C1234  C     0.46330   0.09269   0.70323   0.00000  Uiso   1.00
C1235  C     0.42914   0.06150   0.66976   0.00000  Uiso   1.00
C1236  C     0.40049   0.16066   0.82051   0.00000  Uiso   1.00
C1237  C     0.59933   0.16135   0.84466   0.00000  Uiso   1.00
C1238  C     0.34498   0.14844   0.81107   0.00000  Uiso   1.00
C1239  C     0.65264   0.14584   0.84783   0.00000  Uiso   1.00
C1240  C     0.53277   0.01915   0.80707   0.00000  Uiso   1.00
C1241  C     0.46665   0.31370   0.86006   0.00000  Uiso   1.00
C1242  C     0.53272   0.30988   0.80977   0.00000  Uiso   1.00
H1243  H     0.55856   0.29140   0.79166   0.00000  Uiso   1.00
H1244  H     0.60415   0.09725   0.91039   0.00000  Uiso   1.00
H1245  H     0.62926   0.06670   0.86604   0.00000  Uiso   1.00
H1246  H     0.66148   0.06652   0.92430   0.00000  Uiso   1.00
H1247  H     0.38075   0.10950   0.88708   0.00000  Uiso   1.00
H1248  H     0.34790   0.14557   0.92096   0.00000  Uiso   1.00
H1249  H     0.62413   0.23539   0.69560   0.00000  Uiso   1.00
H1250  H     0.63407   0.19270   0.98898   0.00000  Uiso   1.00
H1251  H     0.64709   0.24604   0.97680   0.00000  Uiso   1.00
H1252  H     0.56607   0.22432   0.93116   0.00000  Uiso   1.00
H1253  H     0.54979   0.26089   0.97359   0.00000  Uiso   1.00
H1254  H     0.44087   0.04158   0.87560   0.00000  Uiso   1.00
H1255  H     0.39371   0.07711   0.98593   0.00000  Uiso   1.00
H1256  H     0.45178   0.04779   0.97747   0.00000  Uiso   1.00
H1257  H     0.41607   0.03547   0.68884   0.00000  Uiso   1.00
H1258  H     0.49998   0.07685   0.71709   0.00000  Uiso   1.00
H1259  H     0.44088   0.09984   0.73060   0.00000  Uiso   1.00
H1260  H     0.54285   0.22347   0.71916   0.00000  Uiso   1.00
H1261  H     0.45782   0.11042   0.94652   0.00000  Uiso   1.00
H1262  H     0.37370   0.14264   0.71425   0.00000  Uiso   1.00
H1263  H     0.35940   0.09318   0.74007   0.00000  Uiso   1.00
H1264  H     0.64776   0.11397   0.69442   0.00000  Uiso   1.00
H1265  H     0.61264   0.12827   0.75654   0.00000  Uiso   1.00
H1266  H     0.64195   0.17863   0.74928   0.00000  Uiso   1.00
N1267  N     0.49999   0.16666   0.95240   0.00000  Uiso   1.00
N1268  N     0.50001   0.16668   0.71427   0.00000  Uiso   1.00
N1269  N     0.59879   0.05107   0.76038   0.00000  Uiso   1.00
N1270  N     0.40278   0.27870   0.90701   0.00000  Uiso   1.00
O1271  O     0.50000   0.10558   0.87154   0.00000  Uiso   1.00
O1272  O     0.50000   0.22775   0.79513   0.00000  Uiso   1.00
O1273  O     0.50000   0.10559   0.79510   0.00000  Uiso   1.00
O1274  O     0.50000   0.22774   0.87157   0.00000  Uiso   1.00
O1275  O     0.42392   0.16666   0.86261   0.00000  Uiso   1.00
O1276  O     0.57608   0.16667   0.80405   0.00000  Uiso   1.00
O1277  O     0.42392   0.16667   0.78617   0.00000  Uiso   1.00
O1278  O     0.57608   0.16666   0.88050   0.00000  Uiso   1.00
Zn1279 Zn    0.50000   0.16666   0.88437   0.00000  Uiso   1.00
Zn1280 Zn    0.50000   0.16667   0.78229   0.00000  Uiso   1.00
C1281  C     0.83361   0.08670   0.83242   0.00000  Uiso   1.00
C1282  C     0.79991   0.02314   0.85734   0.00000  Uiso   1.00
C1283  C     0.83326   0.29072   0.83584   0.00000  Uiso   1.00
C1284  C     0.83273   0.04238   0.83103   0.00000  Uiso   1.00
C1285  C     0.85710   0.19837   0.69632   0.00000  Uiso   1.00
C1286  C     0.80926   0.13520   0.97006   0.00000  Uiso   1.00
C1287  C     0.86063   0.19714   0.98244   0.00000  Uiso   1.00
C1288  C     0.81167   0.13341   0.68473   0.00000  Uiso   1.00
C1289  C     0.98334   0.14647   0.76049   0.00000  Uiso   1.00
C1290  C     0.67691   0.12259   0.72568   0.00000  Uiso   1.00
C1291  C     0.67564   0.12333   0.89050   0.00000  Uiso   1.00
C1292  C     0.83273   0.24653   0.83425   0.00000  Uiso   1.00
C1293  C     0.97360   0.08639   0.89814   0.00000  Uiso   1.00
C1294  C     0.90251   0.03742   0.78130   0.00000  Uiso   1.00
C1295  C     0.76450   0.29426   0.88614   0.00000  Uiso   1.00
C1296  C     0.89733   0.22885   0.96742   0.00000  Uiso   1.00
C1297  C     0.95402   0.22537   0.99224   0.00000  Uiso   1.00
C1298  C     0.79663   0.09269   0.70323   0.00000  Uiso   1.00
C1299  C     0.76247   0.06150   0.66976   0.00000  Uiso   1.00
C1300  C     0.73382   0.16066   0.82051   0.00000  Uiso   1.00
C1301  C     0.93266   0.16135   0.84466   0.00000  Uiso   1.00
C1302  C     0.67832   0.14844   0.81107   0.00000  Uiso   1.00
C1303  C     0.98598   0.14584   0.84783   0.00000  Uiso   1.00
C1304  C     0.86611   0.01915   0.80707   0.00000  Uiso   1.00
C1305  C     0.79998   0.31370   0.86006   0.00000  Uiso   1.00
C1306  C     0.86605   0.30988   0.80977   0.00000  Uiso   1.00
H1307  H     0.89189   0.29140   0.79166   0.00000  Uiso   1.00
H1308  H     0.93748   0.09725   0.91039   0.00000  Uiso   1.00
H1309  H     0.96259   0.06670   0.86604   0.00000  Uiso   1.00
H1310  H     0.99482   0.06652   0.92430   0.00000  Uiso   1.00
H1311  H     0.71409   0.10950   0.88708   0.00000  Uiso   1.00
H1312  H     0.68123   0.14557   0.92096   0.00000  Uiso   1.00
H1313  H     0.95747   0.23539   0.69560   0.00000  Uiso   1.00
H1314  H     0.96741   0.19270   0.98898   0.00000  Uiso   1.00
H1315  H     0.98043   0.24604   0.97680   0.00000  Uiso   1.00
H1316  H     0.89940   0.22432   0.93116   0.00000  Uiso   1.00
H1317  H     0.88313   0.26089   0.97359   0.00000  Uiso   1.00
H1318  H     0.77420   0.04158   0.87560   0.00000  Uiso   1.00
H1319  H     0.72704   0.07711   0.98593   0.00000  Uiso   1.00
H1320  H     0.78511   0.04779   0.97747   0.00000  Uiso   1.00
H1321  H     0.74941   0.03547   0.68884   0.00000  Uiso   1.00
H1322  H     0.83331   0.07685   0.71709   0.00000  Uiso   1.00
H1323  H     0.77421   0.09984   0.73060   0.00000  Uiso   1.00
H1324  H     0.87619   0.22347   0.71916   0.00000  Uiso   1.00
H1325  H     0.79116   0.11042   0.94652   0.00000  Uiso   1.00
H1326  H     0.70703   0.14264   0.71425   0.00000  Uiso   1.00
H1327  H     0.69273   0.09318   0.74007   0.00000  Uiso   1.00
H1328  H     0.98109   0.11397   0.69442   0.00000  Uiso   1.00
H1329  H     0.94597   0.12827   0.75654   0.00000  Uiso   1.00
H1330  H     0.97528   0.17863   0.74928   0.00000  Uiso   1.00
N1331  N     0.83332   0.16666   0.95240   0.00000  Uiso   1.00
N1332  N     0.83335   0.16668   0.71427   0.00000  Uiso   1.00
N1333  N     0.93212   0.05107   0.76038   0.00000  Uiso   1.00
N1334  N     0.73611   0.27870   0.90701   0.00000  Uiso   1.00
O1335  O     0.83333   0.10558   0.87154   0.00000  Uiso   1.00
O1336  O     0.83334   0.22775   0.79513   0.00000  Uiso   1.00
O1337  O     0.83333   0.10559   0.79510   0.00000  Uiso   1.00
O1338  O     0.83334   0.22774   0.87157   0.00000  Uiso   1.00
O1339  O     0.75725   0.16666   0.86261   0.00000  Uiso   1.00
O1340  O     0.90942   0.16667   0.80405   0.00000  Uiso   1.00
O1341  O     0.75725   0.16667   0.78617   0.00000  Uiso   1.00
O1342  O     0.90942   0.16666   0.88050   0.00000  Uiso   1.00
Zn1343 Zn    0.83333   0.16666   0.88437   0.00000  Uiso   1.00
Zn1344 Zn    0.83333   0.16667   0.78229   0.00000  Uiso   1.00
C1345  C     0.16695   0.42003   0.83242   0.00000  Uiso   1.00
C1346  C     0.13324   0.35648   0.85734   0.00000  Uiso   1.00
C1347  C     0.16659   0.62405   0.83584   0.00000  Uiso   1.00
C1348  C     0.16606   0.37572   0.83103   0.00000  Uiso   1.00
C1349  C     0.19044   0.53170   0.69632   0.00000  Uiso   1.00
C1350  C     0.14259   0.46854   0.97006   0.00000  Uiso   1.00
C1351  C     0.19397   0.53047   0.98244   0.00000  Uiso   1.00
C1352  C     0.14500   0.46674   0.68473   0.00000  Uiso   1.00
C1353  C     0.31667   0.47980   0.76049   0.00000  Uiso   1.00
C1354  C     0.01024   0.45592   0.72568   0.00000  Uiso   1.00
C1355  C     0.00897   0.45666   0.89050   0.00000  Uiso   1.00
C1356  C     0.16606   0.57987   0.83425   0.00000  Uiso   1.00
C1357  C     0.30694   0.41973   0.89814   0.00000  Uiso   1.00
C1358  C     0.23585   0.37076   0.78130   0.00000  Uiso   1.00
C1359  C     0.09783   0.62759   0.88614   0.00000  Uiso   1.00
C1360  C     0.23066   0.56218   0.96742   0.00000  Uiso   1.00
C1361  C     0.28735   0.55870   0.99224   0.00000  Uiso   1.00
C1362  C     0.12996   0.42602   0.70323   0.00000  Uiso   1.00
C1363  C     0.09580   0.39483   0.66976   0.00000  Uiso   1.00
C1364  C     0.06715   0.49399   0.82051   0.00000  Uiso   1.00
C1365  C     0.26599   0.49468   0.84466   0.00000  Uiso   1.00
C1366  C     0.01165   0.48177   0.81107   0.00000  Uiso   1.00
C1367  C     0.31931   0.47918   0.84783   0.00000  Uiso   1.00
C1368  C     0.19944   0.35249   0.80707   0.00000  Uiso   1.00
C1369  C     0.13331   0.64703   0.86006   0.00000  Uiso   1.00
C1370  C     0.19938   0.64321   0.80977   0.00000  Uiso   1.00
H1371  H     0.22523   0.62474   0.79166   0.00000  Uiso   1.00
H1372  H     0.27082   0.43058   0.91039   0.00000  Uiso   1.00
H1373  H     0.29592   0.40004   0.86604   0.00000  Uiso   1.00
H1374  H     0.32815   0.39986   0.92430   0.00000  Uiso   1.00
H1375  H     0.04742   0.44283   0.88708   0.00000  Uiso   1.00
H1376  H     0.01456   0.47890   0.92096   0.00000  Uiso   1.00
H1377  H     0.29080   0.56872   0.69560   0.00000  Uiso   1.00
H1378  H     0.30074   0.52603   0.98898   0.00000  Uiso   1.00
H1379  H     0.31376   0.57937   0.97680   0.00000  Uiso   1.00
H1380  H     0.23273   0.55765   0.93116   0.00000  Uiso   1.00
H1381  H     0.21646   0.59422   0.97359   0.00000  Uiso   1.00
H1382  H     0.10754   0.37491   0.87560   0.00000  Uiso   1.00
H1383  H     0.06038   0.41044   0.98593   0.00000  Uiso   1.00
H1384  H     0.11844   0.38113   0.97747   0.00000  Uiso   1.00
H1385  H     0.08274   0.36880   0.68884   0.00000  Uiso   1.00
H1386  H     0.16665   0.41019   0.71709   0.00000  Uiso   1.00
H1387  H     0.10755   0.43317   0.73060   0.00000  Uiso   1.00
H1388  H     0.20952   0.55680   0.71916   0.00000  Uiso   1.00
H1389  H     0.12449   0.44376   0.94652   0.00000  Uiso   1.00
H1390  H     0.04037   0.47597   0.71425   0.00000  Uiso   1.00
H1391  H     0.02607   0.42651   0.74007   0.00000  Uiso   1.00
H1392  H     0.31442   0.44731   0.69442   0.00000  Uiso   1.00
H1393  H     0.27930   0.46160   0.75654   0.00000  Uiso   1.00
H1394  H     0.30861   0.51197   0.74928   0.00000  Uiso   1.00
N1395  N     0.16665   0.49999   0.95240   0.00000  Uiso   1.00
N1396  N     0.16668   0.50001   0.71427   0.00000  Uiso   1.00
N1397  N     0.26546   0.38440   0.76038   0.00000  Uiso   1.00
N1398  N     0.06944   0.61204   0.90701   0.00000  Uiso   1.00
O1399  O     0.16666   0.43892   0.87154   0.00000  Uiso   1.00
O1400  O     0.16667   0.56108   0.79513   0.00000  Uiso   1.00
O1401  O     0.16666   0.43893   0.79510   0.00000  Uiso   1.00
O1402  O     0.16667   0.56107   0.87157   0.00000  Uiso   1.00
O1403  O     0.09058   0.50000   0.86261   0.00000  Uiso   1.00
O1404  O     0.24275   0.50000   0.80405   0.00000  Uiso   1.00
O1405  O     0.09058   0.50000   0.78617   0.00000  Uiso   1.00
O1406  O     0.24275   0.50000   0.88050   0.00000  Uiso   1.00
Zn1407 Zn    0.16667   0.49999   0.88437   0.00000  Uiso   1.00
Zn1408 Zn    0.16667   0.50001   0.78229   0.00000  Uiso   1.00
C1409  C     0.50028   0.42003   0.83242   0.00000  Uiso   1.00
C1410  C     0.46657   0.35648   0.85734   0.00000  Uiso   1.00
C1411  C     0.49992   0.62405   0.83584   0.00000  Uiso   1.00
C1412  C     0.49940   0.37572   0.83103   0.00000  Uiso   1.00
C1413  C     0.52377   0.53170   0.69632   0.00000  Uiso   1.00
C1414  C     0.47592   0.46854   0.97006   0.00000  Uiso   1.00
C1415  C     0.52730   0.53047   0.98244   0.00000  Uiso   1.00
C1416  C     0.47834   0.46674   0.68473   0.00000  Uiso   1.00
C1417  C     0.65000   0.47980   0.76049   0.00000  Uiso   1.00
C1418  C     0.34358   0.45592   0.72568   0.00000  Uiso   1.00
C1419  C     0.34230   0.45666   0.89050   0.00000  Uiso   1.00
C1420  C     0.49939   0.57987   0.83425   0.00000  Uiso   1.00
C1421  C     0.64027   0.41973   0.89814   0.00000  Uiso   1.00
C1422  C     0.56918   0.37076   0.78130   0.00000  Uiso   1.00
C1423  C     0.43117   0.62759   0.88614   0.00000  Uiso   1.00
C1424  C     0.56399   0.56218   0.96742   0.00000  Uiso   1.00
C1425  C     0.62068   0.55870   0.99224   0.00000  Uiso   1.00
C1426  C     0.46330   0.42602   0.70323   0.00000  Uiso   1.00
C1427  C     0.42914   0.39483   0.66976   0.00000  Uiso   1.00
C1428  C     0.40049   0.49399   0.82051   0.00000  Uiso   1.00
C1429  C     0.59933   0.49468   0.84466   0.00000  Uiso   1.00
C1430  C     0.34498   0.48177   0.81107   0.00000  Uiso   1.00
C1431  C     0.65264   0.47918   0.84783   0.00000  Uiso   1.00
C1432  C     0.53277   0.35249   0.80707   0.00000  Uiso   1.00
C1433  C     0.46665   0.64703   0.86006   0.00000  Uiso   1.00
C1434  C     0.53272   0.64321   0.80977   0.00000  Uiso   1.00
H1435  H     0.55856   0.62474   0.79166   0.00000  Uiso   1.00
H1436  H     0.60415   0.43058   0.91039   0.00000  Uiso   1.00
H1437  H     0.62926   0.40004   0.86604   0.00000  Uiso   1.00
H1438  H     0.66148   0.39986   0.92430   0.00000  Uiso   1.00
H1439  H     0.38075   0.44283   0.88708   0.00000  Uiso   1.00
H1440  H     0.34790   0.47890   0.92096   0.00000  Uiso   1.00
H1441  H     0.62413   0.56872   0.69560   0.00000  Uiso   1.00
H1442  H     0.63407   0.52603   0.98898   0.00000  Uiso   1.00
H1443  H     0.64709   0.57937   0.97680   0.00000  Uiso   1.00
H1444  H     0.56607   0.55765   0.93116   0.00000  Uiso   1.00
H1445  H     0.54979   0.59422   0.97359   0.00000  Uiso   1.00
H1446  H     0.44087   0.37491   0.87560   0.00000  Uiso   1.00
H1447  H     0.39371   0.41044   0.98593   0.00000  Uiso   1.00
H1448  H     0.45178   0.38113   0.97747   0.00000  Uiso   1.00
H1449  H     0.41607   0.36880   0.68884   0.00000  Uiso   1.00
H1450  H     0.49998   0.41019   0.71709   0.00000  Uiso   1.00
H1451  H     0.44088   0.43317   0.73060   0.00000  Uiso   1.00
H1452  H     0.54285   0.55680   0.71916   0.00000  Uiso   1.00
H1453  H     0.45782   0.44376   0.94652   0.00000  Uiso   1.00
H1454  H     0.37370   0.47597   0.71425   0.00000  Uiso   1.00
H1455  H     0.35940   0.42651   0.74007   0.00000  Uiso   1.00
H1456  H     0.64776   0.44731   0.69442   0.00000  Uiso   1.00
H1457  H     0.61264   0.46160   0.75654   0.00000  Uiso   1.00
H1458  H     0.64195   0.51197   0.74928   0.00000  Uiso   1.00
N1459  N     0.49999   0.49999   0.95240   0.00000  Uiso   1.00
N1460  N     0.50001   0.50001   0.71427   0.00000  Uiso   1.00
N1461  N     0.59879   0.38440   0.76038   0.00000  Uiso   1.00
N1462  N     0.40278   0.61204   0.90701   0.00000  Uiso   1.00
O1463  O     0.50000   0.43892   0.87154   0.00000  Uiso   1.00
O1464  O     0.50000   0.56108   0.79513   0.00000  Uiso   1.00
O1465  O     0.50000   0.43893   0.79510   0.00000  Uiso   1.00
O1466  O     0.50000   0.56107   0.87157   0.00000  Uiso   1.00
O1467  O     0.42392   0.50000   0.86261   0.00000  Uiso   1.00
O1468  O     0.57608   0.50000   0.80405   0.00000  Uiso   1.00
O1469  O     0.42392   0.50000   0.78617   0.00000  Uiso   1.00
O1470  O     0.57608   0.50000   0.88050   0.00000  Uiso   1.00
Zn1471 Zn    0.50000   0.49999   0.88437   0.00000  Uiso   1.00
Zn1472 Zn    0.50000   0.50001   0.78229   0.00000  Uiso   1.00
C1473  C     0.83361   0.42003   0.83242   0.00000  Uiso   1.00
C1474  C     0.79991   0.35648   0.85734   0.00000  Uiso   1.00
C1475  C     0.83326   0.62405   0.83584   0.00000  Uiso   1.00
C1476  C     0.83273   0.37572   0.83103   0.00000  Uiso   1.00
C1477  C     0.85710   0.53170   0.69632   0.00000  Uiso   1.00
C1478  C     0.80926   0.46854   0.97006   0.00000  Uiso   1.00
C1479  C     0.86063   0.53047   0.98244   0.00000  Uiso   1.00
C1480  C     0.81167   0.46674   0.68473   0.00000  Uiso   1.00
C1481  C     0.98334   0.47980   0.76049   0.00000  Uiso   1.00
C1482  C     0.67691   0.45592   0.72568   0.00000  Uiso   1.00
C1483  C     0.67564   0.45666   0.89050   0.00000  Uiso   1.00
C1484  C     0.83273   0.57987   0.83425   0.00000  Uiso   1.00
C1485  C     0.97360   0.41973   0.89814   0.00000  Uiso   1.00
C1486  C     0.90251   0.37076   0.78130   0.00000  Uiso   1.00
C1487  C     0.76450   0.62759   0.88614   0.00000  Uiso   1.00
C1488  C     0.89733   0.56218   0.96742   0.00000  Uiso   1.00
C1489  C     0.95402   0.55870   0.99224   0.00000  Uiso   1.00
C1490  C     0.79663   0.42602   0.70323   0.00000  Uiso   1.00
C1491  C     0.76247   0.39483   0.66976   0.00000  Uiso   1.00
C1492  C     0.73382   0.49399   0.82051   0.00000  Uiso   1.00
C1493  C     0.93266   0.49468   0.84466   0.00000  Uiso   1.00
C1494  C     0.67832   0.48177   0.81107   0.00000  Uiso   1.00
C1495  C     0.98598   0.47918   0.84783   0.00000  Uiso   1.00
C1496  C     0.86611   0.35249   0.80707   0.00000  Uiso   1.00
C1497  C     0.79998   0.64703   0.86006   0.00000  Uiso   1.00
C1498  C     0.86605   0.64321   0.80977   0.00000  Uiso   1.00
H1499  H     0.89189   0.62474   0.79166   0.00000  Uiso   1.00
H1500  H     0.93748   0.43058   0.91039   0.00000  Uiso   1.00
H1501  H     0.96259   0.40004   0.86604   0.00000  Uiso   1.00
H1502  H     0.99482   0.39986   0.92430   0.00000  Uiso   1.00
H1503  H     0.71409   0.44283   0.88708   0.00000  Uiso   1.00
H1504  H     0.68123   0.47890   0.92096   0.00000  Uiso   1.00
H1505  H     0.95747   0.56872   0.69560   0.00000  Uiso   1.00
H1506  H     0.96741   0.52603   0.98898   0.00000  Uiso   1.00
H1507  H     0.98043   0.57937   0.97680   0.00000  Uiso   1.00
H1508  H     0.89940   0.55765   0.93116   0.00000  Uiso   1.00
H1509  H     0.88313   0.59422   0.97359   0.00000  Uiso   1.00
H1510  H     0.77420   0.37491   0.87560   0.00000  Uiso   1.00
H1511  H     0.72704   0.41044   0.98593   0.00000  Uiso   1.00
H1512  H     0.78511   0.38113   0.97747   0.00000  Uiso   1.00
H1513  H     0.74941   0.36880   0.68884   0.00000  Uiso   1.00
H1514  H     0.83331   0.41019   0.71709   0.00000  Uiso   1.00
H1515  H     0.77421   0.43317   0.73060   0.00000  Uiso   1.00
H1516  H     0.87619   0.55680   0.71916   0.00000  Uiso   1.00
H1517  H     0.79116   0.44376   0.94652   0.00000  Uiso   1.00
H1518  H     0.70703   0.47597   0.71425   0.00000  Uiso   1.00
H1519  H     0.69273   0.42651   0.74007   0.00000  Uiso   1.00
H1520  H     0.98109   0.44731   0.69442   0.00000  Uiso   1.00
H1521  H     0.94597   0.46160   0.75654   0.00000  Uiso   1.00
H1522  H     0.97528   0.51197   0.74928   0.00000  Uiso   1.00
N1523  N     0.83332   0.49999   0.95240   0.00000  Uiso   1.00
N1524  N     0.83335   0.50001   0.71427   0.00000  Uiso   1.00
N1525  N     0.93212   0.38440   0.76038   0.00000  Uiso   1.00
N1526  N     0.73611   0.61204   0.90701   0.00000  Uiso   1.00
O1527  O     0.83333   0.43892   0.87154   0.00000  Uiso   1.00
O1528  O     0.83334   0.56108   0.79513   0.00000  Uiso   1.00
O1529  O     0.83333   0.43893   0.79510   0.00000  Uiso   1.00
O1530  O     0.83334   0.56107   0.87157   0.00000  Uiso   1.00
O1531  O     0.75725   0.50000   0.86261   0.00000  Uiso   1.00
O1532  O     0.90942   0.50000   0.80405   0.00000  Uiso   1.00
O1533  O     0.75725   0.50000   0.78617   0.00000  Uiso   1.00
O1534  O     0.90942   0.50000   0.88050   0.00000  Uiso   1.00
Zn1535 Zn    0.83333   0.49999   0.88437   0.00000  Uiso   1.00
Zn1536 Zn    0.83333   0.50001   0.78229   0.00000  Uiso   1.00
C1537  C     0.16695   0.75336   0.83242   0.00000  Uiso   1.00
C1538  C     0.13324   0.68981   0.85734   0.00000  Uiso   1.00
C1539  C     0.16659   0.95738   0.83584   0.00000  Uiso   1.00
C1540  C     0.16606   0.70905   0.83103   0.00000  Uiso   1.00
C1541  C     0.19044   0.86503   0.69632   0.00000  Uiso   1.00
C1542  C     0.14259   0.80187   0.97006   0.00000  Uiso   1.00
C1543  C     0.19397   0.86380   0.98244   0.00000  Uiso   1.00
C1544  C     0.14500   0.80007   0.68473   0.00000  Uiso   1.00
C1545  C     0.31667   0.81314   0.76049   0.00000  Uiso   1.00
C1546  C     0.01024   0.78925   0.72568   0.00000  Uiso   1.00
C1547  C     0.00897   0.79000   0.89050   0.00000  Uiso   1.00
C1548  C     0.16606   0.91320   0.83425   0.00000  Uiso   1.00
C1549  C     0.30694   0.75306   0.89814   0.00000  Uiso   1.00
C1550  C     0.23585   0.70409   0.78130   0.00000  Uiso   1.00
C1551  C     0.09783   0.96092   0.88614   0.00000  Uiso   1.00
C1552  C     0.23066   0.89552   0.96742   0.00000  Uiso   1.00
C1553  C     0.28735   0.89203   0.99224   0.00000  Uiso   1.00
C1554  C     0.12996   0.75935   0.70323   0.00000  Uiso   1.00
C1555  C     0.09580   0.72817   0.66976   0.00000  Uiso   1.00
C1556  C     0.06715   0.82732   0.82051   0.00000  Uiso   1.00
C1557  C     0.26599   0.82802   0.84466   0.00000  Uiso   1.00
C1558  C     0.01165   0.81511   0.81107   0.00000  Uiso   1.00
C1559  C     0.31931   0.81251   0.84783   0.00000  Uiso   1.00
C1560  C     0.19944   0.68582   0.80707   0.00000  Uiso   1.00
C1561  C     0.13331   0.98037   0.86006   0.00000  Uiso   1.00
C1562  C     0.19938   0.97655   0.80977   0.00000  Uiso   1.00
H1563  H     0.22523   0.95807   0.79166   0.00000  Uiso   1.00
H1564  H     0.27082   0.76392   0.91039   0.00000  Uiso   1.00
H1565  H     0.29592   0.73337   0.86604   0.00000  Uiso   1.00
H1566  H     0.32815   0.73319   0.92430   0.00000  Uiso   1.00
H1567  H     0.04742   0.77617   0.88708   0.00000  Uiso   1.00
H1568  H     0.01456   0.81224   0.92096   0.00000  Uiso   1.00
H1569  H     0.29080   0.90206   0.69560   0.00000  Uiso   1.00
H1570  H     0.30074   0.85936   0.98898   0.00000  Uiso   1.00
H1571  H     0.31376   0.91271   0.97680   0.00000  Uiso   1.00
H1572  H     0.23273   0.89099   0.93116   0.00000  Uiso   1.00
H1573  H     0.21646   0.92756   0.97359   0.00000  Uiso   1.00
H1574  H     0.10754   0.70824   0.87560   0.00000  Uiso   1.00
H1575  H     0.06038   0.74377   0.98593   0.00000  Uiso   1.00
H1576  H     0.11844   0.71446   0.97747   0.00000  Uiso   1.00
H1577  H     0.08274   0.70213   0.68884   0.00000  Uiso   1.00
H1578  H     0.16665   0.74352   0.71709   0.00000  Uiso   1.00
H1579  H     0.10755   0.76651   0.73060   0.00000  Uiso   1.00
H1580  H     0.20952   0.89014   0.71916   0.00000  Uiso   1.00
H1581  H     0.12449   0.77709   0.94652   0.00000  Uiso   1.00
H1582  H     0.04037   0.80931   0.71425   0.00000  Uiso   1.00
H1583  H     0.02607   0.75984   0.74007   0.00000  Uiso   1.00
H1584  H     0.31442   0.78064   0.69442   0.00000  Uiso   1.00
H1585  H     0.27930   0.79493   0.75654   0.00000  Uiso   1.00
H1586  H     0.30861   0.84530   0.74928   0.00000  Uiso   1.00
N1587  N     0.16665   0.83332   0.95240   0.00000  Uiso   1.00
N1588  N     0.16668   0.83334   0.71427   0.00000  Uiso   1.00
N1589  N     0.26546   0.71773   0.76038   0.00000  Uiso   1.00
N1590  N     0.06944   0.94537   0.90701   0.00000  Uiso   1.00
O1591  O     0.16666   0.77225   0.87154   0.00000  Uiso   1.00
O1592  O     0.16667   0.89442   0.79513   0.00000  Uiso   1.00
O1593  O     0.16666   0.77226   0.79510   0.00000  Uiso   1.00
O1594  O     0.16667   0.89441   0.87157   0.00000  Uiso   1.00
O1595  O     0.09058   0.83333   0.86261   0.00000  Uiso   1.00
O1596  O     0.24275   0.83334   0.80405   0.00000  Uiso   1.00
O1597  O     0.09058   0.83334   0.78617   0.00000  Uiso   1.00
O1598  O     0.24275   0.83333   0.88050   0.00000  Uiso   1.00
Zn1599 Zn    0.16667   0.83333   0.88437   0.00000  Uiso   1.00
Zn1600 Zn    0.16667   0.83334   0.78229   0.00000  Uiso   1.00
C1601  C     0.50028   0.75336   0.83242   0.00000  Uiso   1.00
C1602  C     0.46657   0.68981   0.85734   0.00000  Uiso   1.00
C1603  C     0.49992   0.95738   0.83584   0.00000  Uiso   1.00
C1604  C     0.49940   0.70905   0.83103   0.00000  Uiso   1.00
C1605  C     0.52377   0.86503   0.69632   0.00000  Uiso   1.00
C1606  C     0.47592   0.80187   0.97006   0.00000  Uiso   1.00
C1607  C     0.52730   0.86380   0.98244   0.00000  Uiso   1.00
C1608  C     0.47834   0.80007   0.68473   0.00000  Uiso   1.00
C1609  C     0.65000   0.81314   0.76049   0.00000  Uiso   1.00
C1610  C     0.34358   0.78925   0.72568   0.00000  Uiso   1.00
C1611  C     0.34230   0.79000   0.89050   0.00000  Uiso   1.00
C1612  C     0.49939   0.91320   0.83425   0.00000  Uiso   1.00
C1613  C     0.64027   0.75306   0.89814   0.00000  Uiso   1.00
C1614  C     0.56918   0.70409   0.78130   0.00000  Uiso   1.00
C1615  C     0.43117   0.96092   0.88614   0.00000  Uiso   1.00
C1616  C     0.56399   0.89552   0.96742   0.00000  Uiso   1.00
C1617  C     0.62068   0.89203   0.99224   0.00000  Uiso   1.00
C1618  C     0.46330   0.75935   0.70323   0.00000  Uiso   1.00
C1619  C     0.42914   0.72817   0.66976   0.00000  Uiso   1.00
C1620  C     0.40049   0.82732   0.82051   0.00000  Uiso   1.00
C1621  C     0.59933   0.82802   0.84466   0.00000  Uiso   1.00
C1622  C     0.34498   0.81511   0.81107   0.00000  Uiso   1.00
C1623  C     0.65264   0.81251   0.84783   0.00000  Uiso   1.00
C1624  C     0.53277   0.68582   0.80707   0.00000  Uiso   1.00
C1625  C     0.46665   0.98037   0.86006   0.00000  Uiso   1.00
C1626  C     0.53272   0.97655   0.80977   0.00000  Uiso   1.00
H1627  H     0.55856   0.95807   0.79166   0.00000  Uiso   1.00
H1628  H     0.60415   0.76392   0.91039   0.00000  Uiso   1.00
H1629  H     0.62926   0.73337   0.86604   0.00000  Uiso   1.00
H1630  H     0.66148   0.73319   0.92430   0.00000  Uiso   1.00
H1631  H     0.38075   0.77617   0.88708   0.00000  Uiso   1.00
H1632  H     0.34790   0.81224   0.92096   0.00000  Uiso   1.00
H1633  H     0.62413   0.90206   0.69560   0.00000  Uiso   1.00
H1634  H     0.63407   0.85936   0.98898   0.00000  Uiso   1.00
H1635  H     0.64709   0.91271   0.97680   0.00000  Uiso   1.00
H1636  H     0.56607   0.89099   0.93116   0.00000  Uiso   1.00
H1637  H     0.54979   0.92756   0.97359   0.00000  Uiso   1.00
H1638  H     0.44087   0.70824   0.87560   0.00000  Uiso   1.00
H1639  H     0.39371   0.74377   0.98593   0.00000  Uiso   1.00
H1640  H     0.45178   0.71446   0.97747   0.00000  Uiso   1.00
H1641  H     0.41607   0.70213   0.68884   0.00000  Uiso   1.00
H1642  H     0.49998   0.74352   0.71709   0.00000  Uiso   1.00
H1643  H     0.44088   0.76651   0.73060   0.00000  Uiso   1.00
H1644  H     0.54285   0.89014   0.71916   0.00000  Uiso   1.00
H1645  H     0.45782   0.77709   0.94652   0.00000  Uiso   1.00
H1646  H     0.37370   0.80931   0.71425   0.00000  Uiso   1.00
H1647  H     0.35940   0.75984   0.74007   0.00000  Uiso   1.00
H1648  H     0.64776   0.78064   0.69442   0.00000  Uiso   1.00
H1649  H     0.61264   0.79493   0.75654   0.00000  Uiso   1.00
H1650  H     0.64195   0.84530   0.74928   0.00000  Uiso   1.00
N1651  N     0.49999   0.83332   0.95240   0.00000  Uiso   1.00
N1652  N     0.50001   0.83334   0.71427   0.00000  Uiso   1.00
N1653  N     0.59879   0.71773   0.76038   0.00000  Uiso   1.00
N1654  N     0.40278   0.94537   0.90701   0.00000  Uiso   1.00
O1655  O     0.50000   0.77225   0.87154   0.00000  Uiso   1.00
O1656  O     0.50000   0.89442   0.79513   0.00000  Uiso   1.00
O1657  O     0.50000   0.77226   0.79510   0.00000  Uiso   1.00
O1658  O     0.50000   0.89441   0.87157   0.00000  Uiso   1.00
O1659  O     0.42392   0.83333   0.86261   0.00000  Uiso   1.00
O1660  O     0.57608   0.83334   0.80405   0.00000  Uiso   1.00
O1661  O     0.42392   0.83334   0.78617   0.00000  Uiso   1.00
O1662  O     0.57608   0.83333   0.88050   0.00000  Uiso   1.00
Zn1663 Zn    0.50000   0.83333   0.88437   0.00000  Uiso   1.00
Zn1664 Zn    0.50000   0.83334   0.78229   0.00000  Uiso   1.00
C1665  C     0.83361   0.75336   0.83242   0.00000  Uiso   1.00
C1666  C     0.79991   0.68981   0.85734   0.00000  Uiso   1.00
C1667  C     0.83326   0.95738   0.83584   0.00000  Uiso   1.00
C1668  C     0.83273   0.70905   0.83103   0.00000  Uiso   1.00
C1669  C     0.85710   0.86503   0.69632   0.00000  Uiso   1.00
C1670  C     0.80926   0.80187   0.97006   0.00000  Uiso   1.00
C1671  C     0.86063   0.86380   0.98244   0.00000  Uiso   1.00
C1672  C     0.81167   0.80007   0.68473   0.00000  Uiso   1.00
C1673  C     0.98334   0.81314   0.76049   0.00000  Uiso   1.00
C1674  C     0.67691   0.78925   0.72568   0.00000  Uiso   1.00
C1675  C     0.67564   0.79000   0.89050   0.00000  Uiso   1.00
C1676  C     0.83273   0.91320   0.83425   0.00000  Uiso   1.00
C1677  C     0.97360   0.75306   0.89814   0.00000  Uiso   1.00
C1678  C     0.90251   0.70409   0.78130   0.00000  Uiso   1.00
C1679  C     0.76450   0.96092   0.88614   0.00000  Uiso   1.00
C1680  C     0.89733   0.89552   0.96742   0.00000  Uiso   1.00
C1681  C     0.95402   0.89203   0.99224   0.00000  Uiso   1.00
C1682  C     0.79663   0.75935   0.70323   0.00000  Uiso   1.00
C1683  C     0.76247   0.72817   0.66976   0.00000  Uiso   1.00
C1684  C     0.73382   0.82732   0.82051   0.00000  Uiso   1.00
C1685  C     0.93266   0.82802   0.84466   0.00000  Uiso   1.00
C1686  C     0.67832   0.81511   0.81107   0.00000  Uiso   1.00
C1687  C     0.98598   0.81251   0.84783   0.00000  Uiso   1.00
C1688  C     0.86611   0.68582   0.80707   0.00000  Uiso   1.00
C1689  C     0.79998   0.98037   0.86006   0.00000  Uiso   1.00
C1690  C     0.86605   0.97655   0.80977   0.00000  Uiso   1.00
H1691  H     0.89189   0.95807   0.79166   0.00000  Uiso   1.00
H1692  H     0.93748   0.76392   0.91039   0.00000  Uiso   1.00
H1693  H     0.96259   0.73337   0.86604   0.00000  Uiso   1.00
H1694  H     0.99482   0.73319   0.92430   0.00000  Uiso   1.00
H1695  H     0.71409   0.77617   0.88708   0.00000  Uiso   1.00
H1696  H     0.68123   0.81224   0.92096   0.00000  Uiso   1.00
H1697  H     0.95747   0.90206   0.69560   0.00000  Uiso   1.00
H1698  H     0.96741   0.85936   0.98898   0.00000  Uiso   1.00
H1699  H     0.98043   0.91271   0.97680   0.00000  Uiso   1.00
H1700  H     0.89940   0.89099   0.93116   0.00000  Uiso   1.00
H1701  H     0.88313   0.92756   0.97359   0.00000  Uiso   1.00
H1702  H     0.77420   0.70824   0.87560   0.00000  Uiso   1.00
H1703  H     0.72704   0.74377   0.98593   0.00000  Uiso   1.00
H1704  H     0.78511   0.71446   0.97747   0.00000  Uiso   1.00
H1705  H     0.74941   0.70213   0.68884   0.00000  Uiso   1.00
H1706  H     0.83331   0.74352   0.71709   0.00000  Uiso   1.00
H1707  H     0.77421   0.76651   0.73060   0.00000  Uiso   1.00
H1708  H     0.87619   0.89014   0.71916   0.00000  Uiso   1.00
H1709  H     0.79116   0.77709   0.94652   0.00000  Uiso   1.00
H1710  H     0.70703   0.80931   0.71425   0.00000  Uiso   1.00
H1711  H     0.69273   0.75984   0.74007   0.00000  Uiso   1.00
H1712  H     0.98109   0.78064   0.69442   0.00000  Uiso   1.00
H1713  H     0.94597   0.79493   0.75654   0.00000  Uiso   1.00
H1714  H     0.97528   0.84530   0.74928   0.00000  Uiso   1.00
N1715  N     0.83332   0.83332   0.95240   0.00000  Uiso   1.00
N1716  N     0.83335   0.83334   0.71427   0.00000  Uiso   1.00
N1717  N     0.93212   0.71773   0.76038   0.00000  Uiso   1.00
N1718  N     0.73611   0.94537   0.90701   0.00000  Uiso   1.00
O1719  O     0.83333   0.77225   0.87154   0.00000  Uiso   1.00
O1720  O     0.83334   0.89442   0.79513   0.00000  Uiso   1.00
O1721  O     0.83333   0.77226   0.79510   0.00000  Uiso   1.00
O1722  O     0.83334   0.89441   0.87157   0.00000  Uiso   1.00
O1723  O     0.75725   0.83333   0.86261   0.00000  Uiso   1.00
O1724  O     0.90942   0.83334   0.80405   0.00000  Uiso   1.00
O1725  O     0.75725   0.83334   0.78617   0.00000  Uiso   1.00
O1726  O     0.90942   0.83333   0.88050   0.00000  Uiso   1.00
Zn1727 Zn    0.83333   0.83333   0.88437   0.00000  Uiso   1.00
Zn1728 Zn    0.83333   0.83334   0.78229   0.00000  Uiso   1.00
loop_
_geom_bond_atom_site_label_1
_geom_bond_atom_site_label_2
_geom_bond_distance
_geom_bond_site_symmetry_2
_ccdc_geom_bond_type
C1     O57     1.289   .     A
C1     C4      1.418   .     S
C1     O55     1.284   .     A
C2     C4      1.400   .     A
C2     H38     1.086   .     S
C2     C409    1.377   1_545 S
C3     C25     1.402   .     A
C3     C12     1.413   .     S
C3     C26     1.394   .     A
C4     C24     1.403   .     A
C5     N52     1.355   .     A
C5     H44     1.082   .     S
C5     C1159   1.419   1_554 S
C6     H45     1.077   .     S
C6     N51     1.349   .     A
C6     C584    1.421   .     S
C7     N51     1.388   .     A
C7     C16     1.511   .     S
C7     C581    1.419   .     S
C8     N52     1.393   .     A
C8     C18     1.511   .     S
C8     C1158   1.421   1_554 S
C9     H49     1.104   .     S
C9     H50     1.111   .     S
C9     C74     1.519   .     S
C9     C86     1.555   .     S
C10    H46     1.107   .     S
C10    H47     1.109   .     S
C10    C137    1.519   1_455 S
C10    H176    1.112   1_455 S
C11    H32     1.111   .     S
C11    H31     1.109   .     S
C11    C141    1.532   1_455 S
C11    C151    1.527   1_455 S
C12    O58     1.286   .     A
C12    O56     1.284   .     A
C13    H28     1.108   .     S
C13    H29     1.109   .     S
C13    H30     1.108   .     S
C13    C75     1.532   .     S
C14    C24     1.441   .     S
C14    N53     1.156   .     T
C15    C25     1.446   .     S
C15    N54     1.157   .     T
C16    H37     1.111   .     S
C16    H36     1.090   .     S
C16    C17     1.530   .     S
C17    H34     1.111   .     S
C17    H35     1.111   .     S
C17    H609    1.109   .     S
C18    H43     1.090   .     S
C18    H42     1.107   .     S
C18    C19     1.530   .     S
C19    H41     1.111   .     S
C19    H1191   1.108   1_554 S
C19    H1192   1.111   1_554 S
C20    O59     1.298   .     A
C20    O61     1.290   .     A
C20    C22     1.454   .     S
C21    C23     1.457   .     S
C21    O62     1.311   .     A
C21    O60     1.275   .     A
C22    C137    1.555   1_455 S
C22    C151    1.373   1_455 S
C23    C75     1.527   .     S
C23    C86     1.373   .     S
C24    C410    1.371   1_545 S
C25    C194    1.377   .     S
C26    H27     1.087   .     S
C26    C216    1.371   .     S
H33    C1169   1.109   1_554 S
H39    C595    1.108   .     S
H40    C595    1.111   .     S
H48    C74     1.112   .     S
N51    Zn63    2.021   .     S
N52    Zn64    2.021   .     S
O55    Zn63    1.974   .     S
O56    Zn64    1.974   .     S
O57    Zn64    2.012   .     S
O58    Zn63    2.012   .     S
O59    Zn63    1.958   .     S
O60    Zn64    1.958   .     S
O61    Zn64    1.982   .     S
O62    Zn63    1.982   .     S
C65    O121    1.289   .     A
C65    C68     1.418   .     S
C65    O119    1.284   .     A
C66    C68     1.400   .     A
C66    H102    1.086   .     S
C66    C473    1.377   1_545 S
C67    C89     1.402   .     A
C67    C76     1.413   .     S
C67    C90     1.394   .     A
C68    C88     1.403   .     A
C69    N116    1.355   .     A
C69    H108    1.082   .     S
C69    C1223   1.419   1_554 S
C70    H109    1.077   .     S
C70    N115    1.349   .     A
C70    C648    1.421   .     S
C71    N115    1.388   .     A
C71    C80     1.511   .     S
C71    C645    1.419   .     S
C72    N116    1.393   .     A
C72    C82     1.511   .     S
C72    C1222   1.421   1_554 S
C73    H113    1.104   .     S
C73    H114    1.111   .     S
C73    C138    1.519   .     S
C73    C150    1.555   .     S
C74    H110    1.107   .     S
C74    H111    1.109   .     S
C75    H96     1.111   .     S
C75    H95     1.109   .     S
C76    O122    1.286   .     A
C76    O120    1.284   .     A
C77    H92     1.108   .     S
C77    H93     1.109   .     S
C77    H94     1.108   .     S
C77    C139    1.532   .     S
C78    C88     1.441   .     S
C78    N117    1.156   .     T
C79    C89     1.446   .     S
C79    N118    1.157   .     T
C80    H101    1.111   .     S
C80    H100    1.090   .     S
C80    C81     1.530   .     S
C81    H98     1.111   .     S
C81    H99     1.111   .     S
C81    H673    1.109   .     S
C82    H107    1.090   .     S
C82    H106    1.107   .     S
C82    C83     1.530   .     S
C83    H105    1.111   .     S
C83    H1255   1.108   1_554 S
C83    H1256   1.111   1_554 S
C84    O123    1.298   .     A
C84    O125    1.290   .     A
C84    C86     1.454   .     S
C85    C87     1.457   .     S
C85    O126    1.311   .     A
C85    O124    1.275   .     A
C87    C139    1.527   .     S
C87    C150    1.373   .     S
C88    C474    1.371   1_545 S
C89    C258    1.377   .     S
C90    H91     1.087   .     S
C90    C280    1.371   .     S
H97    C1233   1.109   1_554 S
H103   C659    1.108   .     S
H104   C659    1.111   .     S
H112   C138    1.112   .     S
N115   Zn127   2.021   .     S
N116   Zn128   2.021   .     S
O119   Zn127   1.974   .     S
O120   Zn128   1.974   .     S
O121   Zn128   2.012   .     S
O122   Zn127   2.012   .     S
O123   Zn127   1.958   .     S
O124   Zn128   1.958   .     S
O125   Zn128   1.982   .     S
O126   Zn127   1.982   .     S
C129   O185    1.289   .     A
C129   C132    1.418   .     S
C129   O183    1.284   .     A
C130   C132    1.400   .     A
C130   H166    1.086   .     S
C130   C537    1.377   1_545 S
C131   C153    1.402   .     A
C131   C140    1.413   .     S
C131   C154    1.394   .     A
C132   C152    1.403   .     A
C133   N180    1.355   .     A
C133   H172    1.082   .     S
C133   C1287   1.419   1_554 S
C134   H173    1.077   .     S
C134   N179    1.349   .     A
C134   C712    1.421   .     S
C135   N179    1.388   .     A
C135   C144    1.511   .     S
C135   C709    1.419   .     S
C136   N180    1.393   .     A
C136   C146    1.511   .     S
C136   C1286   1.421   1_554 S
C137   H177    1.104   .     S
C137   H178    1.111   .     S
C137   C10     1.519   1_655 S
C137   C22     1.555   1_655 S
C138   H174    1.107   .     S
C138   H175    1.109   .     S
C139   H160    1.111   .     S
C139   H159    1.109   .     S
C140   O186    1.286   .     A
C140   O184    1.284   .     A
C141   H156    1.108   .     S
C141   H157    1.109   .     S
C141   H158    1.108   .     S
C141   C11     1.532   1_655 S
C142   C152    1.441   .     S
C142   N181    1.156   .     T
C143   C153    1.446   .     S
C143   N182    1.157   .     T
C144   H165    1.111   .     S
C144   H164    1.090   .     S
C144   C145    1.530   .     S
C145   H162    1.111   .     S
C145   H163    1.111   .     S
C145   H737    1.109   .     S
C146   H171    1.090   .     S
C146   H170    1.107   .     S
C146   C147    1.530   .     S
C147   H169    1.111   .     S
C147   H1319   1.108   1_554 S
C147   H1320   1.111   1_554 S
C148   O187    1.298   .     A
C148   O189    1.290   .     A
C148   C150    1.454   .     S
C149   C151    1.457   .     S
C149   O190    1.311   .     A
C149   O188    1.275   .     A
C151   C11     1.527   1_655 S
C151   C22     1.373   1_655 S
C152   C538    1.371   1_545 S
C153   C322    1.377   .     S
C154   H155    1.087   .     S
C154   C344    1.371   .     S
H161   C1297   1.109   1_554 S
H167   C723    1.108   .     S
H168   C723    1.111   .     S
H176   C10     1.112   1_655 S
N179   Zn191   2.021   .     S
N180   Zn192   2.021   .     S
O183   Zn191   1.974   .     S
O184   Zn192   1.974   .     S
O185   Zn192   2.012   .     S
O186   Zn191   2.012   .     S
O187   Zn191   1.958   .     S
O188   Zn192   1.958   .     S
O189   Zn192   1.982   .     S
O190   Zn191   1.982   .     S
C193   O249    1.289   .     A
C193   C196    1.418   .     S
C193   O247    1.284   .     A
C194   C196    1.400   .     A
C194   H230    1.086   .     S
C195   C217    1.402   .     A
C195   C204    1.413   .     S
C195   C218    1.394   .     A
C196   C216    1.403   .     A
C197   N244    1.355   .     A
C197   H236    1.082   .     S
C197   C1351   1.419   1_554 S
C198   H237    1.077   .     S
C198   N243    1.349   .     A
C198   C776    1.421   .     S
C199   N243    1.388   .     A
C199   C208    1.511   .     S
C199   C773    1.419   .     S
C200   N244    1.393   .     A
C200   C210    1.511   .     S
C200   C1350   1.421   1_554 S
C201   H241    1.104   .     S
C201   H242    1.111   .     S
C201   C266    1.519   .     S
C201   C278    1.555   .     S
C202   H238    1.107   .     S
C202   H239    1.109   .     S
C202   C329    1.519   1_455 S
C202   H368    1.112   1_455 S
C203   H224    1.111   .     S
C203   H223    1.109   .     S
C203   C333    1.532   1_455 S
C203   C343    1.527   1_455 S
C204   O250    1.286   .     A
C204   O248    1.284   .     A
C205   H220    1.108   .     S
C205   H221    1.109   .     S
C205   H222    1.108   .     S
C205   C267    1.532   .     S
C206   C216    1.441   .     S
C206   N245    1.156   .     T
C207   C217    1.446   .     S
C207   N246    1.157   .     T
C208   H229    1.111   .     S
C208   H228    1.090   .     S
C208   C209    1.530   .     S
C209   H226    1.111   .     S
C209   H227    1.111   .     S
C209   H801    1.109   .     S
C210   H235    1.090   .     S
C210   H234    1.107   .     S
C210   C211    1.530   .     S
C211   H233    1.111   .     S
C211   H1383   1.108   1_554 S
C211   H1384   1.111   1_554 S
C212   O251    1.298   .     A
C212   O253    1.290   .     A
C212   C214    1.454   .     S
C213   C215    1.457   .     S
C213   O254    1.311   .     A
C213   O252    1.275   .     A
C214   C329    1.555   1_455 S
C214   C343    1.373   1_455 S
C215   C267    1.527   .     S
C215   C278    1.373   .     S
C217   C386    1.377   .     S
C218   H219    1.087   .     S
C218   C408    1.371   .     S
H225   C1361   1.109   1_554 S
H231   C787    1.108   .     S
H232   C787    1.111   .     S
H240   C266    1.112   .     S
N243   Zn255   2.021   .     S
N244   Zn256   2.021   .     S
O247   Zn255   1.974   .     S
O248   Zn256   1.974   .     S
O249   Zn256   2.012   .     S
O250   Zn255   2.012   .     S
O251   Zn255   1.958   .     S
O252   Zn256   1.958   .     S
O253   Zn256   1.982   .     S
O254   Zn255   1.982   .     S
C257   O313    1.289   .     A
C257   C260    1.418   .     S
C257   O311    1.284   .     A
C258   C260    1.400   .     A
C258   H294    1.086   .     S
C259   C281    1.402   .     A
C259   C268    1.413   .     S
C259   C282    1.394   .     A
C260   C280    1.403   .     A
C261   N308    1.355   .     A
C261   H300    1.082   .     S
C261   C1415   1.419   1_554 S
C262   H301    1.077   .     S
C262   N307    1.349   .     A
C262   C840    1.421   .     S
C263   N307    1.388   .     A
C263   C272    1.511   .     S
C263   C837    1.419   .     S
C264   N308    1.393   .     A
C264   C274    1.511   .     S
C264   C1414   1.421   1_554 S
C265   H305    1.104   .     S
C265   H306    1.111   .     S
C265   C330    1.519   .     S
C265   C342    1.555   .     S
C266   H302    1.107   .     S
C266   H303    1.109   .     S
C267   H288    1.111   .     S
C267   H287    1.109   .     S
C268   O314    1.286   .     A
C268   O312    1.284   .     A
C269   H284    1.108   .     S
C269   H285    1.109   .     S
C269   H286    1.108   .     S
C269   C331    1.532   .     S
C270   C280    1.441   .     S
C270   N309    1.156   .     T
C271   C281    1.446   .     S
C271   N310    1.157   .     T
C272   H293    1.111   .     S
C272   H292    1.090   .     S
C272   C273    1.530   .     S
C273   H290    1.111   .     S
C273   H291    1.111   .     S
C273   H865    1.109   .     S
C274   H299    1.090   .     S
C274   H298    1.107   .     S
C274   C275    1.530   .     S
C275   H297    1.111   .     S
C275   H1447   1.108   1_554 S
C275   H1448   1.111   1_554 S
C276   O315    1.298   .     A
C276   O317    1.290   .     A
C276   C278    1.454   .     S
C277   C279    1.457   .     S
C277   O318    1.311   .     A
C277   O316    1.275   .     A
C279   C331    1.527   .     S
C279   C342    1.373   .     S
C281   C450    1.377   .     S
C282   H283    1.087   .     S
C282   C472    1.371   .     S
H289   C1425   1.109   1_554 S
H295   C851    1.108   .     S
H296   C851    1.111   .     S
H304   C330    1.112   .     S
N307   Zn319   2.021   .     S
N308   Zn320   2.021   .     S
O311   Zn319   1.974   .     S
O312   Zn320   1.974   .     S
O313   Zn320   2.012   .     S
O314   Zn319   2.012   .     S
O315   Zn319   1.958   .     S
O316   Zn320   1.958   .     S
O317   Zn320   1.982   .     S
O318   Zn319   1.982   .     S
C321   O377    1.289   .     A
C321   C324    1.418   .     S
C321   O375    1.284   .     A
C322   C324    1.400   .     A
C322   H358    1.086   .     S
C323   C345    1.402   .     A
C323   C332    1.413   .     S
C323   C346    1.394   .     A
C324   C344    1.403   .     A
C325   N372    1.355   .     A
C325   H364    1.082   .     S
C325   C1479   1.419   1_554 S
C326   H365    1.077   .     S
C326   N371    1.349   .     A
C326   C904    1.421   .     S
C327   N371    1.388   .     A
C327   C336    1.511   .     S
C327   C901    1.419   .     S
C328   N372    1.393   .     A
C328   C338    1.511   .     S
C328   C1478   1.421   1_554 S
C329   H369    1.104   .     S
C329   H370    1.111   .     S
C329   C202    1.519   1_655 S
C329   C214    1.555   1_655 S
C330   H366    1.107   .     S
C330   H367    1.109   .     S
C331   H352    1.111   .     S
C331   H351    1.109   .     S
C332   O378    1.286   .     A
C332   O376    1.284   .     A
C333   H348    1.108   .     S
C333   H349    1.109   .     S
C333   H350    1.108   .     S
C333   C203    1.532   1_655 S
C334   C344    1.441   .     S
C334   N373    1.156   .     T
C335   C345    1.446   .     S
C335   N374    1.157   .     T
C336   H357    1.111   .     S
C336   H356    1.090   .     S
C336   C337    1.530   .     S
C337   H354    1.111   .     S
C337   H355    1.111   .     S
C337   H929    1.109   .     S
C338   H363    1.090   .     S
C338   H362    1.107   .     S
C338   C339    1.530   .     S
C339   H361    1.111   .     S
C339   H1511   1.108   1_554 S
C339   H1512   1.111   1_554 S
C340   O379    1.298   .     A
C340   O381    1.290   .     A
C340   C342    1.454   .     S
C341   C343    1.457   .     S
C341   O382    1.311   .     A
C341   O380    1.275   .     A
C343   C203    1.527   1_655 S
C343   C214    1.373   1_655 S
C345   C514    1.377   .     S
C346   H347    1.087   .     S
C346   C536    1.371   .     S
H353   C1489   1.109   1_554 S
H359   C915    1.108   .     S
H360   C915    1.111   .     S
H368   C202    1.112   1_655 S
N371   Zn383   2.021   .     S
N372   Zn384   2.021   .     S
O375   Zn383   1.974   .     S
O376   Zn384   1.974   .     S
O377   Zn384   2.012   .     S
O378   Zn383   2.012   .     S
O379   Zn383   1.958   .     S
O380   Zn384   1.958   .     S
O381   Zn384   1.982   .     S
O382   Zn383   1.982   .     S
C385   O441    1.289   .     A
C385   C388    1.418   .     S
C385   O439    1.284   .     A
C386   C388    1.400   .     A
C386   H422    1.086   .     S
C387   C409    1.402   .     A
C387   C396    1.413   .     S
C387   C410    1.394   .     A
C388   C408    1.403   .     A
C389   N436    1.355   .     A
C389   H428    1.082   .     S
C389   C1543   1.419   1_554 S
C390   H429    1.077   .     S
C390   N435    1.349   .     A
C390   C968    1.421   .     S
C391   N435    1.388   .     A
C391   C400    1.511   .     S
C391   C965    1.419   .     S
C392   N436    1.393   .     A
C392   C402    1.511   .     S
C392   C1542   1.421   1_554 S
C393   H433    1.104   .     S
C393   H434    1.111   .     S
C393   C458    1.519   .     S
C393   C470    1.555   .     S
C394   H430    1.107   .     S
C394   H431    1.109   .     S
C394   C521    1.519   1_455 S
C394   H560    1.112   1_455 S
C395   H416    1.111   .     S
C395   H415    1.109   .     S
C395   C525    1.532   1_455 S
C395   C535    1.527   1_455 S
C396   O442    1.286   .     A
C396   O440    1.284   .     A
C397   H412    1.108   .     S
C397   H413    1.109   .     S
C397   H414    1.108   .     S
C397   C459    1.532   .     S
C398   C408    1.441   .     S
C398   N437    1.156   .     T
C399   C409    1.446   .     S
C399   N438    1.157   .     T
C400   H421    1.111   .     S
C400   H420    1.090   .     S
C400   C401    1.530   .     S
C401   H418    1.111   .     S
C401   H419    1.111   .     S
C401   H993    1.109   .     S
C402   H427    1.090   .     S
C402   H426    1.107   .     S
C402   C403    1.530   .     S
C403   H425    1.111   .     S
C403   H1575   1.108   1_554 S
C403   H1576   1.111   1_554 S
C404   O443    1.298   .     A
C404   O445    1.290   .     A
C404   C406    1.454   .     S
C405   C407    1.457   .     S
C405   O446    1.311   .     A
C405   O444    1.275   .     A
C406   C521    1.555   1_455 S
C406   C535    1.373   1_455 S
C407   C459    1.527   .     S
C407   C470    1.373   .     S
C409   C2      1.377   1_565 S
C410   H411    1.087   .     S
C410   C24     1.371   1_565 S
H417   C1553   1.109   1_554 S
H423   C979    1.108   .     S
H424   C979    1.111   .     S
H432   C458    1.112   .     S
N435   Zn447   2.021   .     S
N436   Zn448   2.021   .     S
O439   Zn447   1.974   .     S
O440   Zn448   1.974   .     S
O441   Zn448   2.012   .     S
O442   Zn447   2.012   .     S
O443   Zn447   1.958   .     S
O444   Zn448   1.958   .     S
O445   Zn448   1.982   .     S
O446   Zn447   1.982   .     S
C449   O505    1.289   .     A
C449   C452    1.418   .     S
C449   O503    1.284   .     A
C450   C452    1.400   .     A
C450   H486    1.086   .     S
C451   C473    1.402   .     A
C451   C460    1.413   .     S
C451   C474    1.394   .     A
C452   C472    1.403   .     A
C453   N500    1.355   .     A
C453   H492    1.082   .     S
C453   C1607   1.419   1_554 S
C454   H493    1.077   .     S
C454   N499    1.349   .     A
C454   C1032   1.421   .     S
C455   N499    1.388   .     A
C455   C464    1.511   .     S
C455   C1029   1.419   .     S
C456   N500    1.393   .     A
C456   C466    1.511   .     S
C456   C1606   1.421   1_554 S
C457   H497    1.104   .     S
C457   H498    1.111   .     S
C457   C522    1.519   .     S
C457   C534    1.555   .     S
C458   H494    1.107   .     S
C458   H495    1.109   .     S
C459   H480    1.111   .     S
C459   H479    1.109   .     S
C460   O506    1.286   .     A
C460   O504    1.284   .     A
C461   H476    1.108   .     S
C461   H477    1.109   .     S
C461   H478    1.108   .     S
C461   C523    1.532   .     S
C462   C472    1.441   .     S
C462   N501    1.156   .     T
C463   C473    1.446   .     S
C463   N502    1.157   .     T
C464   H485    1.111   .     S
C464   H484    1.090   .     S
C464   C465    1.530   .     S
C465   H482    1.111   .     S
C465   H483    1.111   .     S
C465   H1057   1.109   .     S
C466   H491    1.090   .     S
C466   H490    1.107   .     S
C466   C467    1.530   .     S
C467   H489    1.111   .     S
C467   H1639   1.108   1_554 S
C467   H1640   1.111   1_554 S
C468   O507    1.298   .     A
C468   O509    1.290   .     A
C468   C470    1.454   .     S
C469   C471    1.457   .     S
C469   O510    1.311   .     A
C469   O508    1.275   .     A
C471   C523    1.527   .     S
C471   C534    1.373   .     S
C473   C66     1.377   1_565 S
C474   H475    1.087   .     S
C474   C88     1.371   1_565 S
H481   C1617   1.109   1_554 S
H487   C1043   1.108   .     S
H488   C1043   1.111   .     S
H496   C522    1.112   .     S
N499   Zn511   2.021   .     S
N500   Zn512   2.021   .     S
O503   Zn511   1.974   .     S
O504   Zn512   1.974   .     S
O505   Zn512   2.012   .     S
O506   Zn511   2.012   .     S
O507   Zn511   1.958   .     S
O508   Zn512   1.958   .     S
O509   Zn512   1.982   .     S
O510   Zn511   1.982   .     S
C513   O569    1.289   .     A
C513   C516    1.418   .     S
C513   O567    1.284   .     A
C514   C516    1.400   .     A
C514   H550    1.086   .     S
C515   C537    1.402   .     A
C515   C524    1.413   .     S
C515   C538    1.394   .     A
C516   C536    1.403   .     A
C517   N564    1.355   .     A
C517   H556    1.082   .     S
C517   C1671   1.419   1_554 S
C518   H557    1.077   .     S
C518   N563    1.349   .     A
C518   C1096   1.421   .     S
C519   N563    1.388   .     A
C519   C528    1.511   .     S
C519   C1093   1.419   .     S
C520   N564    1.393   .     A
C520   C530    1.511   .     S
C520   C1670   1.421   1_554 S
C521   H561    1.104   .     S
C521   H562    1.111   .     S
C521   C394    1.519   1_655 S
C521   C406    1.555   1_655 S
C522   H558    1.107   .     S
C522   H559    1.109   .     S
C523   H544    1.111   .     S
C523   H543    1.109   .     S
C524   O570    1.286   .     A
C524   O568    1.284   .     A
C525   H540    1.108   .     S
C525   H541    1.109   .     S
C525   H542    1.108   .     S
C525   C395    1.532   1_655 S
C526   C536    1.441   .     S
C526   N565    1.156   .     T
C527   C537    1.446   .     S
C527   N566    1.157   .     T
C528   H549    1.111   .     S
C528   H548    1.090   .     S
C528   C529    1.530   .     S
C529   H546    1.111   .     S
C529   H547    1.111   .     S
C529   H1121   1.109   .     S
C530   H555    1.090   .     S
C530   H554    1.107   .     S
C530   C531    1.530   .     S
C531   H553    1.111   .     S
C531   H1703   1.108   1_554 S
C531   H1704   1.111   1_554 S
C532   O571    1.298   .     A
C532   O573    1.290   .     A
C532   C534    1.454   .     S
C533   C535    1.457   .     S
C533   O574    1.311   .     A
C533   O572    1.275   .     A
C535   C395    1.527   1_655 S
C535   C406    1.373   1_655 S
C537   C130    1.377   1_565 S
C538   H539    1.087   .     S
C538   C152    1.371   1_565 S
H545   C1681   1.109   1_554 S
H551   C1107   1.108   .     S
H552   C1107   1.111   .     S
H560   C394    1.112   1_655 S
N563   Zn575   2.021   .     S
N564   Zn576   2.021   .     S
O567   Zn575   1.974   .     S
O568   Zn576   1.974   .     S
O569   Zn576   2.012   .     S
O570   Zn575   2.012   .     S
O571   Zn575   1.958   .     S
O572   Zn576   1.958   .     S
O573   Zn576   1.982   .     S
O574   Zn575   1.982   .     S
C577   O633    1.289   .     A
C577   C580    1.418   .     S
C577   O631    1.284   .     A
C578   C580    1.400   .     A
C578   H614    1.086   .     S
C578   C985    1.377   1_545 S
C579   C601    1.402   .     A
C579   C588    1.413   .     S
C579   C602    1.394   .     A
C580   C600    1.403   .     A
C581   N628    1.355   .     A
C581   H620    1.082   .     S
C582   H621    1.077   .     S
C582   N627    1.349   .     A
C582   C1160   1.421   .     S
C583   N627    1.388   .     A
C583   C592    1.511   .     S
C583   C1157   1.419   .     S
C584   N628    1.393   .     A
C584   C594    1.511   .     S
C585   H625    1.104   .     S
C585   H626    1.111   .     S
C585   C650    1.519   .     S
C585   C662    1.555   .     S
C586   H622    1.107   .     S
C586   H623    1.109   .     S
C586   C713    1.519   1_455 S
C586   H752    1.112   1_455 S
C587   H608    1.111   .     S
C587   H607    1.109   .     S
C587   C717    1.532   1_455 S
C587   C727    1.527   1_455 S
C588   O634    1.286   .     A
C588   O632    1.284   .     A
C589   H604    1.108   .     S
C589   H605    1.109   .     S
C589   H606    1.108   .     S
C589   C651    1.532   .     S
C590   C600    1.441   .     S
C590   N629    1.156   .     T
C591   C601    1.446   .     S
C591   N630    1.157   .     T
C592   H613    1.111   .     S
C592   H612    1.090   .     S
C592   C593    1.530   .     S
C593   H610    1.111   .     S
C593   H611    1.111   .     S
C593   H1185   1.109   .     S
C594   H619    1.090   .     S
C594   H618    1.107   .     S
C594   C595    1.530   .     S
C595   H617    1.111   .     S
C596   O635    1.298   .     A
C596   O637    1.290   .     A
C596   C598    1.454   .     S
C597   C599    1.457   .     S
C597   O638    1.311   .     A
C597   O636    1.275   .     A
C598   C713    1.555   1_455 S
C598   C727    1.373   1_455 S
C599   C651    1.527   .     S
C599   C662    1.373   .     S
C600   C986    1.371   1_545 S
C601   C770    1.377   .     S
C602   H603    1.087   .     S
C602   C792    1.371   .     S
H615   C1171   1.108   .     S
H616   C1171   1.111   .     S
H624   C650    1.112   .     S
N627   Zn639   2.021   .     S
N628   Zn640   2.021   .     S
O631   Zn639   1.974   .     S
O632   Zn640   1.974   .     S
O633   Zn640   2.012   .     S
O634   Zn639   2.012   .     S
O635   Zn639   1.958   .     S
O636   Zn640   1.958   .     S
O637   Zn640   1.982   .     S
O638   Zn639   1.982   .     S
C641   O697    1.289   .     A
C641   C644    1.418   .     S
C641   O695    1.284   .     A
C642   C644    1.400   .     A
C642   H678    1.086   .     S
C642   C1049   1.377   1_545 S
C643   C665    1.402   .     A
C643   C652    1.413   .     S
C643   C666    1.394   .     A
C644   C664    1.403   .     A
C645   N692    1.355   .     A
C645   H684    1.082   .     S
C646   H685    1.077   .     S
C646   N691    1.349   .     A
C646   C1224   1.421   .     S
C647   N691    1.388   .     A
C647   C656    1.511   .     S
C647   C1221   1.419   .     S
C648   N692    1.393   .     A
C648   C658    1.511   .     S
C649   H689    1.104   .     S
C649   H690    1.111   .     S
C649   C714    1.519   .     S
C649   C726    1.555   .     S
C650   H686    1.107   .     S
C650   H687    1.109   .     S
C651   H672    1.111   .     S
C651   H671    1.109   .     S
C652   O698    1.286   .     A
C652   O696    1.284   .     A
C653   H668    1.108   .     S
C653   H669    1.109   .     S
C653   H670    1.108   .     S
C653   C715    1.532   .     S
C654   C664    1.441   .     S
C654   N693    1.156   .     T
C655   C665    1.446   .     S
C655   N694    1.157   .     T
C656   H677    1.111   .     S
C656   H676    1.090   .     S
C656   C657    1.530   .     S
C657   H674    1.111   .     S
C657   H675    1.111   .     S
C657   H1249   1.109   .     S
C658   H683    1.090   .     S
C658   H682    1.107   .     S
C658   C659    1.530   .     S
C659   H681    1.111   .     S
C660   O699    1.298   .     A
C660   O701    1.290   .     A
C660   C662    1.454   .     S
C661   C663    1.457   .     S
C661   O702    1.311   .     A
C661   O700    1.275   .     A
C663   C715    1.527   .     S
C663   C726    1.373   .     S
C664   C1050   1.371   1_545 S
C665   C834    1.377   .     S
C666   H667    1.087   .     S
C666   C856    1.371   .     S
H679   C1235   1.108   .     S
H680   C1235   1.111   .     S
H688   C714    1.112   .     S
N691   Zn703   2.021   .     S
N692   Zn704   2.021   .     S
O695   Zn703   1.974   .     S
O696   Zn704   1.974   .     S
O697   Zn704   2.012   .     S
O698   Zn703   2.012   .     S
O699   Zn703   1.958   .     S
O700   Zn704   1.958   .     S
O701   Zn704   1.982   .     S
O702   Zn703   1.982   .     S
C705   O761    1.289   .     A
C705   C708    1.418   .     S
C705   O759    1.284   .     A
C706   C708    1.400   .     A
C706   H742    1.086   .     S
C706   C1113   1.377   1_545 S
C707   C729    1.402   .     A
C707   C716    1.413   .     S
C707   C730    1.394   .     A
C708   C728    1.403   .     A
C709   N756    1.355   .     A
C709   H748    1.082   .     S
C710   H749    1.077   .     S
C710   N755    1.349   .     A
C710   C1288   1.421   .     S
C711   N755    1.388   .     A
C711   C720    1.511   .     S
C711   C1285   1.419   .     S
C712   N756    1.393   .     A
C712   C722    1.511   .     S
C713   H753    1.104   .     S
C713   H754    1.111   .     S
C713   C586    1.519   1_655 S
C713   C598    1.555   1_655 S
C714   H750    1.107   .     S
C714   H751    1.109   .     S
C715   H736    1.111   .     S
C715   H735    1.109   .     S
C716   O762    1.286   .     A
C716   O760    1.284   .     A
C717   H732    1.108   .     S
C717   H733    1.109   .     S
C717   H734    1.108   .     S
C717   C587    1.532   1_655 S
C718   C728    1.441   .     S
C718   N757    1.156   .     T
C719   C729    1.446   .     S
C719   N758    1.157   .     T
C720   H741    1.111   .     S
C720   H740    1.090   .     S
C720   C721    1.530   .     S
C721   H738    1.111   .     S
C721   H739    1.111   .     S
C721   H1313   1.109   .     S
C722   H747    1.090   .     S
C722   H746    1.107   .     S
C722   C723    1.530   .     S
C723   H745    1.111   .     S
C724   O763    1.298   .     A
C724   O765    1.290   .     A
C724   C726    1.454   .     S
C725   C727    1.457   .     S
C725   O766    1.311   .     A
C725   O764    1.275   .     A
C727   C587    1.527   1_655 S
C727   C598    1.373   1_655 S
C728   C1114   1.371   1_545 S
C729   C898    1.377   .     S
C730   H731    1.087   .     S
C730   C920    1.371   .     S
H743   C1299   1.108   .     S
H744   C1299   1.111   .     S
H752   C586    1.112   1_655 S
N755   Zn767   2.021   .     S
N756   Zn768   2.021   .     S
O759   Zn767   1.974   .     S
O760   Zn768   1.974   .     S
O761   Zn768   2.012   .     S
O762   Zn767   2.012   .     S
O763   Zn767   1.958   .     S
O764   Zn768   1.958   .     S
O765   Zn768   1.982   .     S
O766   Zn767   1.982   .     S
C769   O825    1.289   .     A
C769   C772    1.418   .     S
C769   O823    1.284   .     A
C770   C772    1.400   .     A
C770   H806    1.086   .     S
C771   C793    1.402   .     A
C771   C780    1.413   .     S
C771   C794    1.394   .     A
C772   C792    1.403   .     A
C773   N820    1.355   .     A
C773   H812    1.082   .     S
C774   H813    1.077   .     S
C774   N819    1.349   .     A
C774   C1352   1.421   .     S
C775   N819    1.388   .     A
C775   C784    1.511   .     S
C775   C1349   1.419   .     S
C776   N820    1.393   .     A
C776   C786    1.511   .     S
C777   H817    1.104   .     S
C777   H818    1.111   .     S
C777   C842    1.519   .     S
C777   C854    1.555   .     S
C778   H814    1.107   .     S
C778   H815    1.109   .     S
C778   C905    1.519   1_455 S
C778   H944    1.112   1_455 S
C779   H800    1.111   .     S
C779   H799    1.109   .     S
C779   C909    1.532   1_455 S
C779   C919    1.527   1_455 S
C780   O826    1.286   .     A
C780   O824    1.284   .     A
C781   H796    1.108   .     S
C781   H797    1.109   .     S
C781   H798    1.108   .     S
C781   C843    1.532   .     S
C782   C792    1.441   .     S
C782   N821    1.156   .     T
C783   C793    1.446   .     S
C783   N822    1.157   .     T
C784   H805    1.111   .     S
C784   H804    1.090   .     S
C784   C785    1.530   .     S
C785   H802    1.111   .     S
C785   H803    1.111   .     S
C785   H1377   1.109   .     S
C786   H811    1.090   .     S
C786   H810    1.107   .     S
C786   C787    1.530   .     S
C787   H809    1.111   .     S
C788   O827    1.298   .     A
C788   O829    1.290   .     A
C788   C790    1.454   .     S
C789   C791    1.457   .     S
C789   O830    1.311   .     A
C789   O828    1.275   .     A
C790   C905    1.555   1_455 S
C790   C919    1.373   1_455 S
C791   C843    1.527   .     S
C791   C854    1.373   .     S
C793   C962    1.377   .     S
C794   H795    1.087   .     S
C794   C984    1.371   .     S
H807   C1363   1.108   .     S
H808   C1363   1.111   .     S
H816   C842    1.112   .     S
N819   Zn831   2.021   .     S
N820   Zn832   2.021   .     S
O823   Zn831   1.974   .     S
O824   Zn832   1.974   .     S
O825   Zn832   2.012   .     S
O826   Zn831   2.012   .     S
O827   Zn831   1.958   .     S
O828   Zn832   1.958   .     S
O829   Zn832   1.982   .     S
O830   Zn831   1.982   .     S
C833   O889    1.289   .     A
C833   C836    1.418   .     S
C833   O887    1.284   .     A
C834   C836    1.400   .     A
C834   H870    1.086   .     S
C835   C857    1.402   .     A
C835   C844    1.413   .     S
C835   C858    1.394   .     A
C836   C856    1.403   .     A
C837   N884    1.355   .     A
C837   H876    1.082   .     S
C838   H877    1.077   .     S
C838   N883    1.349   .     A
C838   C1416   1.421   .     S
C839   N883    1.388   .     A
C839   C848    1.511   .     S
C839   C1413   1.419   .     S
C840   N884    1.393   .     A
C840   C850    1.511   .     S
C841   H881    1.104   .     S
C841   H882    1.111   .     S
C841   C906    1.519   .     S
C841   C918    1.555   .     S
C842   H878    1.107   .     S
C842   H879    1.109   .     S
C843   H864    1.111   .     S
C843   H863    1.109   .     S
C844   O890    1.286   .     A
C844   O888    1.284   .     A
C845   H860    1.108   .     S
C845   H861    1.109   .     S
C845   H862    1.108   .     S
C845   C907    1.532   .     S
C846   C856    1.441   .     S
C846   N885    1.156   .     T
C847   C857    1.446   .     S
C847   N886    1.157   .     T
C848   H869    1.111   .     S
C848   H868    1.090   .     S
C848   C849    1.530   .     S
C849   H866    1.111   .     S
C849   H867    1.111   .     S
C849   H1441   1.109   .     S
C850   H875    1.090   .     S
C850   H874    1.107   .     S
C850   C851    1.530   .     S
C851   H873    1.111   .     S
C852   O891    1.298   .     A
C852   O893    1.290   .     A
C852   C854    1.454   .     S
C853   C855    1.457   .     S
C853   O894    1.311   .     A
C853   O892    1.275   .     A
C855   C907    1.527   .     S
C855   C918    1.373   .     S
C857   C1026   1.377   .     S
C858   H859    1.087   .     S
C858   C1048   1.371   .     S
H871   C1427   1.108   .     S
H872   C1427   1.111   .     S
H880   C906    1.112   .     S
N883   Zn895   2.021   .     S
N884   Zn896   2.021   .     S
O887   Zn895   1.974   .     S
O888   Zn896   1.974   .     S
O889   Zn896   2.012   .     S
O890   Zn895   2.012   .     S
O891   Zn895   1.958   .     S
O892   Zn896   1.958   .     S
O893   Zn896   1.982   .     S
O894   Zn895   1.982   .     S
C897   O953    1.289   .     A
C897   C900    1.418   .     S
C897   O951    1.284   .     A
C898   C900    1.400   .     A
C898   H934    1.086   .     S
C899   C921    1.402   .     A
C899   C908    1.413   .     S
C899   C922    1.394   .     A
C900   C920    1.403   .     A
C901   N948    1.355   .     A
C901   H940    1.082   .     S
C902   H941    1.077   .     S
C902   N947    1.349   .     A
C902   C1480   1.421   .     S
C903   N947    1.388   .     A
C903   C912    1.511   .     S
C903   C1477   1.419   .     S
C904   N948    1.393   .     A
C904   C914    1.511   .     S
C905   H945    1.104   .     S
C905   H946    1.111   .     S
C905   C778    1.519   1_655 S
C905   C790    1.555   1_655 S
C906   H942    1.107   .     S
C906   H943    1.109   .     S
C907   H928    1.111   .     S
C907   H927    1.109   .     S
C908   O954    1.286   .     A
C908   O952    1.284   .     A
C909   H924    1.108   .     S
C909   H925    1.109   .     S
C909   H926    1.108   .     S
C909   C779    1.532   1_655 S
C910   C920    1.441   .     S
C910   N949    1.156   .     T
C911   C921    1.446   .     S
C911   N950    1.157   .     T
C912   H933    1.111   .     S
C912   H932    1.090   .     S
C912   C913    1.530   .     S
C913   H930    1.111   .     S
C913   H931    1.111   .     S
C913   H1505   1.109   .     S
C914   H939    1.090   .     S
C914   H938    1.107   .     S
C914   C915    1.530   .     S
C915   H937    1.111   .     S
C916   O955    1.298   .     A
C916   O957    1.290   .     A
C916   C918    1.454   .     S
C917   C919    1.457   .     S
C917   O958    1.311   .     A
C917   O956    1.275   .     A
C919   C779    1.527   1_655 S
C919   C790    1.373   1_655 S
C921   C1090   1.377   .     S
C922   H923    1.087   .     S
C922   C1112   1.371   .     S
H935   C1491   1.108   .     S
H936   C1491   1.111   .     S
H944   C778    1.112   1_655 S
N947   Zn959   2.021   .     S
N948   Zn960   2.021   .     S
O951   Zn959   1.974   .     S
O952   Zn960   1.974   .     S
O953   Zn960   2.012   .     S
O954   Zn959   2.012   .     S
O955   Zn959   1.958   .     S
O956   Zn960   1.958   .     S
O957   Zn960   1.982   .     S
O958   Zn959   1.982   .     S
C961   O1017   1.289   .     A
C961   C964    1.418   .     S
C961   O1015   1.284   .     A
C962   C964    1.400   .     A
C962   H998    1.086   .     S
C963   C985    1.402   .     A
C963   C972    1.413   .     S
C963   C986    1.394   .     A
C964   C984    1.403   .     A
C965   N1012   1.355   .     A
C965   H1004   1.082   .     S
C966   H1005   1.077   .     S
C966   N1011   1.349   .     A
C966   C1544   1.421   .     S
C967   N1011   1.388   .     A
C967   C976    1.511   .     S
C967   C1541   1.419   .     S
C968   N1012   1.393   .     A
C968   C978    1.511   .     S
C969   H1009   1.104   .     S
C969   H1010   1.111   .     S
C969   C1034   1.519   .     S
C969   C1046   1.555   .     S
C970   H1006   1.107   .     S
C970   H1007   1.109   .     S
C970   C1097   1.519   1_455 S
C970   H1136   1.112   1_455 S
C971   H992    1.111   .     S
C971   H991    1.109   .     S
C971   C1101   1.532   1_455 S
C971   C1111   1.527   1_455 S
C972   O1018   1.286   .     A
C972   O1016   1.284   .     A
C973   H988    1.108   .     S
C973   H989    1.109   .     S
C973   H990    1.108   .     S
C973   C1035   1.532   .     S
C974   C984    1.441   .     S
C974   N1013   1.156   .     T
C975   C985    1.446   .     S
C975   N1014   1.157   .     T
C976   H997    1.111   .     S
C976   H996    1.090   .     S
C976   C977    1.530   .     S
C977   H994    1.111   .     S
C977   H995    1.111   .     S
C977   H1569   1.109   .     S
C978   H1003   1.090   .     S
C978   H1002   1.107   .     S
C978   C979    1.530   .     S
C979   H1001   1.111   .     S
C980   O1019   1.298   .     A
C980   O1021   1.290   .     A
C980   C982    1.454   .     S
C981   C983    1.457   .     S
C981   O1022   1.311   .     A
C981   O1020   1.275   .     A
C982   C1097   1.555   1_455 S
C982   C1111   1.373   1_455 S
C983   C1035   1.527   .     S
C983   C1046   1.373   .     S
C985   C578    1.377   1_565 S
C986   H987    1.087   .     S
C986   C600    1.371   1_565 S
H999   C1555   1.108   .     S
H1000  C1555   1.111   .     S
H1008  C1034   1.112   .     S
N1011  Zn1023  2.021   .     S
N1012  Zn1024  2.021   .     S
O1015  Zn1023  1.974   .     S
O1016  Zn1024  1.974   .     S
O1017  Zn1024  2.012   .     S
O1018  Zn1023  2.012   .     S
O1019  Zn1023  1.958   .     S
O1020  Zn1024  1.958   .     S
O1021  Zn1024  1.982   .     S
O1022  Zn1023  1.982   .     S
C1025  O1081   1.289   .     A
C1025  C1028   1.418   .     S
C1025  O1079   1.284   .     A
C1026  C1028   1.400   .     A
C1026  H1062   1.086   .     S
C1027  C1049   1.402   .     A
C1027  C1036   1.413   .     S
C1027  C1050   1.394   .     A
C1028  C1048   1.403   .     A
C1029  N1076   1.355   .     A
C1029  H1068   1.082   .     S
C1030  H1069   1.077   .     S
C1030  N1075   1.349   .     A
C1030  C1608   1.421   .     S
C1031  N1075   1.388   .     A
C1031  C1040   1.511   .     S
C1031  C1605   1.419   .     S
C1032  N1076   1.393   .     A
C1032  C1042   1.511   .     S
C1033  H1073   1.104   .     S
C1033  H1074   1.111   .     S
C1033  C1098   1.519   .     S
C1033  C1110   1.555   .     S
C1034  H1070   1.107   .     S
C1034  H1071   1.109   .     S
C1035  H1056   1.111   .     S
C1035  H1055   1.109   .     S
C1036  O1082   1.286   .     A
C1036  O1080   1.284   .     A
C1037  H1052   1.108   .     S
C1037  H1053   1.109   .     S
C1037  H1054   1.108   .     S
C1037  C1099   1.532   .     S
C1038  C1048   1.441   .     S
C1038  N1077   1.156   .     T
C1039  C1049   1.446   .     S
C1039  N1078   1.157   .     T
C1040  H1061   1.111   .     S
C1040  H1060   1.090   .     S
C1040  C1041   1.530   .     S
C1041  H1058   1.111   .     S
C1041  H1059   1.111   .     S
C1041  H1633   1.109   .     S
C1042  H1067   1.090   .     S
C1042  H1066   1.107   .     S
C1042  C1043   1.530   .     S
C1043  H1065   1.111   .     S
C1044  O1083   1.298   .     A
C1044  O1085   1.290   .     A
C1044  C1046   1.454   .     S
C1045  C1047   1.457   .     S
C1045  O1086   1.311   .     A
C1045  O1084   1.275   .     A
C1047  C1099   1.527   .     S
C1047  C1110   1.373   .     S
C1049  C642    1.377   1_565 S
C1050  H1051   1.087   .     S
C1050  C664    1.371   1_565 S
H1063  C1619   1.108   .     S
H1064  C1619   1.111   .     S
H1072  C1098   1.112   .     S
N1075  Zn1087  2.021   .     S
N1076  Zn1088  2.021   .     S
O1079  Zn1087  1.974   .     S
O1080  Zn1088  1.974   .     S
O1081  Zn1088  2.012   .     S
O1082  Zn1087  2.012   .     S
O1083  Zn1087  1.958   .     S
O1084  Zn1088  1.958   .     S
O1085  Zn1088  1.982   .     S
O1086  Zn1087  1.982   .     S
C1089  O1145   1.289   .     A
C1089  C1092   1.418   .     S
C1089  O1143   1.284   .     A
C1090  C1092   1.400   .     A
C1090  H1126   1.086   .     S
C1091  C1113   1.402   .     A
C1091  C1100   1.413   .     S
C1091  C1114   1.394   .     A
C1092  C1112   1.403   .     A
C1093  N1140   1.355   .     A
C1093  H1132   1.082   .     S
C1094  H1133   1.077   .     S
C1094  N1139   1.349   .     A
C1094  C1672   1.421   .     S
C1095  N1139   1.388   .     A
C1095  C1104   1.511   .     S
C1095  C1669   1.419   .     S
C1096  N1140   1.393   .     A
C1096  C1106   1.511   .     S
C1097  H1137   1.104   .     S
C1097  H1138   1.111   .     S
C1097  C970    1.519   1_655 S
C1097  C982    1.555   1_655 S
C1098  H1134   1.107   .     S
C1098  H1135   1.109   .     S
C1099  H1120   1.111   .     S
C1099  H1119   1.109   .     S
C1100  O1146   1.286   .     A
C1100  O1144   1.284   .     A
C1101  H1116   1.108   .     S
C1101  H1117   1.109   .     S
C1101  H1118   1.108   .     S
C1101  C971    1.532   1_655 S
C1102  C1112   1.441   .     S
C1102  N1141   1.156   .     T
C1103  C1113   1.446   .     S
C1103  N1142   1.157   .     T
C1104  H1125   1.111   .     S
C1104  H1124   1.090   .     S
C1104  C1105   1.530   .     S
C1105  H1122   1.111   .     S
C1105  H1123   1.111   .     S
C1105  H1697   1.109   .     S
C1106  H1131   1.090   .     S
C1106  H1130   1.107   .     S
C1106  C1107   1.530   .     S
C1107  H1129   1.111   .     S
C1108  O1147   1.298   .     A
C1108  O1149   1.290   .     A
C1108  C1110   1.454   .     S
C1109  C1111   1.457   .     S
C1109  O1150   1.311   .     A
C1109  O1148   1.275   .     A
C1111  C971    1.527   1_655 S
C1111  C982    1.373   1_655 S
C1113  C706    1.377   1_565 S
C1114  H1115   1.087   .     S
C1114  C728    1.371   1_565 S
H1127  C1683   1.108   .     S
H1128  C1683   1.111   .     S
H1136  C970    1.112   1_655 S
N1139  Zn1151  2.021   .     S
N1140  Zn1152  2.021   .     S
O1143  Zn1151  1.974   .     S
O1144  Zn1152  1.974   .     S
O1145  Zn1152  2.012   .     S
O1146  Zn1151  2.012   .     S
O1147  Zn1151  1.958   .     S
O1148  Zn1152  1.958   .     S
O1149  Zn1152  1.982   .     S
O1150  Zn1151  1.982   .     S
C1153  O1209   1.289   .     A
C1153  C1156   1.418   .     S
C1153  O1207   1.284   .     A
C1154  C1156   1.400   .     A
C1154  H1190   1.086   .     S
C1154  C1561   1.377   1_545 S
C1155  C1177   1.402   .     A
C1155  C1164   1.413   .     S
C1155  C1178   1.394   .     A
C1156  C1176   1.403   .     A
C1157  N1204   1.355   .     A
C1157  H1196   1.082   .     S
C1158  H1197   1.077   .     S
C1158  N1203   1.349   .     A
C1158  C8      1.421   1_556 S
C1159  N1203   1.388   .     A
C1159  C1168   1.511   .     S
C1159  C5      1.419   1_556 S
C1160  N1204   1.393   .     A
C1160  C1170   1.511   .     S
C1161  H1201   1.104   .     S
C1161  H1202   1.111   .     S
C1161  C1226   1.519   .     S
C1161  C1238   1.555   .     S
C1162  H1198   1.107   .     S
C1162  H1199   1.109   .     S
C1162  C1289   1.519   1_455 S
C1162  H1328   1.112   1_455 S
C1163  H1184   1.111   .     S
C1163  H1183   1.109   .     S
C1163  C1293   1.532   1_455 S
C1163  C1303   1.527   1_455 S
C1164  O1210   1.286   .     A
C1164  O1208   1.284   .     A
C1165  H1180   1.108   .     S
C1165  H1181   1.109   .     S
C1165  H1182   1.108   .     S
C1165  C1227   1.532   .     S
C1166  C1176   1.441   .     S
C1166  N1205   1.156   .     T
C1167  C1177   1.446   .     S
C1167  N1206   1.157   .     T
C1168  H1189   1.111   .     S
C1168  H1188   1.090   .     S
C1168  C1169   1.530   .     S
C1169  H1186   1.111   .     S
C1169  H1187   1.111   .     S
C1169  H33     1.109   1_556 S
C1170  H1195   1.090   .     S
C1170  H1194   1.107   .     S
C1170  C1171   1.530   .     S
C1171  H1193   1.111   .     S
C1172  O1211   1.298   .     A
C1172  O1213   1.290   .     A
C1172  C1174   1.454   .     S
C1173  C1175   1.457   .     S
C1173  O1214   1.311   .     A
C1173  O1212   1.275   .     A
C1174  C1289   1.555   1_455 S
C1174  C1303   1.373   1_455 S
C1175  C1227   1.527   .     S
C1175  C1238   1.373   .     S
C1176  C1562   1.371   1_545 S
C1177  C1346   1.377   .     S
C1178  H1179   1.087   .     S
C1178  C1368   1.371   .     S
H1191  C19     1.108   1_556 S
H1192  C19     1.111   1_556 S
H1200  C1226   1.112   .     S
N1203  Zn1215  2.021   .     S
N1204  Zn1216  2.021   .     S
O1207  Zn1215  1.974   .     S
O1208  Zn1216  1.974   .     S
O1209  Zn1216  2.012   .     S
O1210  Zn1215  2.012   .     S
O1211  Zn1215  1.958   .     S
O1212  Zn1216  1.958   .     S
O1213  Zn1216  1.982   .     S
O1214  Zn1215  1.982   .     S
C1217  O1273   1.289   .     A
C1217  C1220   1.418   .     S
C1217  O1271   1.284   .     A
C1218  C1220   1.400   .     A
C1218  H1254   1.086   .     S
C1218  C1625   1.377   1_545 S
C1219  C1241   1.402   .     A
C1219  C1228   1.413   .     S
C1219  C1242   1.394   .     A
C1220  C1240   1.403   .     A
C1221  N1268   1.355   .     A
C1221  H1260   1.082   .     S
C1222  H1261   1.077   .     S
C1222  N1267   1.349   .     A
C1222  C72     1.421   1_556 S
C1223  N1267   1.388   .     A
C1223  C1232   1.511   .     S
C1223  C69     1.419   1_556 S
C1224  N1268   1.393   .     A
C1224  C1234   1.511   .     S
C1225  H1265   1.104   .     S
C1225  H1266   1.111   .     S
C1225  C1290   1.519   .     S
C1225  C1302   1.555   .     S
C1226  H1262   1.107   .     S
C1226  H1263   1.109   .     S
C1227  H1248   1.111   .     S
C1227  H1247   1.109   .     S
C1228  O1274   1.286   .     A
C1228  O1272   1.284   .     A
C1229  H1244   1.108   .     S
C1229  H1245   1.109   .     S
C1229  H1246   1.108   .     S
C1229  C1291   1.532   .     S
C1230  C1240   1.441   .     S
C1230  N1269   1.156   .     T
C1231  C1241   1.446   .     S
C1231  N1270   1.157   .     T
C1232  H1253   1.111   .     S
C1232  H1252   1.090   .     S
C1232  C1233   1.530   .     S
C1233  H1250   1.111   .     S
C1233  H1251   1.111   .     S
C1233  H97     1.109   1_556 S
C1234  H1259   1.090   .     S
C1234  H1258   1.107   .     S
C1234  C1235   1.530   .     S
C1235  H1257   1.111   .     S
C1236  O1275   1.298   .     A
C1236  O1277   1.290   .     A
C1236  C1238   1.454   .     S
C1237  C1239   1.457   .     S
C1237  O1278   1.311   .     A
C1237  O1276   1.275   .     A
C1239  C1291   1.527   .     S
C1239  C1302   1.373   .     S
C1240  C1626   1.371   1_545 S
C1241  C1410   1.377   .     S
C1242  H1243   1.087   .     S
C1242  C1432   1.371   .     S
H1255  C83     1.108   1_556 S
H1256  C83     1.111   1_556 S
H1264  C1290   1.112   .     S
N1267  Zn1279  2.021   .     S
N1268  Zn1280  2.021   .     S
O1271  Zn1279  1.974   .     S
O1272  Zn1280  1.974   .     S
O1273  Zn1280  2.012   .     S
O1274  Zn1279  2.012   .     S
O1275  Zn1279  1.958   .     S
O1276  Zn1280  1.958   .     S
O1277  Zn1280  1.982   .     S
O1278  Zn1279  1.982   .     S
C1281  O1337   1.289   .     A
C1281  C1284   1.418   .     S
C1281  O1335   1.284   .     A
C1282  C1284   1.400   .     A
C1282  H1318   1.086   .     S
C1282  C1689   1.377   1_545 S
C1283  C1305   1.402   .     A
C1283  C1292   1.413   .     S
C1283  C1306   1.394   .     A
C1284  C1304   1.403   .     A
C1285  N1332   1.355   .     A
C1285  H1324   1.082   .     S
C1286  H1325   1.077   .     S
C1286  N1331   1.349   .     A
C1286  C136    1.421   1_556 S
C1287  N1331   1.388   .     A
C1287  C1296   1.511   .     S
C1287  C133    1.419   1_556 S
C1288  N1332   1.393   .     A
C1288  C1298   1.511   .     S
C1289  H1329   1.104   .     S
C1289  H1330   1.111   .     S
C1289  C1162   1.519   1_655 S
C1289  C1174   1.555   1_655 S
C1290  H1326   1.107   .     S
C1290  H1327   1.109   .     S
C1291  H1312   1.111   .     S
C1291  H1311   1.109   .     S
C1292  O1338   1.286   .     A
C1292  O1336   1.284   .     A
C1293  H1308   1.108   .     S
C1293  H1309   1.109   .     S
C1293  H1310   1.108   .     S
C1293  C1163   1.532   1_655 S
C1294  C1304   1.441   .     S
C1294  N1333   1.156   .     T
C1295  C1305   1.446   .     S
C1295  N1334   1.157   .     T
C1296  H1317   1.111   .     S
C1296  H1316   1.090   .     S
C1296  C1297   1.530   .     S
C1297  H1314   1.111   .     S
C1297  H1315   1.111   .     S
C1297  H161    1.109   1_556 S
C1298  H1323   1.090   .     S
C1298  H1322   1.107   .     S
C1298  C1299   1.530   .     S
C1299  H1321   1.111   .     S
C1300  O1339   1.298   .     A
C1300  O1341   1.290   .     A
C1300  C1302   1.454   .     S
C1301  C1303   1.457   .     S
C1301  O1342   1.311   .     A
C1301  O1340   1.275   .     A
C1303  C1163   1.527   1_655 S
C1303  C1174   1.373   1_655 S
C1304  C1690   1.371   1_545 S
C1305  C1474   1.377   .     S
C1306  H1307   1.087   .     S
C1306  C1496   1.371   .     S
H1319  C147    1.108   1_556 S
H1320  C147    1.111   1_556 S
H1328  C1162   1.112   1_655 S
N1331  Zn1343  2.021   .     S
N1332  Zn1344  2.021   .     S
O1335  Zn1343  1.974   .     S
O1336  Zn1344  1.974   .     S
O1337  Zn1344  2.012   .     S
O1338  Zn1343  2.012   .     S
O1339  Zn1343  1.958   .     S
O1340  Zn1344  1.958   .     S
O1341  Zn1344  1.982   .     S
O1342  Zn1343  1.982   .     S
C1345  O1401   1.289   .     A
C1345  C1348   1.418   .     S
C1345  O1399   1.284   .     A
C1346  C1348   1.400   .     A
C1346  H1382   1.086   .     S
C1347  C1369   1.402   .     A
C1347  C1356   1.413   .     S
C1347  C1370   1.394   .     A
C1348  C1368   1.403   .     A
C1349  N1396   1.355   .     A
C1349  H1388   1.082   .     S
C1350  H1389   1.077   .     S
C1350  N1395   1.349   .     A
C1350  C200    1.421   1_556 S
C1351  N1395   1.388   .     A
C1351  C1360   1.511   .     S
C1351  C197    1.419   1_556 S
C1352  N1396   1.393   .     A
C1352  C1362   1.511   .     S
C1353  H1393   1.104   .     S
C1353  H1394   1.111   .     S
C1353  C1418   1.519   .     S
C1353  C1430   1.555   .     S
C1354  H1390   1.107   .     S
C1354  H1391   1.109   .     S
C1354  C1481   1.519   1_455 S
C1354  H1520   1.112   1_455 S
C1355  H1376   1.111   .     S
C1355  H1375   1.109   .     S
C1355  C1485   1.532   1_455 S
C1355  C1495   1.527   1_455 S
C1356  O1402   1.286   .     A
C1356  O1400   1.284   .     A
C1357  H1372   1.108   .     S
C1357  H1373   1.109   .     S
C1357  H1374   1.108   .     S
C1357  C1419   1.532   .     S
C1358  C1368   1.441   .     S
C1358  N1397   1.156   .     T
C1359  C1369   1.446   .     S
C1359  N1398   1.157   .     T
C1360  H1381   1.111   .     S
C1360  H1380   1.090   .     S
C1360  C1361   1.530   .     S
C1361  H1378   1.111   .     S
C1361  H1379   1.111   .     S
C1361  H225    1.109   1_556 S
C1362  H1387   1.090   .     S
C1362  H1386   1.107   .     S
C1362  C1363   1.530   .     S
C1363  H1385   1.111   .     S
C1364  O1403   1.298   .     A
C1364  O1405   1.290   .     A
C1364  C1366   1.454   .     S
C1365  C1367   1.457   .     S
C1365  O1406   1.311   .     A
C1365  O1404   1.275   .     A
C1366  C1481   1.555   1_455 S
C1366  C1495   1.373   1_455 S
C1367  C1419   1.527   .     S
C1367  C1430   1.373   .     S
C1369  C1538   1.377   .     S
C1370  H1371   1.087   .     S
C1370  C1560   1.371   .     S
H1383  C211    1.108   1_556 S
H1384  C211    1.111   1_556 S
H1392  C1418   1.112   .     S
N1395  Zn1407  2.021   .     S
N1396  Zn1408  2.021   .     S
O1399  Zn1407  1.974   .     S
O1400  Zn1408  1.974   .     S
O1401  Zn1408  2.012   .     S
O1402  Zn1407  2.012   .     S
O1403  Zn1407  1.958   .     S
O1404  Zn1408  1.958   .     S
O1405  Zn1408  1.982   .     S
O1406  Zn1407  1.982   .     S
C1409  O1465   1.289   .     A
C1409  C1412   1.418   .     S
C1409  O1463   1.284   .     A
C1410  C1412   1.400   .     A
C1410  H1446   1.086   .     S
C1411  C1433   1.402   .     A
C1411  C1420   1.413   .     S
C1411  C1434   1.394   .     A
C1412  C1432   1.403   .     A
C1413  N1460   1.355   .     A
C1413  H1452   1.082   .     S
C1414  H1453   1.077   .     S
C1414  N1459   1.349   .     A
C1414  C264    1.421   1_556 S
C1415  N1459   1.388   .     A
C1415  C1424   1.511   .     S
C1415  C261    1.419   1_556 S
C1416  N1460   1.393   .     A
C1416  C1426   1.511   .     S
C1417  H1457   1.104   .     S
C1417  H1458   1.111   .     S
C1417  C1482   1.519   .     S
C1417  C1494   1.555   .     S
C1418  H1454   1.107   .     S
C1418  H1455   1.109   .     S
C1419  H1440   1.111   .     S
C1419  H1439   1.109   .     S
C1420  O1466   1.286   .     A
C1420  O1464   1.284   .     A
C1421  H1436   1.108   .     S
C1421  H1437   1.109   .     S
C1421  H1438   1.108   .     S
C1421  C1483   1.532   .     S
C1422  C1432   1.441   .     S
C1422  N1461   1.156   .     T
C1423  C1433   1.446   .     S
C1423  N1462   1.157   .     T
C1424  H1445   1.111   .     S
C1424  H1444   1.090   .     S
C1424  C1425   1.530   .     S
C1425  H1442   1.111   .     S
C1425  H1443   1.111   .     S
C1425  H289    1.109   1_556 S
C1426  H1451   1.090   .     S
C1426  H1450   1.107   .     S
C1426  C1427   1.530   .     S
C1427  H1449   1.111   .     S
C1428  O1467   1.298   .     A
C1428  O1469   1.290   .     A
C1428  C1430   1.454   .     S
C1429  C1431   1.457   .     S
C1429  O1470   1.311   .     A
C1429  O1468   1.275   .     A
C1431  C1483   1.527   .     S
C1431  C1494   1.373   .     S
C1433  C1602   1.377   .     S
C1434  H1435   1.087   .     S
C1434  C1624   1.371   .     S
H1447  C275    1.108   1_556 S
H1448  C275    1.111   1_556 S
H1456  C1482   1.112   .     S
N1459  Zn1471  2.021   .     S
N1460  Zn1472  2.021   .     S
O1463  Zn1471  1.974   .     S
O1464  Zn1472  1.974   .     S
O1465  Zn1472  2.012   .     S
O1466  Zn1471  2.012   .     S
O1467  Zn1471  1.958   .     S
O1468  Zn1472  1.958   .     S
O1469  Zn1472  1.982   .     S
O1470  Zn1471  1.982   .     S
C1473  O1529   1.289   .     A
C1473  C1476   1.418   .     S
C1473  O1527   1.284   .     A
C1474  C1476   1.400   .     A
C1474  H1510   1.086   .     S
C1475  C1497   1.402   .     A
C1475  C1484   1.413   .     S
C1475  C1498   1.394   .     A
C1476  C1496   1.403   .     A
C1477  N1524   1.355   .     A
C1477  H1516   1.082   .     S
C1478  H1517   1.077   .     S
C1478  N1523   1.349   .     A
C1478  C328    1.421   1_556 S
C1479  N1523   1.388   .     A
C1479  C1488   1.511   .     S
C1479  C325    1.419   1_556 S
C1480  N1524   1.393   .     A
C1480  C1490   1.511   .     S
C1481  H1521   1.104   .     S
C1481  H1522   1.111   .     S
C1481  C1354   1.519   1_655 S
C1481  C1366   1.555   1_655 S
C1482  H1518   1.107   .     S
C1482  H1519   1.109   .     S
C1483  H1504   1.111   .     S
C1483  H1503   1.109   .     S
C1484  O1530   1.286   .     A
C1484  O1528   1.284   .     A
C1485  H1500   1.108   .     S
C1485  H1501   1.109   .     S
C1485  H1502   1.108   .     S
C1485  C1355   1.532   1_655 S
C1486  C1496   1.441   .     S
C1486  N1525   1.156   .     T
C1487  C1497   1.446   .     S
C1487  N1526   1.157   .     T
C1488  H1509   1.111   .     S
C1488  H1508   1.090   .     S
C1488  C1489   1.530   .     S
C1489  H1506   1.111   .     S
C1489  H1507   1.111   .     S
C1489  H353    1.109   1_556 S
C1490  H1515   1.090   .     S
C1490  H1514   1.107   .     S
C1490  C1491   1.530   .     S
C1491  H1513   1.111   .     S
C1492  O1531   1.298   .     A
C1492  O1533   1.290   .     A
C1492  C1494   1.454   .     S
C1493  C1495   1.457   .     S
C1493  O1534   1.311   .     A
C1493  O1532   1.275   .     A
C1495  C1355   1.527   1_655 S
C1495  C1366   1.373   1_655 S
C1497  C1666   1.377   .     S
C1498  H1499   1.087   .     S
C1498  C1688   1.371   .     S
H1511  C339    1.108   1_556 S
H1512  C339    1.111   1_556 S
H1520  C1354   1.112   1_655 S
N1523  Zn1535  2.021   .     S
N1524  Zn1536  2.021   .     S
O1527  Zn1535  1.974   .     S
O1528  Zn1536  1.974   .     S
O1529  Zn1536  2.012   .     S
O1530  Zn1535  2.012   .     S
O1531  Zn1535  1.958   .     S
O1532  Zn1536  1.958   .     S
O1533  Zn1536  1.982   .     S
O1534  Zn1535  1.982   .     S
C1537  O1593   1.289   .     A
C1537  C1540   1.418   .     S
C1537  O1591   1.284   .     A
C1538  C1540   1.400   .     A
C1538  H1574   1.086   .     S
C1539  C1561   1.402   .     A
C1539  C1548   1.413   .     S
C1539  C1562   1.394   .     A
C1540  C1560   1.403   .     A
C1541  N1588   1.355   .     A
C1541  H1580   1.082   .     S
C1542  H1581   1.077   .     S
C1542  N1587   1.349   .     A
C1542  C392    1.421   1_556 S
C1543  N1587   1.388   .     A
C1543  C1552   1.511   .     S
C1543  C389    1.419   1_556 S
C1544  N1588   1.393   .     A
C1544  C1554   1.511   .     S
C1545  H1585   1.104   .     S
C1545  H1586   1.111   .     S
C1545  C1610   1.519   .     S
C1545  C1622   1.555   .     S
C1546  H1582   1.107   .     S
C1546  H1583   1.109   .     S
C1546  C1673   1.519   1_455 S
C1546  H1712   1.112   1_455 S
C1547  H1568   1.111   .     S
C1547  H1567   1.109   .     S
C1547  C1677   1.532   1_455 S
C1547  C1687   1.527   1_455 S
C1548  O1594   1.286   .     A
C1548  O1592   1.284   .     A
C1549  H1564   1.108   .     S
C1549  H1565   1.109   .     S
C1549  H1566   1.108   .     S
C1549  C1611   1.532   .     S
C1550  C1560   1.441   .     S
C1550  N1589   1.156   .     T
C1551  C1561   1.446   .     S
C1551  N1590   1.157   .     T
C1552  H1573   1.111   .     S
C1552  H1572   1.090   .     S
C1552  C1553   1.530   .     S
C1553  H1570   1.111   .     S
C1553  H1571   1.111   .     S
C1553  H417    1.109   1_556 S
C1554  H1579   1.090   .     S
C1554  H1578   1.107   .     S
C1554  C1555   1.530   .     S
C1555  H1577   1.111   .     S
C1556  O1595   1.298   .     A
C1556  O1597   1.290   .     A
C1556  C1558   1.454   .     S
C1557  C1559   1.457   .     S
C1557  O1598   1.311   .     A
C1557  O1596   1.275   .     A
C1558  C1673   1.555   1_455 S
C1558  C1687   1.373   1_455 S
C1559  C1611   1.527   .     S
C1559  C1622   1.373   .     S
C1561  C1154   1.377   1_565 S
C1562  H1563   1.087   .     S
C1562  C1176   1.371   1_565 S
H1575  C403    1.108   1_556 S
H1576  C403    1.111   1_556 S
H1584  C1610   1.112   .     S
N1587  Zn1599  2.021   .     S
N1588  Zn1600  2.021   .     S
O1591  Zn1599  1.974   .     S
O1592  Zn1600  1.974   .     S
O1593  Zn1600  2.012   .     S
O1594  Zn1599  2.012   .     S
O1595  Zn1599  1.958   .     S
O1596  Zn1600  1.958   .     S
O1597  Zn1600  1.982   .     S
O1598  Zn1599  1.982   .     S
C1601  O1657   1.289   .     A
C1601  C1604   1.418   .     S
C1601  O1655   1.284   .     A
C1602  C1604   1.400   .     A
C1602  H1638   1.086   .     S
C1603  C1625   1.402   .     A
C1603  C1612   1.413   .     S
C1603  C1626   1.394   .     A
C1604  C1624   1.403   .     A
C1605  N1652   1.355   .     A
C1605  H1644   1.082   .     S
C1606  H1645   1.077   .     S
C1606  N1651   1.349   .     A
C1606  C456    1.421   1_556 S
C1607  N1651   1.388   .     A
C1607  C1616   1.511   .     S
C1607  C453    1.419   1_556 S
C1608  N1652   1.393   .     A
C1608  C1618   1.511   .     S
C1609  H1649   1.104   .     S
C1609  H1650   1.111   .     S
C1609  C1674   1.519   .     S
C1609  C1686   1.555   .     S
C1610  H1646   1.107   .     S
C1610  H1647   1.109   .     S
C1611  H1632   1.111   .     S
C1611  H1631   1.109   .     S
C1612  O1658   1.286   .     A
C1612  O1656   1.284   .     A
C1613  H1628   1.108   .     S
C1613  H1629   1.109   .     S
C1613  H1630   1.108   .     S
C1613  C1675   1.532   .     S
C1614  C1624   1.441   .     S
C1614  N1653   1.156   .     T
C1615  C1625   1.446   .     S
C1615  N1654   1.157   .     T
C1616  H1637   1.111   .     S
C1616  H1636   1.090   .     S
C1616  C1617   1.530   .     S
C1617  H1634   1.111   .     S
C1617  H1635   1.111   .     S
C1617  H481    1.109   1_556 S
C1618  H1643   1.090   .     S
C1618  H1642   1.107   .     S
C1618  C1619   1.530   .     S
C1619  H1641   1.111   .     S
C1620  O1659   1.298   .     A
C1620  O1661   1.290   .     A
C1620  C1622   1.454   .     S
C1621  C1623   1.457   .     S
C1621  O1662   1.311   .     A
C1621  O1660   1.275   .     A
C1623  C1675   1.527   .     S
C1623  C1686   1.373   .     S
C1625  C1218   1.377   1_565 S
C1626  H1627   1.087   .     S
C1626  C1240   1.371   1_565 S
H1639  C467    1.108   1_556 S
H1640  C467    1.111   1_556 S
H1648  C1674   1.112   .     S
N1651  Zn1663  2.021   .     S
N1652  Zn1664  2.021   .     S
O1655  Zn1663  1.974   .     S
O1656  Zn1664  1.974   .     S
O1657  Zn1664  2.012   .     S
O1658  Zn1663  2.012   .     S
O1659  Zn1663  1.958   .     S
O1660  Zn1664  1.958   .     S
O1661  Zn1664  1.982   .     S
O1662  Zn1663  1.982   .     S
C1665  O1721   1.289   .     A
C1665  C1668   1.418   .     S
C1665  O1719   1.284   .     A
C1666  C1668   1.400   .     A
C1666  H1702   1.086   .     S
C1667  C1689   1.402   .     A
C1667  C1676   1.413   .     S
C1667  C1690   1.394   .     A
C1668  C1688   1.403   .     A
C1669  N1716   1.355   .     A
C1669  H1708   1.082   .     S
C1670  H1709   1.077   .     S
C1670  N1715   1.349   .     A
C1670  C520    1.421   1_556 S
C1671  N1715   1.388   .     A
C1671  C1680   1.511   .     S
C1671  C517    1.419   1_556 S
C1672  N1716   1.393   .     A
C1672  C1682   1.511   .     S
C1673  H1713   1.104   .     S
C1673  H1714   1.111   .     S
C1673  C1546   1.519   1_655 S
C1673  C1558   1.555   1_655 S
C1674  H1710   1.107   .     S
C1674  H1711   1.109   .     S
C1675  H1696   1.111   .     S
C1675  H1695   1.109   .     S
C1676  O1722   1.286   .     A
C1676  O1720   1.284   .     A
C1677  H1692   1.108   .     S
C1677  H1693   1.109   .     S
C1677  H1694   1.108   .     S
C1677  C1547   1.532   1_655 S
C1678  C1688   1.441   .     S
C1678  N1717   1.156   .     T
C1679  C1689   1.446   .     S
C1679  N1718   1.157   .     T
C1680  H1701   1.111   .     S
C1680  H1700   1.090   .     S
C1680  C1681   1.530   .     S
C1681  H1698   1.111   .     S
C1681  H1699   1.111   .     S
C1681  H545    1.109   1_556 S
C1682  H1707   1.090   .     S
C1682  H1706   1.107   .     S
C1682  C1683   1.530   .     S
C1683  H1705   1.111   .     S
C1684  O1723   1.298   .     A
C1684  O1725   1.290   .     A
C1684  C1686   1.454   .     S
C1685  C1687   1.457   .     S
C1685  O1726   1.311   .     A
C1685  O1724   1.275   .     A
C1687  C1547   1.527   1_655 S
C1687  C1558   1.373   1_655 S
C1689  C1282   1.377   1_565 S
C1690  H1691   1.087   .     S
C1690  C1304   1.371   1_565 S
H1703  C531    1.108   1_556 S
H1704  C531    1.111   1_556 S
H1712  C1546   1.112   1_655 S
N1715  Zn1727  2.021   .     S
N1716  Zn1728  2.021   .     S
O1719  Zn1727  1.974   .     S
O1720  Zn1728  1.974   .     S
O1721  Zn1728  2.012   .     S
O1722  Zn1727  2.012   .     S
O1723  Zn1727  1.958   .     S
O1724  Zn1728  1.958   .     S
O1725  Zn1728  1.982   .     S
O1726  Zn1727  1.982   .     S
