data_str_m3_o1_o17_pcu_sym.50
_audit_creation_date              2020-01-03
_audit_creation_method            'Materials Studio'
_symmetry_space_group_name_H-M    'P1'
_symmetry_Int_Tables_number       1
_symmetry_cell_setting            triclinic
loop_
_symmetry_equiv_pos_as_xyz
  x,y,z
_cell_length_a                    31.6623
_cell_length_b                    29.4896
_cell_length_c                    30.0652
_cell_angle_alpha                 90.5342
_cell_angle_beta                  89.9414
_cell_angle_gamma                 89.3734
loop_
_atom_site_label
_atom_site_type_symbol
_atom_site_fract_x
_atom_site_fract_y
_atom_site_fract_z
_atom_site_U_iso_or_equiv
_atom_site_adp_type
_atom_site_occupancy
C1     C     0.08682   0.16710   0.25640   0.00000  Uiso   1.00
C2     C     0.04308   0.16803   0.27154   0.00000  Uiso   1.00
C3     C     0.18065   0.02414   0.28617   0.00000  Uiso   1.00
C4     C     0.15221   0.30919   0.21402   0.00000  Uiso   1.00
C5     C     0.15223   0.02382   0.21401   0.00000  Uiso   1.00
C6     C     0.18065   0.30955   0.28617   0.00000  Uiso   1.00
C7     C     0.16706   0.16641   0.16330   0.00000  Uiso   1.00
C8     C     0.16633   0.16692   0.33668   0.00000  Uiso   1.00
C9     C     0.18037   0.12890   0.40666   0.00000  Uiso   1.00
C10    C     0.15356   0.20458   0.09323   0.00000  Uiso   1.00
C11    C     0.16647   0.16749   0.38455   0.00000  Uiso   1.00
C12    C     0.24642   0.16637   0.25671   0.00000  Uiso   1.00
C13    C     0.16719   0.16589   0.11539   0.00000  Uiso   1.00
C14    C     0.15295   0.20616   0.40788   0.00000  Uiso   1.00
C15    C     0.18081   0.12725   0.09204   0.00000  Uiso   1.00
C16    C     0.15308   0.20624   0.45415   0.00000  Uiso   1.00
C17    C     0.18100   0.12729   0.04575   0.00000  Uiso   1.00
C18    C     0.16739   0.16702   0.47674   0.00000  Uiso   1.00
C19    C     0.16677   0.16654   0.02316   0.00000  Uiso   1.00
C20    C     0.18205   0.12822   0.45281   0.00000  Uiso   1.00
C21    C     0.15211   0.20534   0.04708   0.00000  Uiso   1.00
C22    C     0.13855   0.24450   0.47804   0.00000  Uiso   1.00
C23    C     0.13745   0.24425   0.02439   0.00000  Uiso   1.00
C24    C     0.19571   0.08910   0.02185   0.00000  Uiso   1.00
C25    C     0.11966   0.28474   0.04789   0.00000  Uiso   1.00
C26    C     0.21483   0.04898   0.45195   0.00000  Uiso   1.00
C27    C     0.04765   0.08876   0.30284   0.00000  Uiso   1.00
C28    C     0.28588   0.24517   0.30406   0.00000  Uiso   1.00
C29    C     0.29160   0.08063   0.27983   0.00000  Uiso   1.00
C30    C     0.04103   0.25389   0.27591   0.00000  Uiso   1.00
C31    C     0.19687   0.08937   0.47549   0.00000  Uiso   1.00
C32    C     0.02337   0.12684   0.28226   0.00000  Uiso   1.00
C33    C     0.30984   0.20731   0.28192   0.00000  Uiso   1.00
C34    C     0.31296   0.12479   0.27745   0.00000  Uiso   1.00
C35    C     0.02014   0.20933   0.27635   0.00000  Uiso   1.00
C36    C     0.29013   0.16585   0.27186   0.00000  Uiso   1.00
F37    F     0.13837   0.24297   0.38539   0.00000  Uiso   1.00
F38    F     0.19514   0.09034   0.11455   0.00000  Uiso   1.00
F39    F     0.12399   0.28185   0.45641   0.00000  Uiso   1.00
F40    F     0.21036   0.05179   0.04348   0.00000  Uiso   1.00
H41    H     0.18962   0.09934   0.38735   0.00000  Uiso   1.00
H42    H     0.27788   0.31216   0.31464   0.00000  Uiso   1.00
H43    H     0.27290   0.02471   0.24644   0.00000  Uiso   1.00
H44    H     0.05507   0.30927   0.24013   0.00000  Uiso   1.00
H45    H     0.14429   0.23414   0.11253   0.00000  Uiso   1.00
H46    H     0.19176   0.04233   0.31517   0.00000  Uiso   1.00
H47    H     0.14049   0.29097   0.18528   0.00000  Uiso   1.00
H48    H     0.14058   0.04180   0.18526   0.00000  Uiso   1.00
H49    H     0.19172   0.29165   0.31517   0.00000  Uiso   1.00
H50    H     0.07854   0.30968   0.09347   0.00000  Uiso   1.00
H51    H     0.25585   0.02429   0.40611   0.00000  Uiso   1.00
H52    H     0.05679   0.02167   0.30985   0.00000  Uiso   1.00
N53    N     0.16667   0.28573   0.25000   0.00000  Uiso   1.00
N54    N     0.16667   0.04760   0.25000   0.00000  Uiso   1.00
O55    O     0.10559   0.20487   0.24999   0.00000  Uiso   1.00
O56    O     0.08814   0.27964   0.08002   0.00000  Uiso   1.00
O57    O     0.20304   0.01100   0.46175   0.00000  Uiso   1.00
O58    O     0.24617   0.05426   0.41965   0.00000  Uiso   1.00
O59    O     0.07551   0.09723   0.32974   0.00000  Uiso   1.00
O60    O     0.03843   0.04370   0.29263   0.00000  Uiso   1.00
O61    O     0.25810   0.23629   0.33082   0.00000  Uiso   1.00
O62    O     0.29564   0.29040   0.29599   0.00000  Uiso   1.00
O63    O     0.27326   0.06998   0.31389   0.00000  Uiso   1.00
O64    O     0.29137   0.05218   0.24240   0.00000  Uiso   1.00
O65    O     0.06313   0.26553   0.30724   0.00000  Uiso   1.00
O66    O     0.22774   0.12846   0.25000   0.00000  Uiso   1.00
O67    O     0.03655   0.28152   0.23866   0.00000  Uiso   1.00
O68    O     0.22774   0.20487   0.25000   0.00000  Uiso   1.00
O69    O     0.10559   0.12846   0.24999   0.00000  Uiso   1.00
O70    O     0.16666   0.20489   0.18392   0.00000  Uiso   1.00
O71    O     0.16667   0.12844   0.31607   0.00000  Uiso   1.00
O72    O     0.16667   0.20489   0.31607   0.00000  Uiso   1.00
O73    O     0.16666   0.12844   0.18392   0.00000  Uiso   1.00
O74    O     0.13172   0.32263   0.03816   0.00000  Uiso   1.00
Zn75   Zn    0.16667   0.21771   0.25000   0.00000  Uiso   1.00
Zn76   Zn    0.16667   0.11563   0.25000   0.00000  Uiso   1.00
C77    C     0.42015   0.16710   0.25640   0.00000  Uiso   1.00
C78    C     0.37641   0.16803   0.27154   0.00000  Uiso   1.00
C79    C     0.51398   0.02414   0.28617   0.00000  Uiso   1.00
C80    C     0.48555   0.30919   0.21402   0.00000  Uiso   1.00
C81    C     0.48556   0.02382   0.21401   0.00000  Uiso   1.00
C82    C     0.51399   0.30955   0.28617   0.00000  Uiso   1.00
C83    C     0.50039   0.16641   0.16330   0.00000  Uiso   1.00
C84    C     0.49967   0.16692   0.33668   0.00000  Uiso   1.00
C85    C     0.51370   0.12890   0.40666   0.00000  Uiso   1.00
C86    C     0.48690   0.20458   0.09323   0.00000  Uiso   1.00
C87    C     0.49980   0.16749   0.38455   0.00000  Uiso   1.00
C88    C     0.57975   0.16637   0.25671   0.00000  Uiso   1.00
C89    C     0.50052   0.16589   0.11539   0.00000  Uiso   1.00
C90    C     0.48629   0.20616   0.40788   0.00000  Uiso   1.00
C91    C     0.51415   0.12725   0.09204   0.00000  Uiso   1.00
C92    C     0.48641   0.20624   0.45415   0.00000  Uiso   1.00
C93    C     0.51433   0.12729   0.04575   0.00000  Uiso   1.00
C94    C     0.50072   0.16702   0.47674   0.00000  Uiso   1.00
C95    C     0.50011   0.16654   0.02316   0.00000  Uiso   1.00
C96    C     0.51538   0.12822   0.45281   0.00000  Uiso   1.00
C97    C     0.48545   0.20534   0.04708   0.00000  Uiso   1.00
C98    C     0.47188   0.24450   0.47804   0.00000  Uiso   1.00
C99    C     0.47079   0.24425   0.02439   0.00000  Uiso   1.00
C100   C     0.52904   0.08910   0.02185   0.00000  Uiso   1.00
C101   C     0.45299   0.28474   0.04789   0.00000  Uiso   1.00
C102   C     0.54816   0.04898   0.45195   0.00000  Uiso   1.00
C103   C     0.38099   0.08876   0.30284   0.00000  Uiso   1.00
C104   C     0.61922   0.24517   0.30406   0.00000  Uiso   1.00
C105   C     0.62493   0.08063   0.27983   0.00000  Uiso   1.00
C106   C     0.37436   0.25389   0.27591   0.00000  Uiso   1.00
C107   C     0.53020   0.08937   0.47549   0.00000  Uiso   1.00
C108   C     0.35670   0.12684   0.28226   0.00000  Uiso   1.00
C109   C     0.64317   0.20731   0.28192   0.00000  Uiso   1.00
C110   C     0.64630   0.12479   0.27745   0.00000  Uiso   1.00
C111   C     0.35348   0.20933   0.27635   0.00000  Uiso   1.00
C112   C     0.62346   0.16585   0.27186   0.00000  Uiso   1.00
F113   F     0.47171   0.24297   0.38539   0.00000  Uiso   1.00
F114   F     0.52847   0.09034   0.11455   0.00000  Uiso   1.00
F115   F     0.45732   0.28185   0.45641   0.00000  Uiso   1.00
F116   F     0.54369   0.05179   0.04348   0.00000  Uiso   1.00
H117   H     0.52296   0.09934   0.38735   0.00000  Uiso   1.00
H118   H     0.61121   0.31216   0.31464   0.00000  Uiso   1.00
H119   H     0.60623   0.02471   0.24644   0.00000  Uiso   1.00
H120   H     0.38840   0.30927   0.24013   0.00000  Uiso   1.00
H121   H     0.47762   0.23414   0.11253   0.00000  Uiso   1.00
H122   H     0.52510   0.04233   0.31517   0.00000  Uiso   1.00
H123   H     0.47382   0.29097   0.18528   0.00000  Uiso   1.00
H124   H     0.47391   0.04180   0.18526   0.00000  Uiso   1.00
H125   H     0.52506   0.29165   0.31517   0.00000  Uiso   1.00
H126   H     0.41187   0.30968   0.09347   0.00000  Uiso   1.00
H127   H     0.58918   0.02429   0.40611   0.00000  Uiso   1.00
H128   H     0.39013   0.02167   0.30985   0.00000  Uiso   1.00
N129   N     0.50000   0.28573   0.25000   0.00000  Uiso   1.00
N130   N     0.50000   0.04760   0.25000   0.00000  Uiso   1.00
O131   O     0.43892   0.20487   0.24999   0.00000  Uiso   1.00
O132   O     0.42147   0.27964   0.08002   0.00000  Uiso   1.00
O133   O     0.53637   0.01100   0.46175   0.00000  Uiso   1.00
O134   O     0.57951   0.05426   0.41965   0.00000  Uiso   1.00
O135   O     0.40885   0.09723   0.32974   0.00000  Uiso   1.00
O136   O     0.37177   0.04370   0.29263   0.00000  Uiso   1.00
O137   O     0.59144   0.23629   0.33082   0.00000  Uiso   1.00
O138   O     0.62897   0.29040   0.29599   0.00000  Uiso   1.00
O139   O     0.60659   0.06998   0.31389   0.00000  Uiso   1.00
O140   O     0.62471   0.05218   0.24240   0.00000  Uiso   1.00
O141   O     0.39646   0.26553   0.30724   0.00000  Uiso   1.00
O142   O     0.56108   0.12846   0.25000   0.00000  Uiso   1.00
O143   O     0.36988   0.28152   0.23866   0.00000  Uiso   1.00
O144   O     0.56108   0.20487   0.25000   0.00000  Uiso   1.00
O145   O     0.43892   0.12846   0.24999   0.00000  Uiso   1.00
O146   O     0.49999   0.20489   0.18392   0.00000  Uiso   1.00
O147   O     0.50001   0.12844   0.31607   0.00000  Uiso   1.00
O148   O     0.50001   0.20489   0.31607   0.00000  Uiso   1.00
O149   O     0.49999   0.12844   0.18392   0.00000  Uiso   1.00
O150   O     0.46505   0.32263   0.03816   0.00000  Uiso   1.00
Zn151  Zn    0.50000   0.21771   0.25000   0.00000  Uiso   1.00
Zn152  Zn    0.50000   0.11563   0.25000   0.00000  Uiso   1.00
C153   C     0.75349   0.16710   0.25640   0.00000  Uiso   1.00
C154   C     0.70974   0.16803   0.27154   0.00000  Uiso   1.00
C155   C     0.84731   0.02414   0.28617   0.00000  Uiso   1.00
C156   C     0.81888   0.30919   0.21402   0.00000  Uiso   1.00
C157   C     0.81889   0.02382   0.21401   0.00000  Uiso   1.00
C158   C     0.84732   0.30955   0.28617   0.00000  Uiso   1.00
C159   C     0.83372   0.16641   0.16330   0.00000  Uiso   1.00
C160   C     0.83300   0.16692   0.33668   0.00000  Uiso   1.00
C161   C     0.84704   0.12890   0.40666   0.00000  Uiso   1.00
C162   C     0.82023   0.20458   0.09323   0.00000  Uiso   1.00
C163   C     0.83314   0.16749   0.38455   0.00000  Uiso   1.00
C164   C     0.91309   0.16637   0.25671   0.00000  Uiso   1.00
C165   C     0.83385   0.16589   0.11539   0.00000  Uiso   1.00
C166   C     0.81962   0.20616   0.40788   0.00000  Uiso   1.00
C167   C     0.84748   0.12725   0.09204   0.00000  Uiso   1.00
C168   C     0.81974   0.20624   0.45415   0.00000  Uiso   1.00
C169   C     0.84767   0.12729   0.04575   0.00000  Uiso   1.00
C170   C     0.83406   0.16702   0.47674   0.00000  Uiso   1.00
C171   C     0.83344   0.16654   0.02316   0.00000  Uiso   1.00
C172   C     0.84871   0.12822   0.45281   0.00000  Uiso   1.00
C173   C     0.81878   0.20534   0.04708   0.00000  Uiso   1.00
C174   C     0.80522   0.24450   0.47804   0.00000  Uiso   1.00
C175   C     0.80412   0.24425   0.02439   0.00000  Uiso   1.00
C176   C     0.86237   0.08910   0.02185   0.00000  Uiso   1.00
C177   C     0.78633   0.28474   0.04789   0.00000  Uiso   1.00
C178   C     0.88149   0.04898   0.45195   0.00000  Uiso   1.00
C179   C     0.71432   0.08876   0.30284   0.00000  Uiso   1.00
C180   C     0.95255   0.24517   0.30406   0.00000  Uiso   1.00
C181   C     0.95827   0.08063   0.27983   0.00000  Uiso   1.00
C182   C     0.70769   0.25389   0.27591   0.00000  Uiso   1.00
C183   C     0.86354   0.08937   0.47549   0.00000  Uiso   1.00
C184   C     0.69003   0.12684   0.28226   0.00000  Uiso   1.00
C185   C     0.97650   0.20731   0.28192   0.00000  Uiso   1.00
C186   C     0.97963   0.12479   0.27745   0.00000  Uiso   1.00
C187   C     0.68681   0.20933   0.27635   0.00000  Uiso   1.00
C188   C     0.95680   0.16585   0.27186   0.00000  Uiso   1.00
F189   F     0.80504   0.24297   0.38539   0.00000  Uiso   1.00
F190   F     0.86180   0.09034   0.11455   0.00000  Uiso   1.00
F191   F     0.79066   0.28185   0.45641   0.00000  Uiso   1.00
F192   F     0.87702   0.05179   0.04348   0.00000  Uiso   1.00
H193   H     0.85629   0.09934   0.38735   0.00000  Uiso   1.00
H194   H     0.94455   0.31216   0.31464   0.00000  Uiso   1.00
H195   H     0.93956   0.02471   0.24644   0.00000  Uiso   1.00
H196   H     0.72173   0.30927   0.24013   0.00000  Uiso   1.00
H197   H     0.81095   0.23414   0.11253   0.00000  Uiso   1.00
H198   H     0.85843   0.04233   0.31517   0.00000  Uiso   1.00
H199   H     0.80715   0.29097   0.18528   0.00000  Uiso   1.00
H200   H     0.80724   0.04180   0.18526   0.00000  Uiso   1.00
H201   H     0.85839   0.29165   0.31517   0.00000  Uiso   1.00
H202   H     0.74521   0.30968   0.09347   0.00000  Uiso   1.00
H203   H     0.92252   0.02429   0.40611   0.00000  Uiso   1.00
H204   H     0.72346   0.02167   0.30985   0.00000  Uiso   1.00
N205   N     0.83333   0.28573   0.25000   0.00000  Uiso   1.00
N206   N     0.83333   0.04760   0.25000   0.00000  Uiso   1.00
O207   O     0.77226   0.20487   0.24999   0.00000  Uiso   1.00
O208   O     0.75480   0.27964   0.08002   0.00000  Uiso   1.00
O209   O     0.86970   0.01100   0.46175   0.00000  Uiso   1.00
O210   O     0.91284   0.05426   0.41965   0.00000  Uiso   1.00
O211   O     0.74218   0.09723   0.32974   0.00000  Uiso   1.00
O212   O     0.70510   0.04370   0.29263   0.00000  Uiso   1.00
O213   O     0.92477   0.23629   0.33082   0.00000  Uiso   1.00
O214   O     0.96231   0.29040   0.29599   0.00000  Uiso   1.00
O215   O     0.93992   0.06998   0.31389   0.00000  Uiso   1.00
O216   O     0.95804   0.05218   0.24240   0.00000  Uiso   1.00
O217   O     0.72979   0.26553   0.30724   0.00000  Uiso   1.00
O218   O     0.89441   0.12846   0.25000   0.00000  Uiso   1.00
O219   O     0.70322   0.28152   0.23866   0.00000  Uiso   1.00
O220   O     0.89441   0.20487   0.25000   0.00000  Uiso   1.00
O221   O     0.77226   0.12846   0.24999   0.00000  Uiso   1.00
O222   O     0.83333   0.20489   0.18392   0.00000  Uiso   1.00
O223   O     0.83334   0.12844   0.31607   0.00000  Uiso   1.00
O224   O     0.83334   0.20489   0.31607   0.00000  Uiso   1.00
O225   O     0.83333   0.12844   0.18392   0.00000  Uiso   1.00
O226   O     0.79839   0.32263   0.03816   0.00000  Uiso   1.00
Zn227  Zn    0.83333   0.21771   0.25000   0.00000  Uiso   1.00
Zn228  Zn    0.83333   0.11563   0.25000   0.00000  Uiso   1.00
C229   C     0.08682   0.50043   0.25640   0.00000  Uiso   1.00
C230   C     0.04308   0.50136   0.27154   0.00000  Uiso   1.00
C231   C     0.18065   0.35748   0.28617   0.00000  Uiso   1.00
C232   C     0.15221   0.64252   0.21402   0.00000  Uiso   1.00
C233   C     0.15223   0.35715   0.21401   0.00000  Uiso   1.00
C234   C     0.18065   0.64288   0.28617   0.00000  Uiso   1.00
C235   C     0.16706   0.49975   0.16330   0.00000  Uiso   1.00
C236   C     0.16633   0.50026   0.33668   0.00000  Uiso   1.00
C237   C     0.18037   0.46223   0.40666   0.00000  Uiso   1.00
C238   C     0.15356   0.53791   0.09323   0.00000  Uiso   1.00
C239   C     0.16647   0.50082   0.38455   0.00000  Uiso   1.00
C240   C     0.24642   0.49971   0.25671   0.00000  Uiso   1.00
C241   C     0.16719   0.49923   0.11539   0.00000  Uiso   1.00
C242   C     0.15295   0.53949   0.40788   0.00000  Uiso   1.00
C243   C     0.18081   0.46058   0.09204   0.00000  Uiso   1.00
C244   C     0.15308   0.53957   0.45415   0.00000  Uiso   1.00
C245   C     0.18100   0.46062   0.04575   0.00000  Uiso   1.00
C246   C     0.16739   0.50035   0.47674   0.00000  Uiso   1.00
C247   C     0.16677   0.49987   0.02316   0.00000  Uiso   1.00
C248   C     0.18205   0.46156   0.45281   0.00000  Uiso   1.00
C249   C     0.15211   0.53867   0.04708   0.00000  Uiso   1.00
C250   C     0.13855   0.57783   0.47804   0.00000  Uiso   1.00
C251   C     0.13745   0.57759   0.02439   0.00000  Uiso   1.00
C252   C     0.19571   0.42243   0.02185   0.00000  Uiso   1.00
C253   C     0.11966   0.61807   0.04789   0.00000  Uiso   1.00
C254   C     0.21483   0.38231   0.45195   0.00000  Uiso   1.00
C255   C     0.04765   0.42210   0.30284   0.00000  Uiso   1.00
C256   C     0.28588   0.57850   0.30406   0.00000  Uiso   1.00
C257   C     0.29160   0.41396   0.27983   0.00000  Uiso   1.00
C258   C     0.04103   0.58723   0.27591   0.00000  Uiso   1.00
C259   C     0.19687   0.42271   0.47549   0.00000  Uiso   1.00
C260   C     0.02337   0.46018   0.28226   0.00000  Uiso   1.00
C261   C     0.30984   0.54064   0.28192   0.00000  Uiso   1.00
C262   C     0.31296   0.45812   0.27745   0.00000  Uiso   1.00
C263   C     0.02014   0.54266   0.27635   0.00000  Uiso   1.00
C264   C     0.29013   0.49918   0.27186   0.00000  Uiso   1.00
F265   F     0.13837   0.57630   0.38539   0.00000  Uiso   1.00
F266   F     0.19514   0.42368   0.11455   0.00000  Uiso   1.00
F267   F     0.12399   0.61518   0.45641   0.00000  Uiso   1.00
F268   F     0.21036   0.38512   0.04348   0.00000  Uiso   1.00
H269   H     0.18962   0.43267   0.38735   0.00000  Uiso   1.00
H270   H     0.27788   0.64550   0.31464   0.00000  Uiso   1.00
H271   H     0.27290   0.35804   0.24644   0.00000  Uiso   1.00
H272   H     0.05507   0.64260   0.24013   0.00000  Uiso   1.00
H273   H     0.14429   0.56747   0.11253   0.00000  Uiso   1.00
H274   H     0.19176   0.37566   0.31517   0.00000  Uiso   1.00
H275   H     0.14049   0.62431   0.18528   0.00000  Uiso   1.00
H276   H     0.14058   0.37513   0.18526   0.00000  Uiso   1.00
H277   H     0.19172   0.62498   0.31517   0.00000  Uiso   1.00
H278   H     0.07854   0.64302   0.09347   0.00000  Uiso   1.00
H279   H     0.25585   0.35762   0.40611   0.00000  Uiso   1.00
H280   H     0.05679   0.35501   0.30985   0.00000  Uiso   1.00
N281   N     0.16667   0.61907   0.25000   0.00000  Uiso   1.00
N282   N     0.16667   0.38093   0.25000   0.00000  Uiso   1.00
O283   O     0.10559   0.53821   0.24999   0.00000  Uiso   1.00
O284   O     0.08814   0.61298   0.08002   0.00000  Uiso   1.00
O285   O     0.20304   0.34433   0.46175   0.00000  Uiso   1.00
O286   O     0.24617   0.38760   0.41965   0.00000  Uiso   1.00
O287   O     0.07551   0.43056   0.32974   0.00000  Uiso   1.00
O288   O     0.03843   0.37703   0.29263   0.00000  Uiso   1.00
O289   O     0.25810   0.56963   0.33082   0.00000  Uiso   1.00
O290   O     0.29564   0.62373   0.29599   0.00000  Uiso   1.00
O291   O     0.27326   0.40331   0.31389   0.00000  Uiso   1.00
O292   O     0.29137   0.38551   0.24240   0.00000  Uiso   1.00
O293   O     0.06313   0.59886   0.30724   0.00000  Uiso   1.00
O294   O     0.22774   0.46179   0.25000   0.00000  Uiso   1.00
O295   O     0.03655   0.61485   0.23866   0.00000  Uiso   1.00
O296   O     0.22774   0.53821   0.25000   0.00000  Uiso   1.00
O297   O     0.10559   0.46179   0.24999   0.00000  Uiso   1.00
O298   O     0.16666   0.53823   0.18392   0.00000  Uiso   1.00
O299   O     0.16667   0.46177   0.31607   0.00000  Uiso   1.00
O300   O     0.16667   0.53823   0.31607   0.00000  Uiso   1.00
O301   O     0.16666   0.46177   0.18392   0.00000  Uiso   1.00
O302   O     0.13172   0.65597   0.03816   0.00000  Uiso   1.00
Zn303  Zn    0.16667   0.55104   0.25000   0.00000  Uiso   1.00
Zn304  Zn    0.16667   0.44896   0.25000   0.00000  Uiso   1.00
C305   C     0.42015   0.50043   0.25640   0.00000  Uiso   1.00
C306   C     0.37641   0.50136   0.27154   0.00000  Uiso   1.00
C307   C     0.51398   0.35748   0.28617   0.00000  Uiso   1.00
C308   C     0.48555   0.64252   0.21402   0.00000  Uiso   1.00
C309   C     0.48556   0.35715   0.21401   0.00000  Uiso   1.00
C310   C     0.51399   0.64288   0.28617   0.00000  Uiso   1.00
C311   C     0.50039   0.49975   0.16330   0.00000  Uiso   1.00
C312   C     0.49967   0.50026   0.33668   0.00000  Uiso   1.00
C313   C     0.51370   0.46223   0.40666   0.00000  Uiso   1.00
C314   C     0.48690   0.53791   0.09323   0.00000  Uiso   1.00
C315   C     0.49980   0.50082   0.38455   0.00000  Uiso   1.00
C316   C     0.57975   0.49971   0.25671   0.00000  Uiso   1.00
C317   C     0.50052   0.49923   0.11539   0.00000  Uiso   1.00
C318   C     0.48629   0.53949   0.40788   0.00000  Uiso   1.00
C319   C     0.51415   0.46058   0.09204   0.00000  Uiso   1.00
C320   C     0.48641   0.53957   0.45415   0.00000  Uiso   1.00
C321   C     0.51433   0.46062   0.04575   0.00000  Uiso   1.00
C322   C     0.50072   0.50035   0.47674   0.00000  Uiso   1.00
C323   C     0.50011   0.49987   0.02316   0.00000  Uiso   1.00
C324   C     0.51538   0.46156   0.45281   0.00000  Uiso   1.00
C325   C     0.48545   0.53867   0.04708   0.00000  Uiso   1.00
C326   C     0.47188   0.57783   0.47804   0.00000  Uiso   1.00
C327   C     0.47079   0.57759   0.02439   0.00000  Uiso   1.00
C328   C     0.52904   0.42243   0.02185   0.00000  Uiso   1.00
C329   C     0.45299   0.61807   0.04789   0.00000  Uiso   1.00
C330   C     0.54816   0.38231   0.45195   0.00000  Uiso   1.00
C331   C     0.38099   0.42210   0.30284   0.00000  Uiso   1.00
C332   C     0.61922   0.57850   0.30406   0.00000  Uiso   1.00
C333   C     0.62493   0.41396   0.27983   0.00000  Uiso   1.00
C334   C     0.37436   0.58723   0.27591   0.00000  Uiso   1.00
C335   C     0.53020   0.42271   0.47549   0.00000  Uiso   1.00
C336   C     0.35670   0.46018   0.28226   0.00000  Uiso   1.00
C337   C     0.64317   0.54064   0.28192   0.00000  Uiso   1.00
C338   C     0.64630   0.45812   0.27745   0.00000  Uiso   1.00
C339   C     0.35348   0.54266   0.27635   0.00000  Uiso   1.00
C340   C     0.62346   0.49918   0.27186   0.00000  Uiso   1.00
F341   F     0.47171   0.57630   0.38539   0.00000  Uiso   1.00
F342   F     0.52847   0.42368   0.11455   0.00000  Uiso   1.00
F343   F     0.45732   0.61518   0.45641   0.00000  Uiso   1.00
F344   F     0.54369   0.38512   0.04348   0.00000  Uiso   1.00
H345   H     0.52296   0.43267   0.38735   0.00000  Uiso   1.00
H346   H     0.61121   0.64550   0.31464   0.00000  Uiso   1.00
H347   H     0.60623   0.35804   0.24644   0.00000  Uiso   1.00
H348   H     0.38840   0.64260   0.24013   0.00000  Uiso   1.00
H349   H     0.47762   0.56747   0.11253   0.00000  Uiso   1.00
H350   H     0.52510   0.37566   0.31517   0.00000  Uiso   1.00
H351   H     0.47382   0.62431   0.18528   0.00000  Uiso   1.00
H352   H     0.47391   0.37513   0.18526   0.00000  Uiso   1.00
H353   H     0.52506   0.62498   0.31517   0.00000  Uiso   1.00
H354   H     0.41187   0.64302   0.09347   0.00000  Uiso   1.00
H355   H     0.58918   0.35762   0.40611   0.00000  Uiso   1.00
H356   H     0.39013   0.35501   0.30985   0.00000  Uiso   1.00
N357   N     0.50000   0.61907   0.25000   0.00000  Uiso   1.00
N358   N     0.50000   0.38093   0.25000   0.00000  Uiso   1.00
O359   O     0.43892   0.53821   0.24999   0.00000  Uiso   1.00
O360   O     0.42147   0.61298   0.08002   0.00000  Uiso   1.00
O361   O     0.53637   0.34433   0.46175   0.00000  Uiso   1.00
O362   O     0.57951   0.38760   0.41965   0.00000  Uiso   1.00
O363   O     0.40885   0.43056   0.32974   0.00000  Uiso   1.00
O364   O     0.37177   0.37703   0.29263   0.00000  Uiso   1.00
O365   O     0.59144   0.56963   0.33082   0.00000  Uiso   1.00
O366   O     0.62897   0.62373   0.29599   0.00000  Uiso   1.00
O367   O     0.60659   0.40331   0.31389   0.00000  Uiso   1.00
O368   O     0.62471   0.38551   0.24240   0.00000  Uiso   1.00
O369   O     0.39646   0.59886   0.30724   0.00000  Uiso   1.00
O370   O     0.56108   0.46179   0.25000   0.00000  Uiso   1.00
O371   O     0.36988   0.61485   0.23866   0.00000  Uiso   1.00
O372   O     0.56108   0.53821   0.25000   0.00000  Uiso   1.00
O373   O     0.43892   0.46179   0.24999   0.00000  Uiso   1.00
O374   O     0.49999   0.53823   0.18392   0.00000  Uiso   1.00
O375   O     0.50001   0.46177   0.31607   0.00000  Uiso   1.00
O376   O     0.50001   0.53823   0.31607   0.00000  Uiso   1.00
O377   O     0.49999   0.46177   0.18392   0.00000  Uiso   1.00
O378   O     0.46505   0.65597   0.03816   0.00000  Uiso   1.00
Zn379  Zn    0.50000   0.55104   0.25000   0.00000  Uiso   1.00
Zn380  Zn    0.50000   0.44896   0.25000   0.00000  Uiso   1.00
C381   C     0.75349   0.50043   0.25640   0.00000  Uiso   1.00
C382   C     0.70974   0.50136   0.27154   0.00000  Uiso   1.00
C383   C     0.84731   0.35748   0.28617   0.00000  Uiso   1.00
C384   C     0.81888   0.64252   0.21402   0.00000  Uiso   1.00
C385   C     0.81889   0.35715   0.21401   0.00000  Uiso   1.00
C386   C     0.84732   0.64288   0.28617   0.00000  Uiso   1.00
C387   C     0.83372   0.49975   0.16330   0.00000  Uiso   1.00
C388   C     0.83300   0.50026   0.33668   0.00000  Uiso   1.00
C389   C     0.84704   0.46223   0.40666   0.00000  Uiso   1.00
C390   C     0.82023   0.53791   0.09323   0.00000  Uiso   1.00
C391   C     0.83314   0.50082   0.38455   0.00000  Uiso   1.00
C392   C     0.91309   0.49971   0.25671   0.00000  Uiso   1.00
C393   C     0.83385   0.49923   0.11539   0.00000  Uiso   1.00
C394   C     0.81962   0.53949   0.40788   0.00000  Uiso   1.00
C395   C     0.84748   0.46058   0.09204   0.00000  Uiso   1.00
C396   C     0.81974   0.53957   0.45415   0.00000  Uiso   1.00
C397   C     0.84767   0.46062   0.04575   0.00000  Uiso   1.00
C398   C     0.83406   0.50035   0.47674   0.00000  Uiso   1.00
C399   C     0.83344   0.49987   0.02316   0.00000  Uiso   1.00
C400   C     0.84871   0.46156   0.45281   0.00000  Uiso   1.00
C401   C     0.81878   0.53867   0.04708   0.00000  Uiso   1.00
C402   C     0.80522   0.57783   0.47804   0.00000  Uiso   1.00
C403   C     0.80412   0.57759   0.02439   0.00000  Uiso   1.00
C404   C     0.86237   0.42243   0.02185   0.00000  Uiso   1.00
C405   C     0.78633   0.61807   0.04789   0.00000  Uiso   1.00
C406   C     0.88149   0.38231   0.45195   0.00000  Uiso   1.00
C407   C     0.71432   0.42210   0.30284   0.00000  Uiso   1.00
C408   C     0.95255   0.57850   0.30406   0.00000  Uiso   1.00
C409   C     0.95827   0.41396   0.27983   0.00000  Uiso   1.00
C410   C     0.70769   0.58723   0.27591   0.00000  Uiso   1.00
C411   C     0.86354   0.42271   0.47549   0.00000  Uiso   1.00
C412   C     0.69003   0.46018   0.28226   0.00000  Uiso   1.00
C413   C     0.97650   0.54064   0.28192   0.00000  Uiso   1.00
C414   C     0.97963   0.45812   0.27745   0.00000  Uiso   1.00
C415   C     0.68681   0.54266   0.27635   0.00000  Uiso   1.00
C416   C     0.95680   0.49918   0.27186   0.00000  Uiso   1.00
F417   F     0.80504   0.57630   0.38539   0.00000  Uiso   1.00
F418   F     0.86180   0.42368   0.11455   0.00000  Uiso   1.00
F419   F     0.79066   0.61518   0.45641   0.00000  Uiso   1.00
F420   F     0.87702   0.38512   0.04348   0.00000  Uiso   1.00
H421   H     0.85629   0.43267   0.38735   0.00000  Uiso   1.00
H422   H     0.94455   0.64550   0.31464   0.00000  Uiso   1.00
H423   H     0.93956   0.35804   0.24644   0.00000  Uiso   1.00
H424   H     0.72173   0.64260   0.24013   0.00000  Uiso   1.00
H425   H     0.81095   0.56747   0.11253   0.00000  Uiso   1.00
H426   H     0.85843   0.37566   0.31517   0.00000  Uiso   1.00
H427   H     0.80715   0.62431   0.18528   0.00000  Uiso   1.00
H428   H     0.80724   0.37513   0.18526   0.00000  Uiso   1.00
H429   H     0.85839   0.62498   0.31517   0.00000  Uiso   1.00
H430   H     0.74521   0.64302   0.09347   0.00000  Uiso   1.00
H431   H     0.92252   0.35762   0.40611   0.00000  Uiso   1.00
H432   H     0.72346   0.35501   0.30985   0.00000  Uiso   1.00
N433   N     0.83333   0.61907   0.25000   0.00000  Uiso   1.00
N434   N     0.83333   0.38093   0.25000   0.00000  Uiso   1.00
O435   O     0.77226   0.53821   0.24999   0.00000  Uiso   1.00
O436   O     0.75480   0.61298   0.08002   0.00000  Uiso   1.00
O437   O     0.86970   0.34433   0.46175   0.00000  Uiso   1.00
O438   O     0.91284   0.38760   0.41965   0.00000  Uiso   1.00
O439   O     0.74218   0.43056   0.32974   0.00000  Uiso   1.00
O440   O     0.70510   0.37703   0.29263   0.00000  Uiso   1.00
O441   O     0.92477   0.56963   0.33082   0.00000  Uiso   1.00
O442   O     0.96231   0.62373   0.29599   0.00000  Uiso   1.00
O443   O     0.93992   0.40331   0.31389   0.00000  Uiso   1.00
O444   O     0.95804   0.38551   0.24240   0.00000  Uiso   1.00
O445   O     0.72979   0.59886   0.30724   0.00000  Uiso   1.00
O446   O     0.89441   0.46179   0.25000   0.00000  Uiso   1.00
O447   O     0.70322   0.61485   0.23866   0.00000  Uiso   1.00
O448   O     0.89441   0.53821   0.25000   0.00000  Uiso   1.00
O449   O     0.77226   0.46179   0.24999   0.00000  Uiso   1.00
O450   O     0.83333   0.53823   0.18392   0.00000  Uiso   1.00
O451   O     0.83334   0.46177   0.31607   0.00000  Uiso   1.00
O452   O     0.83334   0.53823   0.31607   0.00000  Uiso   1.00
O453   O     0.83333   0.46177   0.18392   0.00000  Uiso   1.00
O454   O     0.79839   0.65597   0.03816   0.00000  Uiso   1.00
Zn455  Zn    0.83333   0.55104   0.25000   0.00000  Uiso   1.00
Zn456  Zn    0.83333   0.44896   0.25000   0.00000  Uiso   1.00
C457   C     0.08682   0.83377   0.25640   0.00000  Uiso   1.00
C458   C     0.04308   0.83470   0.27154   0.00000  Uiso   1.00
C459   C     0.18065   0.69081   0.28617   0.00000  Uiso   1.00
C460   C     0.15221   0.97586   0.21402   0.00000  Uiso   1.00
C461   C     0.15223   0.69048   0.21401   0.00000  Uiso   1.00
C462   C     0.18065   0.97621   0.28617   0.00000  Uiso   1.00
C463   C     0.16706   0.83308   0.16330   0.00000  Uiso   1.00
C464   C     0.16633   0.83359   0.33668   0.00000  Uiso   1.00
C465   C     0.18037   0.79556   0.40666   0.00000  Uiso   1.00
C466   C     0.15356   0.87125   0.09323   0.00000  Uiso   1.00
C467   C     0.16647   0.83415   0.38455   0.00000  Uiso   1.00
C468   C     0.24642   0.83304   0.25671   0.00000  Uiso   1.00
C469   C     0.16719   0.83256   0.11539   0.00000  Uiso   1.00
C470   C     0.15295   0.87283   0.40788   0.00000  Uiso   1.00
C471   C     0.18081   0.79392   0.09204   0.00000  Uiso   1.00
C472   C     0.15308   0.87290   0.45415   0.00000  Uiso   1.00
C473   C     0.18100   0.79396   0.04575   0.00000  Uiso   1.00
C474   C     0.16739   0.83369   0.47674   0.00000  Uiso   1.00
C475   C     0.16677   0.83321   0.02316   0.00000  Uiso   1.00
C476   C     0.18205   0.79489   0.45281   0.00000  Uiso   1.00
C477   C     0.15211   0.87200   0.04708   0.00000  Uiso   1.00
C478   C     0.13855   0.91116   0.47804   0.00000  Uiso   1.00
C479   C     0.13745   0.91092   0.02439   0.00000  Uiso   1.00
C480   C     0.19571   0.75576   0.02185   0.00000  Uiso   1.00
C481   C     0.11966   0.95140   0.04789   0.00000  Uiso   1.00
C482   C     0.21483   0.71565   0.45195   0.00000  Uiso   1.00
C483   C     0.04765   0.75543   0.30284   0.00000  Uiso   1.00
C484   C     0.28588   0.91183   0.30406   0.00000  Uiso   1.00
C485   C     0.29160   0.74729   0.27983   0.00000  Uiso   1.00
C486   C     0.04103   0.92056   0.27591   0.00000  Uiso   1.00
C487   C     0.19687   0.75604   0.47549   0.00000  Uiso   1.00
C488   C     0.02337   0.79351   0.28226   0.00000  Uiso   1.00
C489   C     0.30984   0.87397   0.28192   0.00000  Uiso   1.00
C490   C     0.31296   0.79145   0.27745   0.00000  Uiso   1.00
C491   C     0.02014   0.87600   0.27635   0.00000  Uiso   1.00
C492   C     0.29013   0.83251   0.27186   0.00000  Uiso   1.00
F493   F     0.13837   0.90964   0.38539   0.00000  Uiso   1.00
F494   F     0.19514   0.75701   0.11455   0.00000  Uiso   1.00
F495   F     0.12399   0.94852   0.45641   0.00000  Uiso   1.00
F496   F     0.21036   0.71845   0.04348   0.00000  Uiso   1.00
H497   H     0.18962   0.76600   0.38735   0.00000  Uiso   1.00
H498   H     0.27788   0.97883   0.31464   0.00000  Uiso   1.00
H499   H     0.27290   0.69138   0.24644   0.00000  Uiso   1.00
H500   H     0.05507   0.97594   0.24013   0.00000  Uiso   1.00
H501   H     0.14429   0.90081   0.11253   0.00000  Uiso   1.00
H502   H     0.19176   0.70900   0.31517   0.00000  Uiso   1.00
H503   H     0.14049   0.95764   0.18528   0.00000  Uiso   1.00
H504   H     0.14058   0.70846   0.18526   0.00000  Uiso   1.00
H505   H     0.19172   0.95831   0.31517   0.00000  Uiso   1.00
H506   H     0.07854   0.97635   0.09347   0.00000  Uiso   1.00
H507   H     0.25585   0.69095   0.40611   0.00000  Uiso   1.00
H508   H     0.05679   0.68834   0.30985   0.00000  Uiso   1.00
N509   N     0.16667   0.95240   0.25000   0.00000  Uiso   1.00
N510   N     0.16667   0.71427   0.25000   0.00000  Uiso   1.00
O511   O     0.10559   0.87154   0.24999   0.00000  Uiso   1.00
O512   O     0.08814   0.94631   0.08002   0.00000  Uiso   1.00
O513   O     0.20304   0.67767   0.46175   0.00000  Uiso   1.00
O514   O     0.24617   0.72093   0.41965   0.00000  Uiso   1.00
O515   O     0.07551   0.76389   0.32974   0.00000  Uiso   1.00
O516   O     0.03843   0.71036   0.29263   0.00000  Uiso   1.00
O517   O     0.25810   0.90296   0.33082   0.00000  Uiso   1.00
O518   O     0.29564   0.95706   0.29599   0.00000  Uiso   1.00
O519   O     0.27326   0.73665   0.31389   0.00000  Uiso   1.00
O520   O     0.29137   0.71884   0.24240   0.00000  Uiso   1.00
O521   O     0.06313   0.93220   0.30724   0.00000  Uiso   1.00
O522   O     0.22774   0.79513   0.25000   0.00000  Uiso   1.00
O523   O     0.03655   0.94819   0.23866   0.00000  Uiso   1.00
O524   O     0.22774   0.87154   0.25000   0.00000  Uiso   1.00
O525   O     0.10559   0.79513   0.24999   0.00000  Uiso   1.00
O526   O     0.16666   0.87156   0.18392   0.00000  Uiso   1.00
O527   O     0.16667   0.79511   0.31607   0.00000  Uiso   1.00
O528   O     0.16667   0.87156   0.31607   0.00000  Uiso   1.00
O529   O     0.16666   0.79511   0.18392   0.00000  Uiso   1.00
O530   O     0.13172   0.98930   0.03816   0.00000  Uiso   1.00
Zn531  Zn    0.16667   0.88437   0.25000   0.00000  Uiso   1.00
Zn532  Zn    0.16667   0.78229   0.25000   0.00000  Uiso   1.00
C533   C     0.42015   0.83377   0.25640   0.00000  Uiso   1.00
C534   C     0.37641   0.83470   0.27154   0.00000  Uiso   1.00
C535   C     0.51398   0.69081   0.28617   0.00000  Uiso   1.00
C536   C     0.48555   0.97586   0.21402   0.00000  Uiso   1.00
C537   C     0.48556   0.69048   0.21401   0.00000  Uiso   1.00
C538   C     0.51399   0.97621   0.28617   0.00000  Uiso   1.00
C539   C     0.50039   0.83308   0.16330   0.00000  Uiso   1.00
C540   C     0.49967   0.83359   0.33668   0.00000  Uiso   1.00
C541   C     0.51370   0.79556   0.40666   0.00000  Uiso   1.00
C542   C     0.48690   0.87125   0.09323   0.00000  Uiso   1.00
C543   C     0.49980   0.83415   0.38455   0.00000  Uiso   1.00
C544   C     0.57975   0.83304   0.25671   0.00000  Uiso   1.00
C545   C     0.50052   0.83256   0.11539   0.00000  Uiso   1.00
C546   C     0.48629   0.87283   0.40788   0.00000  Uiso   1.00
C547   C     0.51415   0.79392   0.09204   0.00000  Uiso   1.00
C548   C     0.48641   0.87290   0.45415   0.00000  Uiso   1.00
C549   C     0.51433   0.79396   0.04575   0.00000  Uiso   1.00
C550   C     0.50072   0.83369   0.47674   0.00000  Uiso   1.00
C551   C     0.50011   0.83321   0.02316   0.00000  Uiso   1.00
C552   C     0.51538   0.79489   0.45281   0.00000  Uiso   1.00
C553   C     0.48545   0.87200   0.04708   0.00000  Uiso   1.00
C554   C     0.47188   0.91116   0.47804   0.00000  Uiso   1.00
C555   C     0.47079   0.91092   0.02439   0.00000  Uiso   1.00
C556   C     0.52904   0.75576   0.02185   0.00000  Uiso   1.00
C557   C     0.45299   0.95140   0.04789   0.00000  Uiso   1.00
C558   C     0.54816   0.71565   0.45195   0.00000  Uiso   1.00
C559   C     0.38099   0.75543   0.30284   0.00000  Uiso   1.00
C560   C     0.61922   0.91183   0.30406   0.00000  Uiso   1.00
C561   C     0.62493   0.74729   0.27983   0.00000  Uiso   1.00
C562   C     0.37436   0.92056   0.27591   0.00000  Uiso   1.00
C563   C     0.53020   0.75604   0.47549   0.00000  Uiso   1.00
C564   C     0.35670   0.79351   0.28226   0.00000  Uiso   1.00
C565   C     0.64317   0.87397   0.28192   0.00000  Uiso   1.00
C566   C     0.64630   0.79145   0.27745   0.00000  Uiso   1.00
C567   C     0.35348   0.87600   0.27635   0.00000  Uiso   1.00
C568   C     0.62346   0.83251   0.27186   0.00000  Uiso   1.00
F569   F     0.47171   0.90964   0.38539   0.00000  Uiso   1.00
F570   F     0.52847   0.75701   0.11455   0.00000  Uiso   1.00
F571   F     0.45732   0.94852   0.45641   0.00000  Uiso   1.00
F572   F     0.54369   0.71845   0.04348   0.00000  Uiso   1.00
H573   H     0.52296   0.76600   0.38735   0.00000  Uiso   1.00
H574   H     0.61121   0.97883   0.31464   0.00000  Uiso   1.00
H575   H     0.60623   0.69138   0.24644   0.00000  Uiso   1.00
H576   H     0.38840   0.97594   0.24013   0.00000  Uiso   1.00
H577   H     0.47762   0.90081   0.11253   0.00000  Uiso   1.00
H578   H     0.52510   0.70900   0.31517   0.00000  Uiso   1.00
H579   H     0.47382   0.95764   0.18528   0.00000  Uiso   1.00
H580   H     0.47391   0.70846   0.18526   0.00000  Uiso   1.00
H581   H     0.52506   0.95831   0.31517   0.00000  Uiso   1.00
H582   H     0.41187   0.97635   0.09347   0.00000  Uiso   1.00
H583   H     0.58918   0.69095   0.40611   0.00000  Uiso   1.00
H584   H     0.39013   0.68834   0.30985   0.00000  Uiso   1.00
N585   N     0.50000   0.95240   0.25000   0.00000  Uiso   1.00
N586   N     0.50000   0.71427   0.25000   0.00000  Uiso   1.00
O587   O     0.43892   0.87154   0.24999   0.00000  Uiso   1.00
O588   O     0.42147   0.94631   0.08002   0.00000  Uiso   1.00
O589   O     0.53637   0.67767   0.46175   0.00000  Uiso   1.00
O590   O     0.57951   0.72093   0.41965   0.00000  Uiso   1.00
O591   O     0.40885   0.76389   0.32974   0.00000  Uiso   1.00
O592   O     0.37177   0.71036   0.29263   0.00000  Uiso   1.00
O593   O     0.59144   0.90296   0.33082   0.00000  Uiso   1.00
O594   O     0.62897   0.95706   0.29599   0.00000  Uiso   1.00
O595   O     0.60659   0.73665   0.31389   0.00000  Uiso   1.00
O596   O     0.62471   0.71884   0.24240   0.00000  Uiso   1.00
O597   O     0.39646   0.93220   0.30724   0.00000  Uiso   1.00
O598   O     0.56108   0.79513   0.25000   0.00000  Uiso   1.00
O599   O     0.36988   0.94819   0.23866   0.00000  Uiso   1.00
O600   O     0.56108   0.87154   0.25000   0.00000  Uiso   1.00
O601   O     0.43892   0.79513   0.24999   0.00000  Uiso   1.00
O602   O     0.49999   0.87156   0.18392   0.00000  Uiso   1.00
O603   O     0.50001   0.79511   0.31607   0.00000  Uiso   1.00
O604   O     0.50001   0.87156   0.31607   0.00000  Uiso   1.00
O605   O     0.49999   0.79511   0.18392   0.00000  Uiso   1.00
O606   O     0.46505   0.98930   0.03816   0.00000  Uiso   1.00
Zn607  Zn    0.50000   0.88437   0.25000   0.00000  Uiso   1.00
Zn608  Zn    0.50000   0.78229   0.25000   0.00000  Uiso   1.00
C609   C     0.75349   0.83377   0.25640   0.00000  Uiso   1.00
C610   C     0.70974   0.83470   0.27154   0.00000  Uiso   1.00
C611   C     0.84731   0.69081   0.28617   0.00000  Uiso   1.00
C612   C     0.81888   0.97586   0.21402   0.00000  Uiso   1.00
C613   C     0.81889   0.69048   0.21401   0.00000  Uiso   1.00
C614   C     0.84732   0.97621   0.28617   0.00000  Uiso   1.00
C615   C     0.83372   0.83308   0.16330   0.00000  Uiso   1.00
C616   C     0.83300   0.83359   0.33668   0.00000  Uiso   1.00
C617   C     0.84704   0.79556   0.40666   0.00000  Uiso   1.00
C618   C     0.82023   0.87125   0.09323   0.00000  Uiso   1.00
C619   C     0.83314   0.83415   0.38455   0.00000  Uiso   1.00
C620   C     0.91309   0.83304   0.25671   0.00000  Uiso   1.00
C621   C     0.83385   0.83256   0.11539   0.00000  Uiso   1.00
C622   C     0.81962   0.87283   0.40788   0.00000  Uiso   1.00
C623   C     0.84748   0.79392   0.09204   0.00000  Uiso   1.00
C624   C     0.81974   0.87290   0.45415   0.00000  Uiso   1.00
C625   C     0.84767   0.79396   0.04575   0.00000  Uiso   1.00
C626   C     0.83406   0.83369   0.47674   0.00000  Uiso   1.00
C627   C     0.83344   0.83321   0.02316   0.00000  Uiso   1.00
C628   C     0.84871   0.79489   0.45281   0.00000  Uiso   1.00
C629   C     0.81878   0.87200   0.04708   0.00000  Uiso   1.00
C630   C     0.80522   0.91116   0.47804   0.00000  Uiso   1.00
C631   C     0.80412   0.91092   0.02439   0.00000  Uiso   1.00
C632   C     0.86237   0.75576   0.02185   0.00000  Uiso   1.00
C633   C     0.78633   0.95140   0.04789   0.00000  Uiso   1.00
C634   C     0.88149   0.71565   0.45195   0.00000  Uiso   1.00
C635   C     0.71432   0.75543   0.30284   0.00000  Uiso   1.00
C636   C     0.95255   0.91183   0.30406   0.00000  Uiso   1.00
C637   C     0.95827   0.74729   0.27983   0.00000  Uiso   1.00
C638   C     0.70769   0.92056   0.27591   0.00000  Uiso   1.00
C639   C     0.86354   0.75604   0.47549   0.00000  Uiso   1.00
C640   C     0.69003   0.79351   0.28226   0.00000  Uiso   1.00
C641   C     0.97650   0.87397   0.28192   0.00000  Uiso   1.00
C642   C     0.97963   0.79145   0.27745   0.00000  Uiso   1.00
C643   C     0.68681   0.87600   0.27635   0.00000  Uiso   1.00
C644   C     0.95680   0.83251   0.27186   0.00000  Uiso   1.00
F645   F     0.80504   0.90964   0.38539   0.00000  Uiso   1.00
F646   F     0.86180   0.75701   0.11455   0.00000  Uiso   1.00
F647   F     0.79066   0.94852   0.45641   0.00000  Uiso   1.00
F648   F     0.87702   0.71845   0.04348   0.00000  Uiso   1.00
H649   H     0.85629   0.76600   0.38735   0.00000  Uiso   1.00
H650   H     0.94455   0.97883   0.31464   0.00000  Uiso   1.00
H651   H     0.93956   0.69138   0.24644   0.00000  Uiso   1.00
H652   H     0.72173   0.97594   0.24013   0.00000  Uiso   1.00
H653   H     0.81095   0.90081   0.11253   0.00000  Uiso   1.00
H654   H     0.85843   0.70900   0.31517   0.00000  Uiso   1.00
H655   H     0.80715   0.95764   0.18528   0.00000  Uiso   1.00
H656   H     0.80724   0.70846   0.18526   0.00000  Uiso   1.00
H657   H     0.85839   0.95831   0.31517   0.00000  Uiso   1.00
H658   H     0.74521   0.97635   0.09347   0.00000  Uiso   1.00
H659   H     0.92252   0.69095   0.40611   0.00000  Uiso   1.00
H660   H     0.72346   0.68834   0.30985   0.00000  Uiso   1.00
N661   N     0.83333   0.95240   0.25000   0.00000  Uiso   1.00
N662   N     0.83333   0.71427   0.25000   0.00000  Uiso   1.00
O663   O     0.77226   0.87154   0.24999   0.00000  Uiso   1.00
O664   O     0.75480   0.94631   0.08002   0.00000  Uiso   1.00
O665   O     0.86970   0.67767   0.46175   0.00000  Uiso   1.00
O666   O     0.91284   0.72093   0.41965   0.00000  Uiso   1.00
O667   O     0.74218   0.76389   0.32974   0.00000  Uiso   1.00
O668   O     0.70510   0.71036   0.29263   0.00000  Uiso   1.00
O669   O     0.92477   0.90296   0.33082   0.00000  Uiso   1.00
O670   O     0.96231   0.95706   0.29599   0.00000  Uiso   1.00
O671   O     0.93992   0.73665   0.31389   0.00000  Uiso   1.00
O672   O     0.95804   0.71884   0.24240   0.00000  Uiso   1.00
O673   O     0.72979   0.93220   0.30724   0.00000  Uiso   1.00
O674   O     0.89441   0.79513   0.25000   0.00000  Uiso   1.00
O675   O     0.70322   0.94819   0.23866   0.00000  Uiso   1.00
O676   O     0.89441   0.87154   0.25000   0.00000  Uiso   1.00
O677   O     0.77226   0.79513   0.24999   0.00000  Uiso   1.00
O678   O     0.83333   0.87156   0.18392   0.00000  Uiso   1.00
O679   O     0.83334   0.79511   0.31607   0.00000  Uiso   1.00
O680   O     0.83334   0.87156   0.31607   0.00000  Uiso   1.00
O681   O     0.83333   0.79511   0.18392   0.00000  Uiso   1.00
O682   O     0.79839   0.98930   0.03816   0.00000  Uiso   1.00
Zn683  Zn    0.83333   0.88437   0.25000   0.00000  Uiso   1.00
Zn684  Zn    0.83333   0.78229   0.25000   0.00000  Uiso   1.00
C685   C     0.08682   0.16710   0.75640   0.00000  Uiso   1.00
C686   C     0.04308   0.16803   0.77154   0.00000  Uiso   1.00
C687   C     0.18065   0.02414   0.78617   0.00000  Uiso   1.00
C688   C     0.15221   0.30919   0.71402   0.00000  Uiso   1.00
C689   C     0.15223   0.02382   0.71401   0.00000  Uiso   1.00
C690   C     0.18065   0.30955   0.78617   0.00000  Uiso   1.00
C691   C     0.16706   0.16641   0.66330   0.00000  Uiso   1.00
C692   C     0.16633   0.16692   0.83668   0.00000  Uiso   1.00
C693   C     0.18037   0.12890   0.90666   0.00000  Uiso   1.00
C694   C     0.15356   0.20458   0.59323   0.00000  Uiso   1.00
C695   C     0.16647   0.16749   0.88455   0.00000  Uiso   1.00
C696   C     0.24642   0.16637   0.75671   0.00000  Uiso   1.00
C697   C     0.16719   0.16589   0.61539   0.00000  Uiso   1.00
C698   C     0.15295   0.20616   0.90788   0.00000  Uiso   1.00
C699   C     0.18081   0.12725   0.59204   0.00000  Uiso   1.00
C700   C     0.15308   0.20624   0.95415   0.00000  Uiso   1.00
C701   C     0.18100   0.12729   0.54575   0.00000  Uiso   1.00
C702   C     0.16739   0.16702   0.97674   0.00000  Uiso   1.00
C703   C     0.16677   0.16654   0.52316   0.00000  Uiso   1.00
C704   C     0.18205   0.12822   0.95281   0.00000  Uiso   1.00
C705   C     0.15211   0.20534   0.54708   0.00000  Uiso   1.00
C706   C     0.13855   0.24450   0.97804   0.00000  Uiso   1.00
C707   C     0.13745   0.24425   0.52439   0.00000  Uiso   1.00
C708   C     0.19571   0.08910   0.52185   0.00000  Uiso   1.00
C709   C     0.11966   0.28474   0.54789   0.00000  Uiso   1.00
C710   C     0.21483   0.04898   0.95195   0.00000  Uiso   1.00
C711   C     0.04765   0.08876   0.80284   0.00000  Uiso   1.00
C712   C     0.28588   0.24517   0.80406   0.00000  Uiso   1.00
C713   C     0.29160   0.08063   0.77983   0.00000  Uiso   1.00
C714   C     0.04103   0.25389   0.77591   0.00000  Uiso   1.00
C715   C     0.19687   0.08937   0.97549   0.00000  Uiso   1.00
C716   C     0.02337   0.12684   0.78226   0.00000  Uiso   1.00
C717   C     0.30984   0.20731   0.78192   0.00000  Uiso   1.00
C718   C     0.31296   0.12479   0.77745   0.00000  Uiso   1.00
C719   C     0.02014   0.20933   0.77635   0.00000  Uiso   1.00
C720   C     0.29013   0.16585   0.77186   0.00000  Uiso   1.00
F721   F     0.13837   0.24297   0.88539   0.00000  Uiso   1.00
F722   F     0.19514   0.09034   0.61455   0.00000  Uiso   1.00
F723   F     0.12399   0.28185   0.95641   0.00000  Uiso   1.00
F724   F     0.21036   0.05179   0.54348   0.00000  Uiso   1.00
H725   H     0.18962   0.09934   0.88735   0.00000  Uiso   1.00
H726   H     0.27788   0.31216   0.81464   0.00000  Uiso   1.00
H727   H     0.27290   0.02471   0.74644   0.00000  Uiso   1.00
H728   H     0.05507   0.30927   0.74013   0.00000  Uiso   1.00
H729   H     0.14429   0.23414   0.61253   0.00000  Uiso   1.00
H730   H     0.19176   0.04233   0.81517   0.00000  Uiso   1.00
H731   H     0.14049   0.29097   0.68528   0.00000  Uiso   1.00
H732   H     0.14058   0.04180   0.68526   0.00000  Uiso   1.00
H733   H     0.19172   0.29165   0.81517   0.00000  Uiso   1.00
H734   H     0.07854   0.30968   0.59347   0.00000  Uiso   1.00
H735   H     0.25585   0.02429   0.90611   0.00000  Uiso   1.00
H736   H     0.05679   0.02167   0.80985   0.00000  Uiso   1.00
N737   N     0.16667   0.28573   0.75000   0.00000  Uiso   1.00
N738   N     0.16667   0.04760   0.75000   0.00000  Uiso   1.00
O739   O     0.10559   0.20487   0.74999   0.00000  Uiso   1.00
O740   O     0.08814   0.27964   0.58002   0.00000  Uiso   1.00
O741   O     0.20304   0.01100   0.96175   0.00000  Uiso   1.00
O742   O     0.24617   0.05426   0.91965   0.00000  Uiso   1.00
O743   O     0.07551   0.09723   0.82974   0.00000  Uiso   1.00
O744   O     0.03843   0.04370   0.79263   0.00000  Uiso   1.00
O745   O     0.25810   0.23629   0.83082   0.00000  Uiso   1.00
O746   O     0.29564   0.29040   0.79599   0.00000  Uiso   1.00
O747   O     0.27326   0.06998   0.81389   0.00000  Uiso   1.00
O748   O     0.29137   0.05218   0.74240   0.00000  Uiso   1.00
O749   O     0.06313   0.26553   0.80724   0.00000  Uiso   1.00
O750   O     0.22774   0.12846   0.75000   0.00000  Uiso   1.00
O751   O     0.03655   0.28152   0.73866   0.00000  Uiso   1.00
O752   O     0.22774   0.20487   0.75000   0.00000  Uiso   1.00
O753   O     0.10559   0.12846   0.74999   0.00000  Uiso   1.00
O754   O     0.16666   0.20489   0.68392   0.00000  Uiso   1.00
O755   O     0.16667   0.12844   0.81607   0.00000  Uiso   1.00
O756   O     0.16667   0.20489   0.81607   0.00000  Uiso   1.00
O757   O     0.16666   0.12844   0.68392   0.00000  Uiso   1.00
O758   O     0.13172   0.32263   0.53816   0.00000  Uiso   1.00
Zn759  Zn    0.16667   0.21771   0.75000   0.00000  Uiso   1.00
Zn760  Zn    0.16667   0.11563   0.75000   0.00000  Uiso   1.00
C761   C     0.42015   0.16710   0.75640   0.00000  Uiso   1.00
C762   C     0.37641   0.16803   0.77154   0.00000  Uiso   1.00
C763   C     0.51398   0.02414   0.78617   0.00000  Uiso   1.00
C764   C     0.48555   0.30919   0.71402   0.00000  Uiso   1.00
C765   C     0.48556   0.02382   0.71401   0.00000  Uiso   1.00
C766   C     0.51399   0.30955   0.78617   0.00000  Uiso   1.00
C767   C     0.50039   0.16641   0.66330   0.00000  Uiso   1.00
C768   C     0.49967   0.16692   0.83668   0.00000  Uiso   1.00
C769   C     0.51370   0.12890   0.90666   0.00000  Uiso   1.00
C770   C     0.48690   0.20458   0.59323   0.00000  Uiso   1.00
C771   C     0.49980   0.16749   0.88455   0.00000  Uiso   1.00
C772   C     0.57975   0.16637   0.75671   0.00000  Uiso   1.00
C773   C     0.50052   0.16589   0.61539   0.00000  Uiso   1.00
C774   C     0.48629   0.20616   0.90788   0.00000  Uiso   1.00
C775   C     0.51415   0.12725   0.59204   0.00000  Uiso   1.00
C776   C     0.48641   0.20624   0.95415   0.00000  Uiso   1.00
C777   C     0.51433   0.12729   0.54575   0.00000  Uiso   1.00
C778   C     0.50072   0.16702   0.97674   0.00000  Uiso   1.00
C779   C     0.50011   0.16654   0.52316   0.00000  Uiso   1.00
C780   C     0.51538   0.12822   0.95281   0.00000  Uiso   1.00
C781   C     0.48545   0.20534   0.54708   0.00000  Uiso   1.00
C782   C     0.47188   0.24450   0.97804   0.00000  Uiso   1.00
C783   C     0.47079   0.24425   0.52439   0.00000  Uiso   1.00
C784   C     0.52904   0.08910   0.52185   0.00000  Uiso   1.00
C785   C     0.45299   0.28474   0.54789   0.00000  Uiso   1.00
C786   C     0.54816   0.04898   0.95195   0.00000  Uiso   1.00
C787   C     0.38099   0.08876   0.80284   0.00000  Uiso   1.00
C788   C     0.61922   0.24517   0.80406   0.00000  Uiso   1.00
C789   C     0.62493   0.08063   0.77983   0.00000  Uiso   1.00
C790   C     0.37436   0.25389   0.77591   0.00000  Uiso   1.00
C791   C     0.53020   0.08937   0.97549   0.00000  Uiso   1.00
C792   C     0.35670   0.12684   0.78226   0.00000  Uiso   1.00
C793   C     0.64317   0.20731   0.78192   0.00000  Uiso   1.00
C794   C     0.64630   0.12479   0.77745   0.00000  Uiso   1.00
C795   C     0.35348   0.20933   0.77635   0.00000  Uiso   1.00
C796   C     0.62346   0.16585   0.77186   0.00000  Uiso   1.00
F797   F     0.47171   0.24297   0.88539   0.00000  Uiso   1.00
F798   F     0.52847   0.09034   0.61455   0.00000  Uiso   1.00
F799   F     0.45732   0.28185   0.95641   0.00000  Uiso   1.00
F800   F     0.54369   0.05179   0.54348   0.00000  Uiso   1.00
H801   H     0.52296   0.09934   0.88735   0.00000  Uiso   1.00
H802   H     0.61121   0.31216   0.81464   0.00000  Uiso   1.00
H803   H     0.60623   0.02471   0.74644   0.00000  Uiso   1.00
H804   H     0.38840   0.30927   0.74013   0.00000  Uiso   1.00
H805   H     0.47762   0.23414   0.61253   0.00000  Uiso   1.00
H806   H     0.52510   0.04233   0.81517   0.00000  Uiso   1.00
H807   H     0.47382   0.29097   0.68528   0.00000  Uiso   1.00
H808   H     0.47391   0.04180   0.68526   0.00000  Uiso   1.00
H809   H     0.52506   0.29165   0.81517   0.00000  Uiso   1.00
H810   H     0.41187   0.30968   0.59347   0.00000  Uiso   1.00
H811   H     0.58918   0.02429   0.90611   0.00000  Uiso   1.00
H812   H     0.39013   0.02167   0.80985   0.00000  Uiso   1.00
N813   N     0.50000   0.28573   0.75000   0.00000  Uiso   1.00
N814   N     0.50000   0.04760   0.75000   0.00000  Uiso   1.00
O815   O     0.43892   0.20487   0.74999   0.00000  Uiso   1.00
O816   O     0.42147   0.27964   0.58002   0.00000  Uiso   1.00
O817   O     0.53637   0.01100   0.96175   0.00000  Uiso   1.00
O818   O     0.57951   0.05426   0.91965   0.00000  Uiso   1.00
O819   O     0.40885   0.09723   0.82974   0.00000  Uiso   1.00
O820   O     0.37177   0.04370   0.79263   0.00000  Uiso   1.00
O821   O     0.59144   0.23629   0.83082   0.00000  Uiso   1.00
O822   O     0.62897   0.29040   0.79599   0.00000  Uiso   1.00
O823   O     0.60659   0.06998   0.81389   0.00000  Uiso   1.00
O824   O     0.62471   0.05218   0.74240   0.00000  Uiso   1.00
O825   O     0.39646   0.26553   0.80724   0.00000  Uiso   1.00
O826   O     0.56108   0.12846   0.75000   0.00000  Uiso   1.00
O827   O     0.36988   0.28152   0.73866   0.00000  Uiso   1.00
O828   O     0.56108   0.20487   0.75000   0.00000  Uiso   1.00
O829   O     0.43892   0.12846   0.74999   0.00000  Uiso   1.00
O830   O     0.49999   0.20489   0.68392   0.00000  Uiso   1.00
O831   O     0.50001   0.12844   0.81607   0.00000  Uiso   1.00
O832   O     0.50001   0.20489   0.81607   0.00000  Uiso   1.00
O833   O     0.49999   0.12844   0.68392   0.00000  Uiso   1.00
O834   O     0.46505   0.32263   0.53816   0.00000  Uiso   1.00
Zn835  Zn    0.50000   0.21771   0.75000   0.00000  Uiso   1.00
Zn836  Zn    0.50000   0.11563   0.75000   0.00000  Uiso   1.00
C837   C     0.75349   0.16710   0.75640   0.00000  Uiso   1.00
C838   C     0.70974   0.16803   0.77154   0.00000  Uiso   1.00
C839   C     0.84731   0.02414   0.78617   0.00000  Uiso   1.00
C840   C     0.81888   0.30919   0.71402   0.00000  Uiso   1.00
C841   C     0.81889   0.02382   0.71401   0.00000  Uiso   1.00
C842   C     0.84732   0.30955   0.78617   0.00000  Uiso   1.00
C843   C     0.83372   0.16641   0.66330   0.00000  Uiso   1.00
C844   C     0.83300   0.16692   0.83668   0.00000  Uiso   1.00
C845   C     0.84704   0.12890   0.90666   0.00000  Uiso   1.00
C846   C     0.82023   0.20458   0.59323   0.00000  Uiso   1.00
C847   C     0.83314   0.16749   0.88455   0.00000  Uiso   1.00
C848   C     0.91309   0.16637   0.75671   0.00000  Uiso   1.00
C849   C     0.83385   0.16589   0.61539   0.00000  Uiso   1.00
C850   C     0.81962   0.20616   0.90788   0.00000  Uiso   1.00
C851   C     0.84748   0.12725   0.59204   0.00000  Uiso   1.00
C852   C     0.81974   0.20624   0.95415   0.00000  Uiso   1.00
C853   C     0.84767   0.12729   0.54575   0.00000  Uiso   1.00
C854   C     0.83406   0.16702   0.97674   0.00000  Uiso   1.00
C855   C     0.83344   0.16654   0.52316   0.00000  Uiso   1.00
C856   C     0.84871   0.12822   0.95281   0.00000  Uiso   1.00
C857   C     0.81878   0.20534   0.54708   0.00000  Uiso   1.00
C858   C     0.80522   0.24450   0.97804   0.00000  Uiso   1.00
C859   C     0.80412   0.24425   0.52439   0.00000  Uiso   1.00
C860   C     0.86237   0.08910   0.52185   0.00000  Uiso   1.00
C861   C     0.78633   0.28474   0.54789   0.00000  Uiso   1.00
C862   C     0.88149   0.04898   0.95195   0.00000  Uiso   1.00
C863   C     0.71432   0.08876   0.80284   0.00000  Uiso   1.00
C864   C     0.95255   0.24517   0.80406   0.00000  Uiso   1.00
C865   C     0.95827   0.08063   0.77983   0.00000  Uiso   1.00
C866   C     0.70769   0.25389   0.77591   0.00000  Uiso   1.00
C867   C     0.86354   0.08937   0.97549   0.00000  Uiso   1.00
C868   C     0.69003   0.12684   0.78226   0.00000  Uiso   1.00
C869   C     0.97650   0.20731   0.78192   0.00000  Uiso   1.00
C870   C     0.97963   0.12479   0.77745   0.00000  Uiso   1.00
C871   C     0.68681   0.20933   0.77635   0.00000  Uiso   1.00
C872   C     0.95680   0.16585   0.77186   0.00000  Uiso   1.00
F873   F     0.80504   0.24297   0.88539   0.00000  Uiso   1.00
F874   F     0.86180   0.09034   0.61455   0.00000  Uiso   1.00
F875   F     0.79066   0.28185   0.95641   0.00000  Uiso   1.00
F876   F     0.87702   0.05179   0.54348   0.00000  Uiso   1.00
H877   H     0.85629   0.09934   0.88735   0.00000  Uiso   1.00
H878   H     0.94455   0.31216   0.81464   0.00000  Uiso   1.00
H879   H     0.93956   0.02471   0.74644   0.00000  Uiso   1.00
H880   H     0.72173   0.30927   0.74013   0.00000  Uiso   1.00
H881   H     0.81095   0.23414   0.61253   0.00000  Uiso   1.00
H882   H     0.85843   0.04233   0.81517   0.00000  Uiso   1.00
H883   H     0.80715   0.29097   0.68528   0.00000  Uiso   1.00
H884   H     0.80724   0.04180   0.68526   0.00000  Uiso   1.00
H885   H     0.85839   0.29165   0.81517   0.00000  Uiso   1.00
H886   H     0.74521   0.30968   0.59347   0.00000  Uiso   1.00
H887   H     0.92252   0.02429   0.90611   0.00000  Uiso   1.00
H888   H     0.72346   0.02167   0.80985   0.00000  Uiso   1.00
N889   N     0.83333   0.28573   0.75000   0.00000  Uiso   1.00
N890   N     0.83333   0.04760   0.75000   0.00000  Uiso   1.00
O891   O     0.77226   0.20487   0.74999   0.00000  Uiso   1.00
O892   O     0.75480   0.27964   0.58002   0.00000  Uiso   1.00
O893   O     0.86970   0.01100   0.96175   0.00000  Uiso   1.00
O894   O     0.91284   0.05426   0.91965   0.00000  Uiso   1.00
O895   O     0.74218   0.09723   0.82974   0.00000  Uiso   1.00
O896   O     0.70510   0.04370   0.79263   0.00000  Uiso   1.00
O897   O     0.92477   0.23629   0.83082   0.00000  Uiso   1.00
O898   O     0.96231   0.29040   0.79599   0.00000  Uiso   1.00
O899   O     0.93992   0.06998   0.81389   0.00000  Uiso   1.00
O900   O     0.95804   0.05218   0.74240   0.00000  Uiso   1.00
O901   O     0.72979   0.26553   0.80724   0.00000  Uiso   1.00
O902   O     0.89441   0.12846   0.75000   0.00000  Uiso   1.00
O903   O     0.70322   0.28152   0.73866   0.00000  Uiso   1.00
O904   O     0.89441   0.20487   0.75000   0.00000  Uiso   1.00
O905   O     0.77226   0.12846   0.74999   0.00000  Uiso   1.00
O906   O     0.83333   0.20489   0.68392   0.00000  Uiso   1.00
O907   O     0.83334   0.12844   0.81607   0.00000  Uiso   1.00
O908   O     0.83334   0.20489   0.81607   0.00000  Uiso   1.00
O909   O     0.83333   0.12844   0.68392   0.00000  Uiso   1.00
O910   O     0.79839   0.32263   0.53816   0.00000  Uiso   1.00
Zn911  Zn    0.83333   0.21771   0.75000   0.00000  Uiso   1.00
Zn912  Zn    0.83333   0.11563   0.75000   0.00000  Uiso   1.00
C913   C     0.08682   0.50043   0.75640   0.00000  Uiso   1.00
C914   C     0.04308   0.50136   0.77154   0.00000  Uiso   1.00
C915   C     0.18065   0.35748   0.78617   0.00000  Uiso   1.00
C916   C     0.15221   0.64252   0.71402   0.00000  Uiso   1.00
C917   C     0.15223   0.35715   0.71401   0.00000  Uiso   1.00
C918   C     0.18065   0.64288   0.78617   0.00000  Uiso   1.00
C919   C     0.16706   0.49975   0.66330   0.00000  Uiso   1.00
C920   C     0.16633   0.50026   0.83668   0.00000  Uiso   1.00
C921   C     0.18037   0.46223   0.90666   0.00000  Uiso   1.00
C922   C     0.15356   0.53791   0.59323   0.00000  Uiso   1.00
C923   C     0.16647   0.50082   0.88455   0.00000  Uiso   1.00
C924   C     0.24642   0.49971   0.75671   0.00000  Uiso   1.00
C925   C     0.16719   0.49923   0.61539   0.00000  Uiso   1.00
C926   C     0.15295   0.53949   0.90788   0.00000  Uiso   1.00
C927   C     0.18081   0.46058   0.59204   0.00000  Uiso   1.00
C928   C     0.15308   0.53957   0.95415   0.00000  Uiso   1.00
C929   C     0.18100   0.46062   0.54575   0.00000  Uiso   1.00
C930   C     0.16739   0.50035   0.97674   0.00000  Uiso   1.00
C931   C     0.16677   0.49987   0.52316   0.00000  Uiso   1.00
C932   C     0.18205   0.46156   0.95281   0.00000  Uiso   1.00
C933   C     0.15211   0.53867   0.54708   0.00000  Uiso   1.00
C934   C     0.13855   0.57783   0.97804   0.00000  Uiso   1.00
C935   C     0.13745   0.57759   0.52439   0.00000  Uiso   1.00
C936   C     0.19571   0.42243   0.52185   0.00000  Uiso   1.00
C937   C     0.11966   0.61807   0.54789   0.00000  Uiso   1.00
C938   C     0.21483   0.38231   0.95195   0.00000  Uiso   1.00
C939   C     0.04765   0.42210   0.80284   0.00000  Uiso   1.00
C940   C     0.28588   0.57850   0.80406   0.00000  Uiso   1.00
C941   C     0.29160   0.41396   0.77983   0.00000  Uiso   1.00
C942   C     0.04103   0.58723   0.77591   0.00000  Uiso   1.00
C943   C     0.19687   0.42271   0.97549   0.00000  Uiso   1.00
C944   C     0.02337   0.46018   0.78226   0.00000  Uiso   1.00
C945   C     0.30984   0.54064   0.78192   0.00000  Uiso   1.00
C946   C     0.31296   0.45812   0.77745   0.00000  Uiso   1.00
C947   C     0.02014   0.54266   0.77635   0.00000  Uiso   1.00
C948   C     0.29013   0.49918   0.77186   0.00000  Uiso   1.00
F949   F     0.13837   0.57630   0.88539   0.00000  Uiso   1.00
F950   F     0.19514   0.42368   0.61455   0.00000  Uiso   1.00
F951   F     0.12399   0.61518   0.95641   0.00000  Uiso   1.00
F952   F     0.21036   0.38512   0.54348   0.00000  Uiso   1.00
H953   H     0.18962   0.43267   0.88735   0.00000  Uiso   1.00
H954   H     0.27788   0.64550   0.81464   0.00000  Uiso   1.00
H955   H     0.27290   0.35804   0.74644   0.00000  Uiso   1.00
H956   H     0.05507   0.64260   0.74013   0.00000  Uiso   1.00
H957   H     0.14429   0.56747   0.61253   0.00000  Uiso   1.00
H958   H     0.19176   0.37566   0.81517   0.00000  Uiso   1.00
H959   H     0.14049   0.62431   0.68528   0.00000  Uiso   1.00
H960   H     0.14058   0.37513   0.68526   0.00000  Uiso   1.00
H961   H     0.19172   0.62498   0.81517   0.00000  Uiso   1.00
H962   H     0.07854   0.64302   0.59347   0.00000  Uiso   1.00
H963   H     0.25585   0.35762   0.90611   0.00000  Uiso   1.00
H964   H     0.05679   0.35501   0.80985   0.00000  Uiso   1.00
N965   N     0.16667   0.61907   0.75000   0.00000  Uiso   1.00
N966   N     0.16667   0.38093   0.75000   0.00000  Uiso   1.00
O967   O     0.10559   0.53821   0.74999   0.00000  Uiso   1.00
O968   O     0.08814   0.61298   0.58002   0.00000  Uiso   1.00
O969   O     0.20304   0.34433   0.96175   0.00000  Uiso   1.00
O970   O     0.24617   0.38760   0.91965   0.00000  Uiso   1.00
O971   O     0.07551   0.43056   0.82974   0.00000  Uiso   1.00
O972   O     0.03843   0.37703   0.79263   0.00000  Uiso   1.00
O973   O     0.25810   0.56963   0.83082   0.00000  Uiso   1.00
O974   O     0.29564   0.62373   0.79599   0.00000  Uiso   1.00
O975   O     0.27326   0.40331   0.81389   0.00000  Uiso   1.00
O976   O     0.29137   0.38551   0.74240   0.00000  Uiso   1.00
O977   O     0.06313   0.59886   0.80724   0.00000  Uiso   1.00
O978   O     0.22774   0.46179   0.75000   0.00000  Uiso   1.00
O979   O     0.03655   0.61485   0.73866   0.00000  Uiso   1.00
O980   O     0.22774   0.53821   0.75000   0.00000  Uiso   1.00
O981   O     0.10559   0.46179   0.74999   0.00000  Uiso   1.00
O982   O     0.16666   0.53823   0.68392   0.00000  Uiso   1.00
O983   O     0.16667   0.46177   0.81607   0.00000  Uiso   1.00
O984   O     0.16667   0.53823   0.81607   0.00000  Uiso   1.00
O985   O     0.16666   0.46177   0.68392   0.00000  Uiso   1.00
O986   O     0.13172   0.65597   0.53816   0.00000  Uiso   1.00
Zn987  Zn    0.16667   0.55104   0.75000   0.00000  Uiso   1.00
Zn988  Zn    0.16667   0.44896   0.75000   0.00000  Uiso   1.00
C989   C     0.42015   0.50043   0.75640   0.00000  Uiso   1.00
C990   C     0.37641   0.50136   0.77154   0.00000  Uiso   1.00
C991   C     0.51398   0.35748   0.78617   0.00000  Uiso   1.00
C992   C     0.48555   0.64252   0.71402   0.00000  Uiso   1.00
C993   C     0.48556   0.35715   0.71401   0.00000  Uiso   1.00
C994   C     0.51399   0.64288   0.78617   0.00000  Uiso   1.00
C995   C     0.50039   0.49975   0.66330   0.00000  Uiso   1.00
C996   C     0.49967   0.50026   0.83668   0.00000  Uiso   1.00
C997   C     0.51370   0.46223   0.90666   0.00000  Uiso   1.00
C998   C     0.48690   0.53791   0.59323   0.00000  Uiso   1.00
C999   C     0.49980   0.50082   0.88455   0.00000  Uiso   1.00
C1000  C     0.57975   0.49971   0.75671   0.00000  Uiso   1.00
C1001  C     0.50052   0.49923   0.61539   0.00000  Uiso   1.00
C1002  C     0.48629   0.53949   0.90788   0.00000  Uiso   1.00
C1003  C     0.51415   0.46058   0.59204   0.00000  Uiso   1.00
C1004  C     0.48641   0.53957   0.95415   0.00000  Uiso   1.00
C1005  C     0.51433   0.46062   0.54575   0.00000  Uiso   1.00
C1006  C     0.50072   0.50035   0.97674   0.00000  Uiso   1.00
C1007  C     0.50011   0.49987   0.52316   0.00000  Uiso   1.00
C1008  C     0.51538   0.46156   0.95281   0.00000  Uiso   1.00
C1009  C     0.48545   0.53867   0.54708   0.00000  Uiso   1.00
C1010  C     0.47188   0.57783   0.97804   0.00000  Uiso   1.00
C1011  C     0.47079   0.57759   0.52439   0.00000  Uiso   1.00
C1012  C     0.52904   0.42243   0.52185   0.00000  Uiso   1.00
C1013  C     0.45299   0.61807   0.54789   0.00000  Uiso   1.00
C1014  C     0.54816   0.38231   0.95195   0.00000  Uiso   1.00
C1015  C     0.38099   0.42210   0.80284   0.00000  Uiso   1.00
C1016  C     0.61922   0.57850   0.80406   0.00000  Uiso   1.00
C1017  C     0.62493   0.41396   0.77983   0.00000  Uiso   1.00
C1018  C     0.37436   0.58723   0.77591   0.00000  Uiso   1.00
C1019  C     0.53020   0.42271   0.97549   0.00000  Uiso   1.00
C1020  C     0.35670   0.46018   0.78226   0.00000  Uiso   1.00
C1021  C     0.64317   0.54064   0.78192   0.00000  Uiso   1.00
C1022  C     0.64630   0.45812   0.77745   0.00000  Uiso   1.00
C1023  C     0.35348   0.54266   0.77635   0.00000  Uiso   1.00
C1024  C     0.62346   0.49918   0.77186   0.00000  Uiso   1.00
F1025  F     0.47171   0.57630   0.88539   0.00000  Uiso   1.00
F1026  F     0.52847   0.42368   0.61455   0.00000  Uiso   1.00
F1027  F     0.45732   0.61518   0.95641   0.00000  Uiso   1.00
F1028  F     0.54369   0.38512   0.54348   0.00000  Uiso   1.00
H1029  H     0.52296   0.43267   0.88735   0.00000  Uiso   1.00
H1030  H     0.61121   0.64550   0.81464   0.00000  Uiso   1.00
H1031  H     0.60623   0.35804   0.74644   0.00000  Uiso   1.00
H1032  H     0.38840   0.64260   0.74013   0.00000  Uiso   1.00
H1033  H     0.47762   0.56747   0.61253   0.00000  Uiso   1.00
H1034  H     0.52510   0.37566   0.81517   0.00000  Uiso   1.00
H1035  H     0.47382   0.62431   0.68528   0.00000  Uiso   1.00
H1036  H     0.47391   0.37513   0.68526   0.00000  Uiso   1.00
H1037  H     0.52506   0.62498   0.81517   0.00000  Uiso   1.00
H1038  H     0.41187   0.64302   0.59347   0.00000  Uiso   1.00
H1039  H     0.58918   0.35762   0.90611   0.00000  Uiso   1.00
H1040  H     0.39013   0.35501   0.80985   0.00000  Uiso   1.00
N1041  N     0.50000   0.61907   0.75000   0.00000  Uiso   1.00
N1042  N     0.50000   0.38093   0.75000   0.00000  Uiso   1.00
O1043  O     0.43892   0.53821   0.74999   0.00000  Uiso   1.00
O1044  O     0.42147   0.61298   0.58002   0.00000  Uiso   1.00
O1045  O     0.53637   0.34433   0.96175   0.00000  Uiso   1.00
O1046  O     0.57951   0.38760   0.91965   0.00000  Uiso   1.00
O1047  O     0.40885   0.43056   0.82974   0.00000  Uiso   1.00
O1048  O     0.37177   0.37703   0.79263   0.00000  Uiso   1.00
O1049  O     0.59144   0.56963   0.83082   0.00000  Uiso   1.00
O1050  O     0.62897   0.62373   0.79599   0.00000  Uiso   1.00
O1051  O     0.60659   0.40331   0.81389   0.00000  Uiso   1.00
O1052  O     0.62471   0.38551   0.74240   0.00000  Uiso   1.00
O1053  O     0.39646   0.59886   0.80724   0.00000  Uiso   1.00
O1054  O     0.56108   0.46179   0.75000   0.00000  Uiso   1.00
O1055  O     0.36988   0.61485   0.73866   0.00000  Uiso   1.00
O1056  O     0.56108   0.53821   0.75000   0.00000  Uiso   1.00
O1057  O     0.43892   0.46179   0.74999   0.00000  Uiso   1.00
O1058  O     0.49999   0.53823   0.68392   0.00000  Uiso   1.00
O1059  O     0.50001   0.46177   0.81607   0.00000  Uiso   1.00
O1060  O     0.50001   0.53823   0.81607   0.00000  Uiso   1.00
O1061  O     0.49999   0.46177   0.68392   0.00000  Uiso   1.00
O1062  O     0.46505   0.65597   0.53816   0.00000  Uiso   1.00
Zn1063 Zn    0.50000   0.55104   0.75000   0.00000  Uiso   1.00
Zn1064 Zn    0.50000   0.44896   0.75000   0.00000  Uiso   1.00
C1065  C     0.75349   0.50043   0.75640   0.00000  Uiso   1.00
C1066  C     0.70974   0.50136   0.77154   0.00000  Uiso   1.00
C1067  C     0.84731   0.35748   0.78617   0.00000  Uiso   1.00
C1068  C     0.81888   0.64252   0.71402   0.00000  Uiso   1.00
C1069  C     0.81889   0.35715   0.71401   0.00000  Uiso   1.00
C1070  C     0.84732   0.64288   0.78617   0.00000  Uiso   1.00
C1071  C     0.83372   0.49975   0.66330   0.00000  Uiso   1.00
C1072  C     0.83300   0.50026   0.83668   0.00000  Uiso   1.00
C1073  C     0.84704   0.46223   0.90666   0.00000  Uiso   1.00
C1074  C     0.82023   0.53791   0.59323   0.00000  Uiso   1.00
C1075  C     0.83314   0.50082   0.88455   0.00000  Uiso   1.00
C1076  C     0.91309   0.49971   0.75671   0.00000  Uiso   1.00
C1077  C     0.83385   0.49923   0.61539   0.00000  Uiso   1.00
C1078  C     0.81962   0.53949   0.90788   0.00000  Uiso   1.00
C1079  C     0.84748   0.46058   0.59204   0.00000  Uiso   1.00
C1080  C     0.81974   0.53957   0.95415   0.00000  Uiso   1.00
C1081  C     0.84767   0.46062   0.54575   0.00000  Uiso   1.00
C1082  C     0.83406   0.50035   0.97674   0.00000  Uiso   1.00
C1083  C     0.83344   0.49987   0.52316   0.00000  Uiso   1.00
C1084  C     0.84871   0.46156   0.95281   0.00000  Uiso   1.00
C1085  C     0.81878   0.53867   0.54708   0.00000  Uiso   1.00
C1086  C     0.80522   0.57783   0.97804   0.00000  Uiso   1.00
C1087  C     0.80412   0.57759   0.52439   0.00000  Uiso   1.00
C1088  C     0.86237   0.42243   0.52185   0.00000  Uiso   1.00
C1089  C     0.78633   0.61807   0.54789   0.00000  Uiso   1.00
C1090  C     0.88149   0.38231   0.95195   0.00000  Uiso   1.00
C1091  C     0.71432   0.42210   0.80284   0.00000  Uiso   1.00
C1092  C     0.95255   0.57850   0.80406   0.00000  Uiso   1.00
C1093  C     0.95827   0.41396   0.77983   0.00000  Uiso   1.00
C1094  C     0.70769   0.58723   0.77591   0.00000  Uiso   1.00
C1095  C     0.86354   0.42271   0.97549   0.00000  Uiso   1.00
C1096  C     0.69003   0.46018   0.78226   0.00000  Uiso   1.00
C1097  C     0.97650   0.54064   0.78192   0.00000  Uiso   1.00
C1098  C     0.97963   0.45812   0.77745   0.00000  Uiso   1.00
C1099  C     0.68681   0.54266   0.77635   0.00000  Uiso   1.00
C1100  C     0.95680   0.49918   0.77186   0.00000  Uiso   1.00
F1101  F     0.80504   0.57630   0.88539   0.00000  Uiso   1.00
F1102  F     0.86180   0.42368   0.61455   0.00000  Uiso   1.00
F1103  F     0.79066   0.61518   0.95641   0.00000  Uiso   1.00
F1104  F     0.87702   0.38512   0.54348   0.00000  Uiso   1.00
H1105  H     0.85629   0.43267   0.88735   0.00000  Uiso   1.00
H1106  H     0.94455   0.64550   0.81464   0.00000  Uiso   1.00
H1107  H     0.93956   0.35804   0.74644   0.00000  Uiso   1.00
H1108  H     0.72173   0.64260   0.74013   0.00000  Uiso   1.00
H1109  H     0.81095   0.56747   0.61253   0.00000  Uiso   1.00
H1110  H     0.85843   0.37566   0.81517   0.00000  Uiso   1.00
H1111  H     0.80715   0.62431   0.68528   0.00000  Uiso   1.00
H1112  H     0.80724   0.37513   0.68526   0.00000  Uiso   1.00
H1113  H     0.85839   0.62498   0.81517   0.00000  Uiso   1.00
H1114  H     0.74521   0.64302   0.59347   0.00000  Uiso   1.00
H1115  H     0.92252   0.35762   0.90611   0.00000  Uiso   1.00
H1116  H     0.72346   0.35501   0.80985   0.00000  Uiso   1.00
N1117  N     0.83333   0.61907   0.75000   0.00000  Uiso   1.00
N1118  N     0.83333   0.38093   0.75000   0.00000  Uiso   1.00
O1119  O     0.77226   0.53821   0.74999   0.00000  Uiso   1.00
O1120  O     0.75480   0.61298   0.58002   0.00000  Uiso   1.00
O1121  O     0.86970   0.34433   0.96175   0.00000  Uiso   1.00
O1122  O     0.91284   0.38760   0.91965   0.00000  Uiso   1.00
O1123  O     0.74218   0.43056   0.82974   0.00000  Uiso   1.00
O1124  O     0.70510   0.37703   0.79263   0.00000  Uiso   1.00
O1125  O     0.92477   0.56963   0.83082   0.00000  Uiso   1.00
O1126  O     0.96231   0.62373   0.79599   0.00000  Uiso   1.00
O1127  O     0.93992   0.40331   0.81389   0.00000  Uiso   1.00
O1128  O     0.95804   0.38551   0.74240   0.00000  Uiso   1.00
O1129  O     0.72979   0.59886   0.80724   0.00000  Uiso   1.00
O1130  O     0.89441   0.46179   0.75000   0.00000  Uiso   1.00
O1131  O     0.70322   0.61485   0.73866   0.00000  Uiso   1.00
O1132  O     0.89441   0.53821   0.75000   0.00000  Uiso   1.00
O1133  O     0.77226   0.46179   0.74999   0.00000  Uiso   1.00
O1134  O     0.83333   0.53823   0.68392   0.00000  Uiso   1.00
O1135  O     0.83334   0.46177   0.81607   0.00000  Uiso   1.00
O1136  O     0.83334   0.53823   0.81607   0.00000  Uiso   1.00
O1137  O     0.83333   0.46177   0.68392   0.00000  Uiso   1.00
O1138  O     0.79839   0.65597   0.53816   0.00000  Uiso   1.00
Zn1139 Zn    0.83333   0.55104   0.75000   0.00000  Uiso   1.00
Zn1140 Zn    0.83333   0.44896   0.75000   0.00000  Uiso   1.00
C1141  C     0.08682   0.83377   0.75640   0.00000  Uiso   1.00
C1142  C     0.04308   0.83470   0.77154   0.00000  Uiso   1.00
C1143  C     0.18065   0.69081   0.78617   0.00000  Uiso   1.00
C1144  C     0.15221   0.97586   0.71402   0.00000  Uiso   1.00
C1145  C     0.15223   0.69048   0.71401   0.00000  Uiso   1.00
C1146  C     0.18065   0.97621   0.78617   0.00000  Uiso   1.00
C1147  C     0.16706   0.83308   0.66330   0.00000  Uiso   1.00
C1148  C     0.16633   0.83359   0.83668   0.00000  Uiso   1.00
C1149  C     0.18037   0.79556   0.90666   0.00000  Uiso   1.00
C1150  C     0.15356   0.87125   0.59323   0.00000  Uiso   1.00
C1151  C     0.16647   0.83415   0.88455   0.00000  Uiso   1.00
C1152  C     0.24642   0.83304   0.75671   0.00000  Uiso   1.00
C1153  C     0.16719   0.83256   0.61539   0.00000  Uiso   1.00
C1154  C     0.15295   0.87283   0.90788   0.00000  Uiso   1.00
C1155  C     0.18081   0.79392   0.59204   0.00000  Uiso   1.00
C1156  C     0.15308   0.87290   0.95415   0.00000  Uiso   1.00
C1157  C     0.18100   0.79396   0.54575   0.00000  Uiso   1.00
C1158  C     0.16739   0.83369   0.97674   0.00000  Uiso   1.00
C1159  C     0.16677   0.83321   0.52316   0.00000  Uiso   1.00
C1160  C     0.18205   0.79489   0.95281   0.00000  Uiso   1.00
C1161  C     0.15211   0.87200   0.54708   0.00000  Uiso   1.00
C1162  C     0.13855   0.91116   0.97804   0.00000  Uiso   1.00
C1163  C     0.13745   0.91092   0.52439   0.00000  Uiso   1.00
C1164  C     0.19571   0.75576   0.52185   0.00000  Uiso   1.00
C1165  C     0.11966   0.95140   0.54789   0.00000  Uiso   1.00
C1166  C     0.21483   0.71565   0.95195   0.00000  Uiso   1.00
C1167  C     0.04765   0.75543   0.80284   0.00000  Uiso   1.00
C1168  C     0.28588   0.91183   0.80406   0.00000  Uiso   1.00
C1169  C     0.29160   0.74729   0.77983   0.00000  Uiso   1.00
C1170  C     0.04103   0.92056   0.77591   0.00000  Uiso   1.00
C1171  C     0.19687   0.75604   0.97549   0.00000  Uiso   1.00
C1172  C     0.02337   0.79351   0.78226   0.00000  Uiso   1.00
C1173  C     0.30984   0.87397   0.78192   0.00000  Uiso   1.00
C1174  C     0.31296   0.79145   0.77745   0.00000  Uiso   1.00
C1175  C     0.02014   0.87600   0.77635   0.00000  Uiso   1.00
C1176  C     0.29013   0.83251   0.77186   0.00000  Uiso   1.00
F1177  F     0.13837   0.90964   0.88539   0.00000  Uiso   1.00
F1178  F     0.19514   0.75701   0.61455   0.00000  Uiso   1.00
F1179  F     0.12399   0.94852   0.95641   0.00000  Uiso   1.00
F1180  F     0.21036   0.71845   0.54348   0.00000  Uiso   1.00
H1181  H     0.18962   0.76600   0.88735   0.00000  Uiso   1.00
H1182  H     0.27788   0.97883   0.81464   0.00000  Uiso   1.00
H1183  H     0.27290   0.69138   0.74644   0.00000  Uiso   1.00
H1184  H     0.05507   0.97594   0.74013   0.00000  Uiso   1.00
H1185  H     0.14429   0.90081   0.61253   0.00000  Uiso   1.00
H1186  H     0.19176   0.70900   0.81517   0.00000  Uiso   1.00
H1187  H     0.14049   0.95764   0.68528   0.00000  Uiso   1.00
H1188  H     0.14058   0.70846   0.68526   0.00000  Uiso   1.00
H1189  H     0.19172   0.95831   0.81517   0.00000  Uiso   1.00
H1190  H     0.07854   0.97635   0.59347   0.00000  Uiso   1.00
H1191  H     0.25585   0.69095   0.90611   0.00000  Uiso   1.00
H1192  H     0.05679   0.68834   0.80985   0.00000  Uiso   1.00
N1193  N     0.16667   0.95240   0.75000   0.00000  Uiso   1.00
N1194  N     0.16667   0.71427   0.75000   0.00000  Uiso   1.00
O1195  O     0.10559   0.87154   0.74999   0.00000  Uiso   1.00
O1196  O     0.08814   0.94631   0.58002   0.00000  Uiso   1.00
O1197  O     0.20304   0.67767   0.96175   0.00000  Uiso   1.00
O1198  O     0.24617   0.72093   0.91965   0.00000  Uiso   1.00
O1199  O     0.07551   0.76389   0.82974   0.00000  Uiso   1.00
O1200  O     0.03843   0.71036   0.79263   0.00000  Uiso   1.00
O1201  O     0.25810   0.90296   0.83082   0.00000  Uiso   1.00
O1202  O     0.29564   0.95706   0.79599   0.00000  Uiso   1.00
O1203  O     0.27326   0.73665   0.81389   0.00000  Uiso   1.00
O1204  O     0.29137   0.71884   0.74240   0.00000  Uiso   1.00
O1205  O     0.06313   0.93220   0.80724   0.00000  Uiso   1.00
O1206  O     0.22774   0.79513   0.75000   0.00000  Uiso   1.00
O1207  O     0.03655   0.94819   0.73866   0.00000  Uiso   1.00
O1208  O     0.22774   0.87154   0.75000   0.00000  Uiso   1.00
O1209  O     0.10559   0.79513   0.74999   0.00000  Uiso   1.00
O1210  O     0.16666   0.87156   0.68392   0.00000  Uiso   1.00
O1211  O     0.16667   0.79511   0.81607   0.00000  Uiso   1.00
O1212  O     0.16667   0.87156   0.81607   0.00000  Uiso   1.00
O1213  O     0.16666   0.79511   0.68392   0.00000  Uiso   1.00
O1214  O     0.13172   0.98930   0.53816   0.00000  Uiso   1.00
Zn1215 Zn    0.16667   0.88437   0.75000   0.00000  Uiso   1.00
Zn1216 Zn    0.16667   0.78229   0.75000   0.00000  Uiso   1.00
C1217  C     0.42015   0.83377   0.75640   0.00000  Uiso   1.00
C1218  C     0.37641   0.83470   0.77154   0.00000  Uiso   1.00
C1219  C     0.51398   0.69081   0.78617   0.00000  Uiso   1.00
C1220  C     0.48555   0.97586   0.71402   0.00000  Uiso   1.00
C1221  C     0.48556   0.69048   0.71401   0.00000  Uiso   1.00
C1222  C     0.51399   0.97621   0.78617   0.00000  Uiso   1.00
C1223  C     0.50039   0.83308   0.66330   0.00000  Uiso   1.00
C1224  C     0.49967   0.83359   0.83668   0.00000  Uiso   1.00
C1225  C     0.51370   0.79556   0.90666   0.00000  Uiso   1.00
C1226  C     0.48690   0.87125   0.59323   0.00000  Uiso   1.00
C1227  C     0.49980   0.83415   0.88455   0.00000  Uiso   1.00
C1228  C     0.57975   0.83304   0.75671   0.00000  Uiso   1.00
C1229  C     0.50052   0.83256   0.61539   0.00000  Uiso   1.00
C1230  C     0.48629   0.87283   0.90788   0.00000  Uiso   1.00
C1231  C     0.51415   0.79392   0.59204   0.00000  Uiso   1.00
C1232  C     0.48641   0.87290   0.95415   0.00000  Uiso   1.00
C1233  C     0.51433   0.79396   0.54575   0.00000  Uiso   1.00
C1234  C     0.50072   0.83369   0.97674   0.00000  Uiso   1.00
C1235  C     0.50011   0.83321   0.52316   0.00000  Uiso   1.00
C1236  C     0.51538   0.79489   0.95281   0.00000  Uiso   1.00
C1237  C     0.48545   0.87200   0.54708   0.00000  Uiso   1.00
C1238  C     0.47188   0.91116   0.97804   0.00000  Uiso   1.00
C1239  C     0.47079   0.91092   0.52439   0.00000  Uiso   1.00
C1240  C     0.52904   0.75576   0.52185   0.00000  Uiso   1.00
C1241  C     0.45299   0.95140   0.54789   0.00000  Uiso   1.00
C1242  C     0.54816   0.71565   0.95195   0.00000  Uiso   1.00
C1243  C     0.38099   0.75543   0.80284   0.00000  Uiso   1.00
C1244  C     0.61922   0.91183   0.80406   0.00000  Uiso   1.00
C1245  C     0.62493   0.74729   0.77983   0.00000  Uiso   1.00
C1246  C     0.37436   0.92056   0.77591   0.00000  Uiso   1.00
C1247  C     0.53020   0.75604   0.97549   0.00000  Uiso   1.00
C1248  C     0.35670   0.79351   0.78226   0.00000  Uiso   1.00
C1249  C     0.64317   0.87397   0.78192   0.00000  Uiso   1.00
C1250  C     0.64630   0.79145   0.77745   0.00000  Uiso   1.00
C1251  C     0.35348   0.87600   0.77635   0.00000  Uiso   1.00
C1252  C     0.62346   0.83251   0.77186   0.00000  Uiso   1.00
F1253  F     0.47171   0.90964   0.88539   0.00000  Uiso   1.00
F1254  F     0.52847   0.75701   0.61455   0.00000  Uiso   1.00
F1255  F     0.45732   0.94852   0.95641   0.00000  Uiso   1.00
F1256  F     0.54369   0.71845   0.54348   0.00000  Uiso   1.00
H1257  H     0.52296   0.76600   0.88735   0.00000  Uiso   1.00
H1258  H     0.61121   0.97883   0.81464   0.00000  Uiso   1.00
H1259  H     0.60623   0.69138   0.74644   0.00000  Uiso   1.00
H1260  H     0.38840   0.97594   0.74013   0.00000  Uiso   1.00
H1261  H     0.47762   0.90081   0.61253   0.00000  Uiso   1.00
H1262  H     0.52510   0.70900   0.81517   0.00000  Uiso   1.00
H1263  H     0.47382   0.95764   0.68528   0.00000  Uiso   1.00
H1264  H     0.47391   0.70846   0.68526   0.00000  Uiso   1.00
H1265  H     0.52506   0.95831   0.81517   0.00000  Uiso   1.00
H1266  H     0.41187   0.97635   0.59347   0.00000  Uiso   1.00
H1267  H     0.58918   0.69095   0.90611   0.00000  Uiso   1.00
H1268  H     0.39013   0.68834   0.80985   0.00000  Uiso   1.00
N1269  N     0.50000   0.95240   0.75000   0.00000  Uiso   1.00
N1270  N     0.50000   0.71427   0.75000   0.00000  Uiso   1.00
O1271  O     0.43892   0.87154   0.74999   0.00000  Uiso   1.00
O1272  O     0.42147   0.94631   0.58002   0.00000  Uiso   1.00
O1273  O     0.53637   0.67767   0.96175   0.00000  Uiso   1.00
O1274  O     0.57951   0.72093   0.91965   0.00000  Uiso   1.00
O1275  O     0.40885   0.76389   0.82974   0.00000  Uiso   1.00
O1276  O     0.37177   0.71036   0.79263   0.00000  Uiso   1.00
O1277  O     0.59144   0.90296   0.83082   0.00000  Uiso   1.00
O1278  O     0.62897   0.95706   0.79599   0.00000  Uiso   1.00
O1279  O     0.60659   0.73665   0.81389   0.00000  Uiso   1.00
O1280  O     0.62471   0.71884   0.74240   0.00000  Uiso   1.00
O1281  O     0.39646   0.93220   0.80724   0.00000  Uiso   1.00
O1282  O     0.56108   0.79513   0.75000   0.00000  Uiso   1.00
O1283  O     0.36988   0.94819   0.73866   0.00000  Uiso   1.00
O1284  O     0.56108   0.87154   0.75000   0.00000  Uiso   1.00
O1285  O     0.43892   0.79513   0.74999   0.00000  Uiso   1.00
O1286  O     0.49999   0.87156   0.68392   0.00000  Uiso   1.00
O1287  O     0.50001   0.79511   0.81607   0.00000  Uiso   1.00
O1288  O     0.50001   0.87156   0.81607   0.00000  Uiso   1.00
O1289  O     0.49999   0.79511   0.68392   0.00000  Uiso   1.00
O1290  O     0.46505   0.98930   0.53816   0.00000  Uiso   1.00
Zn1291 Zn    0.50000   0.88437   0.75000   0.00000  Uiso   1.00
Zn1292 Zn    0.50000   0.78229   0.75000   0.00000  Uiso   1.00
C1293  C     0.75349   0.83377   0.75640   0.00000  Uiso   1.00
C1294  C     0.70974   0.83470   0.77154   0.00000  Uiso   1.00
C1295  C     0.84731   0.69081   0.78617   0.00000  Uiso   1.00
C1296  C     0.81888   0.97586   0.71402   0.00000  Uiso   1.00
C1297  C     0.81889   0.69048   0.71401   0.00000  Uiso   1.00
C1298  C     0.84732   0.97621   0.78617   0.00000  Uiso   1.00
C1299  C     0.83372   0.83308   0.66330   0.00000  Uiso   1.00
C1300  C     0.83300   0.83359   0.83668   0.00000  Uiso   1.00
C1301  C     0.84704   0.79556   0.90666   0.00000  Uiso   1.00
C1302  C     0.82023   0.87125   0.59323   0.00000  Uiso   1.00
C1303  C     0.83314   0.83415   0.88455   0.00000  Uiso   1.00
C1304  C     0.91309   0.83304   0.75671   0.00000  Uiso   1.00
C1305  C     0.83385   0.83256   0.61539   0.00000  Uiso   1.00
C1306  C     0.81962   0.87283   0.90788   0.00000  Uiso   1.00
C1307  C     0.84748   0.79392   0.59204   0.00000  Uiso   1.00
C1308  C     0.81974   0.87290   0.95415   0.00000  Uiso   1.00
C1309  C     0.84767   0.79396   0.54575   0.00000  Uiso   1.00
C1310  C     0.83406   0.83369   0.97674   0.00000  Uiso   1.00
C1311  C     0.83344   0.83321   0.52316   0.00000  Uiso   1.00
C1312  C     0.84871   0.79489   0.95281   0.00000  Uiso   1.00
C1313  C     0.81878   0.87200   0.54708   0.00000  Uiso   1.00
C1314  C     0.80522   0.91116   0.97804   0.00000  Uiso   1.00
C1315  C     0.80412   0.91092   0.52439   0.00000  Uiso   1.00
C1316  C     0.86237   0.75576   0.52185   0.00000  Uiso   1.00
C1317  C     0.78633   0.95140   0.54789   0.00000  Uiso   1.00
C1318  C     0.88149   0.71565   0.95195   0.00000  Uiso   1.00
C1319  C     0.71432   0.75543   0.80284   0.00000  Uiso   1.00
C1320  C     0.95255   0.91183   0.80406   0.00000  Uiso   1.00
C1321  C     0.95827   0.74729   0.77983   0.00000  Uiso   1.00
C1322  C     0.70769   0.92056   0.77591   0.00000  Uiso   1.00
C1323  C     0.86354   0.75604   0.97549   0.00000  Uiso   1.00
C1324  C     0.69003   0.79351   0.78226   0.00000  Uiso   1.00
C1325  C     0.97650   0.87397   0.78192   0.00000  Uiso   1.00
C1326  C     0.97963   0.79145   0.77745   0.00000  Uiso   1.00
C1327  C     0.68681   0.87600   0.77635   0.00000  Uiso   1.00
C1328  C     0.95680   0.83251   0.77186   0.00000  Uiso   1.00
F1329  F     0.80504   0.90964   0.88539   0.00000  Uiso   1.00
F1330  F     0.86180   0.75701   0.61455   0.00000  Uiso   1.00
F1331  F     0.79066   0.94852   0.95641   0.00000  Uiso   1.00
F1332  F     0.87702   0.71845   0.54348   0.00000  Uiso   1.00
H1333  H     0.85629   0.76600   0.88735   0.00000  Uiso   1.00
H1334  H     0.94455   0.97883   0.81464   0.00000  Uiso   1.00
H1335  H     0.93956   0.69138   0.74644   0.00000  Uiso   1.00
H1336  H     0.72173   0.97594   0.74013   0.00000  Uiso   1.00
H1337  H     0.81095   0.90081   0.61253   0.00000  Uiso   1.00
H1338  H     0.85843   0.70900   0.81517   0.00000  Uiso   1.00
H1339  H     0.80715   0.95764   0.68528   0.00000  Uiso   1.00
H1340  H     0.80724   0.70846   0.68526   0.00000  Uiso   1.00
H1341  H     0.85839   0.95831   0.81517   0.00000  Uiso   1.00
H1342  H     0.74521   0.97635   0.59347   0.00000  Uiso   1.00
H1343  H     0.92252   0.69095   0.90611   0.00000  Uiso   1.00
H1344  H     0.72346   0.68834   0.80985   0.00000  Uiso   1.00
N1345  N     0.83333   0.95240   0.75000   0.00000  Uiso   1.00
N1346  N     0.83333   0.71427   0.75000   0.00000  Uiso   1.00
O1347  O     0.77226   0.87154   0.74999   0.00000  Uiso   1.00
O1348  O     0.75480   0.94631   0.58002   0.00000  Uiso   1.00
O1349  O     0.86970   0.67767   0.96175   0.00000  Uiso   1.00
O1350  O     0.91284   0.72093   0.91965   0.00000  Uiso   1.00
O1351  O     0.74218   0.76389   0.82974   0.00000  Uiso   1.00
O1352  O     0.70510   0.71036   0.79263   0.00000  Uiso   1.00
O1353  O     0.92477   0.90296   0.83082   0.00000  Uiso   1.00
O1354  O     0.96231   0.95706   0.79599   0.00000  Uiso   1.00
O1355  O     0.93992   0.73665   0.81389   0.00000  Uiso   1.00
O1356  O     0.95804   0.71884   0.74240   0.00000  Uiso   1.00
O1357  O     0.72979   0.93220   0.80724   0.00000  Uiso   1.00
O1358  O     0.89441   0.79513   0.75000   0.00000  Uiso   1.00
O1359  O     0.70322   0.94819   0.73866   0.00000  Uiso   1.00
O1360  O     0.89441   0.87154   0.75000   0.00000  Uiso   1.00
O1361  O     0.77226   0.79513   0.74999   0.00000  Uiso   1.00
O1362  O     0.83333   0.87156   0.68392   0.00000  Uiso   1.00
O1363  O     0.83334   0.79511   0.81607   0.00000  Uiso   1.00
O1364  O     0.83334   0.87156   0.81607   0.00000  Uiso   1.00
O1365  O     0.83333   0.79511   0.68392   0.00000  Uiso   1.00
O1366  O     0.79839   0.98930   0.53816   0.00000  Uiso   1.00
Zn1367 Zn    0.83333   0.88437   0.75000   0.00000  Uiso   1.00
Zn1368 Zn    0.83333   0.78229   0.75000   0.00000  Uiso   1.00
loop_
_geom_bond_atom_site_label_1
_geom_bond_atom_site_label_2
_geom_bond_distance
_geom_bond_site_symmetry_2
_ccdc_geom_bond_type
C1     C2      1.457   .     S
C1     O69     1.292   .     A
C1     O55     1.284   .     A
C2     C35     1.417   .     A
C2     C32     1.411   .     A
C3     N54     1.366   .     A
C3     H46     1.081   .     S
C3     C462    1.413   1_545 S
C4     N53     1.366   .     A
C4     H47     1.081   .     S
C4     C233    1.414   .     S
C5     H48     1.081   .     S
C5     N54     1.366   .     A
C5     C460    1.414   1_545 S
C6     N53     1.366   .     A
C6     H49     1.080   .     S
C6     C231    1.413   .     S
C7     O70     1.288   .     A
C7     O73     1.285   .     A
C7     C13     1.441   .     S
C8     O72     1.285   .     A
C8     O71     1.288   .     A
C8     C11     1.439   .     S
C9     C20     1.389   .     A
C9     C11     1.391   .     A
C9     H41     1.081   .     S
C10    C21     1.389   .     A
C10    H45     1.080   .     S
C10    C13     1.391   .     A
C11    C14     1.396   .     A
C12    O68     1.292   .     A
C12    C36     1.457   .     S
C12    O66     1.285   .     A
C13    C15     1.397   .     A
C14    C16     1.391   .     A
C14    F37     1.361   .     S
C15    F38     1.361   .     S
C15    C17     1.392   .     A
C16    C22     1.405   .     A
C16    C18     1.417   .     A
C17    C19     1.417   .     A
C17    C24     1.405   .     A
C18    C20     1.419   .     A
C18    C703    1.396   .     S
C19    C21     1.419   .     A
C19    C702    1.396   1_554 S
C20    C31     1.415   .     A
C21    C23     1.415   .     A
C22    F39     1.361   .     S
C22    C707    1.394   .     S
C23    C25     1.487   .     S
C23    C706    1.394   1_554 S
C24    F40     1.361   .     S
C24    C715    1.394   1_554 S
C25    O56     1.399   .     S
C25    O74     1.223   .     D
C26    C31     1.487   .     S
C26    O58     1.399   .     S
C26    O57     1.223   .     D
C27    O60     1.395   .     S
C27    C32     1.493   .     S
C27    O59     1.224   .     D
C28    O61     1.223   .     D
C28    C33     1.494   .     S
C28    O62     1.396   .     S
C29    O63     1.222   .     D
C29    O64     1.398   .     S
C29    C34     1.476   .     S
C30    C35     1.478   .     S
C30    O67     1.398   .     S
C30    O65     1.223   .     D
C31    C708    1.394   .     S
C32    C186    1.394   1_455 S
C33    C36     1.409   .     A
C33    C111    1.394   .     S
C34    C36     1.415   .     A
C34    C108    1.394   .     S
C35    C185    1.394   1_455 S
H42    O62     1.013   .     S
H43    O64     1.013   .     S
H44    O67     1.012   .     S
H50    O56     1.014   .     S
H51    O58     1.014   .     S
H52    O60     1.013   .     S
N53    Zn75    2.006   .     S
N54    Zn76    2.006   .     S
O55    Zn75    1.975   .     S
O66    Zn76    1.975   .     S
O68    Zn75    1.966   .     S
O69    Zn76    1.966   .     S
O70    Zn75    2.019   .     S
O71    Zn76    2.019   .     S
O72    Zn75    2.026   .     S
O73    Zn76    2.026   .     S
C77    C78     1.457   .     S
C77    O145    1.292   .     A
C77    O131    1.284   .     A
C78    C111    1.417   .     A
C78    C108    1.411   .     A
C79    N130    1.366   .     A
C79    H122    1.081   .     S
C79    C538    1.413   1_545 S
C80    N129    1.366   .     A
C80    H123    1.081   .     S
C80    C309    1.414   .     S
C81    H124    1.081   .     S
C81    N130    1.366   .     A
C81    C536    1.414   1_545 S
C82    N129    1.366   .     A
C82    H125    1.080   .     S
C82    C307    1.413   .     S
C83    O146    1.288   .     A
C83    O149    1.285   .     A
C83    C89     1.441   .     S
C84    O148    1.285   .     A
C84    O147    1.288   .     A
C84    C87     1.439   .     S
C85    C96     1.389   .     A
C85    C87     1.391   .     A
C85    H117    1.081   .     S
C86    C97     1.389   .     A
C86    H121    1.080   .     S
C86    C89     1.391   .     A
C87    C90     1.396   .     A
C88    O144    1.292   .     A
C88    C112    1.457   .     S
C88    O142    1.285   .     A
C89    C91     1.397   .     A
C90    C92     1.391   .     A
C90    F113    1.361   .     S
C91    F114    1.361   .     S
C91    C93     1.392   .     A
C92    C98     1.405   .     A
C92    C94     1.417   .     A
C93    C95     1.417   .     A
C93    C100    1.405   .     A
C94    C96     1.419   .     A
C94    C779    1.396   .     S
C95    C97     1.419   .     A
C95    C778    1.396   1_554 S
C96    C107    1.415   .     A
C97    C99     1.415   .     A
C98    F115    1.361   .     S
C98    C783    1.394   .     S
C99    C101    1.487   .     S
C99    C782    1.394   1_554 S
C100   F116    1.361   .     S
C100   C791    1.394   1_554 S
C101   O132    1.399   .     S
C101   O150    1.223   .     D
C102   C107    1.487   .     S
C102   O134    1.399   .     S
C102   O133    1.223   .     D
C103   O136    1.395   .     S
C103   C108    1.493   .     S
C103   O135    1.224   .     D
C104   O137    1.223   .     D
C104   C109    1.494   .     S
C104   O138    1.396   .     S
C105   O139    1.222   .     D
C105   O140    1.398   .     S
C105   C110    1.476   .     S
C106   C111    1.478   .     S
C106   O143    1.398   .     S
C106   O141    1.223   .     D
C107   C784    1.394   .     S
C109   C112    1.409   .     A
C109   C187    1.394   .     S
C110   C112    1.415   .     A
C110   C184    1.394   .     S
H118   O138    1.013   .     S
H119   O140    1.013   .     S
H120   O143    1.012   .     S
H126   O132    1.014   .     S
H127   O134    1.014   .     S
H128   O136    1.013   .     S
N129   Zn151   2.006   .     S
N130   Zn152   2.006   .     S
O131   Zn151   1.975   .     S
O142   Zn152   1.975   .     S
O144   Zn151   1.966   .     S
O145   Zn152   1.966   .     S
O146   Zn151   2.019   .     S
O147   Zn152   2.019   .     S
O148   Zn151   2.026   .     S
O149   Zn152   2.026   .     S
C153   C154    1.457   .     S
C153   O221    1.292   .     A
C153   O207    1.284   .     A
C154   C187    1.417   .     A
C154   C184    1.411   .     A
C155   N206    1.366   .     A
C155   H198    1.081   .     S
C155   C614    1.413   1_545 S
C156   N205    1.366   .     A
C156   H199    1.081   .     S
C156   C385    1.414   .     S
C157   H200    1.081   .     S
C157   N206    1.366   .     A
C157   C612    1.414   1_545 S
C158   N205    1.366   .     A
C158   H201    1.080   .     S
C158   C383    1.413   .     S
C159   O222    1.288   .     A
C159   O225    1.285   .     A
C159   C165    1.441   .     S
C160   O224    1.285   .     A
C160   O223    1.288   .     A
C160   C163    1.439   .     S
C161   C172    1.389   .     A
C161   C163    1.391   .     A
C161   H193    1.081   .     S
C162   C173    1.389   .     A
C162   H197    1.080   .     S
C162   C165    1.391   .     A
C163   C166    1.396   .     A
C164   O220    1.292   .     A
C164   C188    1.457   .     S
C164   O218    1.285   .     A
C165   C167    1.397   .     A
C166   C168    1.391   .     A
C166   F189    1.361   .     S
C167   F190    1.361   .     S
C167   C169    1.392   .     A
C168   C174    1.405   .     A
C168   C170    1.417   .     A
C169   C171    1.417   .     A
C169   C176    1.405   .     A
C170   C172    1.419   .     A
C170   C855    1.396   .     S
C171   C173    1.419   .     A
C171   C854    1.396   1_554 S
C172   C183    1.415   .     A
C173   C175    1.415   .     A
C174   F191    1.361   .     S
C174   C859    1.394   .     S
C175   C177    1.487   .     S
C175   C858    1.394   1_554 S
C176   F192    1.361   .     S
C176   C867    1.394   1_554 S
C177   O208    1.399   .     S
C177   O226    1.223   .     D
C178   C183    1.487   .     S
C178   O210    1.399   .     S
C178   O209    1.223   .     D
C179   O212    1.395   .     S
C179   C184    1.493   .     S
C179   O211    1.224   .     D
C180   O213    1.223   .     D
C180   C185    1.494   .     S
C180   O214    1.396   .     S
C181   O215    1.222   .     D
C181   O216    1.398   .     S
C181   C186    1.476   .     S
C182   C187    1.478   .     S
C182   O219    1.398   .     S
C182   O217    1.223   .     D
C183   C860    1.394   .     S
C185   C188    1.409   .     A
C185   C35     1.394   1_655 S
C186   C188    1.415   .     A
C186   C32     1.394   1_655 S
H194   O214    1.013   .     S
H195   O216    1.013   .     S
H196   O219    1.012   .     S
H202   O208    1.014   .     S
H203   O210    1.014   .     S
H204   O212    1.013   .     S
N205   Zn227   2.006   .     S
N206   Zn228   2.006   .     S
O207   Zn227   1.975   .     S
O218   Zn228   1.975   .     S
O220   Zn227   1.966   .     S
O221   Zn228   1.966   .     S
O222   Zn227   2.019   .     S
O223   Zn228   2.019   .     S
O224   Zn227   2.026   .     S
O225   Zn228   2.026   .     S
C229   C230    1.457   .     S
C229   O297    1.292   .     A
C229   O283    1.284   .     A
C230   C263    1.417   .     A
C230   C260    1.411   .     A
C231   N282    1.366   .     A
C231   H274    1.081   .     S
C232   N281    1.366   .     A
C232   H275    1.081   .     S
C232   C461    1.414   .     S
C233   H276    1.081   .     S
C233   N282    1.366   .     A
C234   N281    1.366   .     A
C234   H277    1.080   .     S
C234   C459    1.413   .     S
C235   O298    1.288   .     A
C235   O301    1.285   .     A
C235   C241    1.441   .     S
C236   O300    1.285   .     A
C236   O299    1.288   .     A
C236   C239    1.439   .     S
C237   C248    1.389   .     A
C237   C239    1.391   .     A
C237   H269    1.081   .     S
C238   C249    1.389   .     A
C238   H273    1.080   .     S
C238   C241    1.391   .     A
C239   C242    1.396   .     A
C240   O296    1.292   .     A
C240   C264    1.457   .     S
C240   O294    1.285   .     A
C241   C243    1.397   .     A
C242   C244    1.391   .     A
C242   F265    1.361   .     S
C243   F266    1.361   .     S
C243   C245    1.392   .     A
C244   C250    1.405   .     A
C244   C246    1.417   .     A
C245   C247    1.417   .     A
C245   C252    1.405   .     A
C246   C248    1.419   .     A
C246   C931    1.396   .     S
C247   C249    1.419   .     A
C247   C930    1.396   1_554 S
C248   C259    1.415   .     A
C249   C251    1.415   .     A
C250   F267    1.361   .     S
C250   C935    1.394   .     S
C251   C253    1.487   .     S
C251   C934    1.394   1_554 S
C252   F268    1.361   .     S
C252   C943    1.394   1_554 S
C253   O284    1.399   .     S
C253   O302    1.223   .     D
C254   C259    1.487   .     S
C254   O286    1.399   .     S
C254   O285    1.223   .     D
C255   O288    1.395   .     S
C255   C260    1.493   .     S
C255   O287    1.224   .     D
C256   O289    1.223   .     D
C256   C261    1.494   .     S
C256   O290    1.396   .     S
C257   O291    1.222   .     D
C257   O292    1.398   .     S
C257   C262    1.476   .     S
C258   C263    1.478   .     S
C258   O295    1.398   .     S
C258   O293    1.223   .     D
C259   C936    1.394   .     S
C260   C414    1.394   1_455 S
C261   C264    1.409   .     A
C261   C339    1.394   .     S
C262   C264    1.415   .     A
C262   C336    1.394   .     S
C263   C413    1.394   1_455 S
H270   O290    1.013   .     S
H271   O292    1.013   .     S
H272   O295    1.012   .     S
H278   O284    1.014   .     S
H279   O286    1.014   .     S
H280   O288    1.013   .     S
N281   Zn303   2.006   .     S
N282   Zn304   2.006   .     S
O283   Zn303   1.975   .     S
O294   Zn304   1.975   .     S
O296   Zn303   1.966   .     S
O297   Zn304   1.966   .     S
O298   Zn303   2.019   .     S
O299   Zn304   2.019   .     S
O300   Zn303   2.026   .     S
O301   Zn304   2.026   .     S
C305   C306    1.457   .     S
C305   O373    1.292   .     A
C305   O359    1.284   .     A
C306   C339    1.417   .     A
C306   C336    1.411   .     A
C307   N358    1.366   .     A
C307   H350    1.081   .     S
C308   N357    1.366   .     A
C308   H351    1.081   .     S
C308   C537    1.414   .     S
C309   H352    1.081   .     S
C309   N358    1.366   .     A
C310   N357    1.366   .     A
C310   H353    1.080   .     S
C310   C535    1.413   .     S
C311   O374    1.288   .     A
C311   O377    1.285   .     A
C311   C317    1.441   .     S
C312   O376    1.285   .     A
C312   O375    1.288   .     A
C312   C315    1.439   .     S
C313   C324    1.389   .     A
C313   C315    1.391   .     A
C313   H345    1.081   .     S
C314   C325    1.389   .     A
C314   H349    1.080   .     S
C314   C317    1.391   .     A
C315   C318    1.396   .     A
C316   O372    1.292   .     A
C316   C340    1.457   .     S
C316   O370    1.285   .     A
C317   C319    1.397   .     A
C318   C320    1.391   .     A
C318   F341    1.361   .     S
C319   F342    1.361   .     S
C319   C321    1.392   .     A
C320   C326    1.405   .     A
C320   C322    1.417   .     A
C321   C323    1.417   .     A
C321   C328    1.405   .     A
C322   C324    1.419   .     A
C322   C1007   1.396   .     S
C323   C325    1.419   .     A
C323   C1006   1.396   1_554 S
C324   C335    1.415   .     A
C325   C327    1.415   .     A
C326   F343    1.361   .     S
C326   C1011   1.394   .     S
C327   C329    1.487   .     S
C327   C1010   1.394   1_554 S
C328   F344    1.361   .     S
C328   C1019   1.394   1_554 S
C329   O360    1.399   .     S
C329   O378    1.223   .     D
C330   C335    1.487   .     S
C330   O362    1.399   .     S
C330   O361    1.223   .     D
C331   O364    1.395   .     S
C331   C336    1.493   .     S
C331   O363    1.224   .     D
C332   O365    1.223   .     D
C332   C337    1.494   .     S
C332   O366    1.396   .     S
C333   O367    1.222   .     D
C333   O368    1.398   .     S
C333   C338    1.476   .     S
C334   C339    1.478   .     S
C334   O371    1.398   .     S
C334   O369    1.223   .     D
C335   C1012   1.394   .     S
C337   C340    1.409   .     A
C337   C415    1.394   .     S
C338   C340    1.415   .     A
C338   C412    1.394   .     S
H346   O366    1.013   .     S
H347   O368    1.013   .     S
H348   O371    1.012   .     S
H354   O360    1.014   .     S
H355   O362    1.014   .     S
H356   O364    1.013   .     S
N357   Zn379   2.006   .     S
N358   Zn380   2.006   .     S
O359   Zn379   1.975   .     S
O370   Zn380   1.975   .     S
O372   Zn379   1.966   .     S
O373   Zn380   1.966   .     S
O374   Zn379   2.019   .     S
O375   Zn380   2.019   .     S
O376   Zn379   2.026   .     S
O377   Zn380   2.026   .     S
C381   C382    1.457   .     S
C381   O449    1.292   .     A
C381   O435    1.284   .     A
C382   C415    1.417   .     A
C382   C412    1.411   .     A
C383   N434    1.366   .     A
C383   H426    1.081   .     S
C384   N433    1.366   .     A
C384   H427    1.081   .     S
C384   C613    1.414   .     S
C385   H428    1.081   .     S
C385   N434    1.366   .     A
C386   N433    1.366   .     A
C386   H429    1.080   .     S
C386   C611    1.413   .     S
C387   O450    1.288   .     A
C387   O453    1.285   .     A
C387   C393    1.441   .     S
C388   O452    1.285   .     A
C388   O451    1.288   .     A
C388   C391    1.439   .     S
C389   C400    1.389   .     A
C389   C391    1.391   .     A
C389   H421    1.081   .     S
C390   C401    1.389   .     A
C390   H425    1.080   .     S
C390   C393    1.391   .     A
C391   C394    1.396   .     A
C392   O448    1.292   .     A
C392   C416    1.457   .     S
C392   O446    1.285   .     A
C393   C395    1.397   .     A
C394   C396    1.391   .     A
C394   F417    1.361   .     S
C395   F418    1.361   .     S
C395   C397    1.392   .     A
C396   C402    1.405   .     A
C396   C398    1.417   .     A
C397   C399    1.417   .     A
C397   C404    1.405   .     A
C398   C400    1.419   .     A
C398   C1083   1.396   .     S
C399   C401    1.419   .     A
C399   C1082   1.396   1_554 S
C400   C411    1.415   .     A
C401   C403    1.415   .     A
C402   F419    1.361   .     S
C402   C1087   1.394   .     S
C403   C405    1.487   .     S
C403   C1086   1.394   1_554 S
C404   F420    1.361   .     S
C404   C1095   1.394   1_554 S
C405   O436    1.399   .     S
C405   O454    1.223   .     D
C406   C411    1.487   .     S
C406   O438    1.399   .     S
C406   O437    1.223   .     D
C407   O440    1.395   .     S
C407   C412    1.493   .     S
C407   O439    1.224   .     D
C408   O441    1.223   .     D
C408   C413    1.494   .     S
C408   O442    1.396   .     S
C409   O443    1.222   .     D
C409   O444    1.398   .     S
C409   C414    1.476   .     S
C410   C415    1.478   .     S
C410   O447    1.398   .     S
C410   O445    1.223   .     D
C411   C1088   1.394   .     S
C413   C416    1.409   .     A
C413   C263    1.394   1_655 S
C414   C416    1.415   .     A
C414   C260    1.394   1_655 S
H422   O442    1.013   .     S
H423   O444    1.013   .     S
H424   O447    1.012   .     S
H430   O436    1.014   .     S
H431   O438    1.014   .     S
H432   O440    1.013   .     S
N433   Zn455   2.006   .     S
N434   Zn456   2.006   .     S
O435   Zn455   1.975   .     S
O446   Zn456   1.975   .     S
O448   Zn455   1.966   .     S
O449   Zn456   1.966   .     S
O450   Zn455   2.019   .     S
O451   Zn456   2.019   .     S
O452   Zn455   2.026   .     S
O453   Zn456   2.026   .     S
C457   C458    1.457   .     S
C457   O525    1.292   .     A
C457   O511    1.284   .     A
C458   C491    1.417   .     A
C458   C488    1.411   .     A
C459   N510    1.366   .     A
C459   H502    1.081   .     S
C460   N509    1.366   .     A
C460   H503    1.081   .     S
C460   C5      1.414   1_565 S
C461   H504    1.081   .     S
C461   N510    1.366   .     A
C462   N509    1.366   .     A
C462   H505    1.080   .     S
C462   C3      1.413   1_565 S
C463   O526    1.288   .     A
C463   O529    1.285   .     A
C463   C469    1.441   .     S
C464   O528    1.285   .     A
C464   O527    1.288   .     A
C464   C467    1.439   .     S
C465   C476    1.389   .     A
C465   C467    1.391   .     A
C465   H497    1.081   .     S
C466   C477    1.389   .     A
C466   H501    1.080   .     S
C466   C469    1.391   .     A
C467   C470    1.396   .     A
C468   O524    1.292   .     A
C468   C492    1.457   .     S
C468   O522    1.285   .     A
C469   C471    1.397   .     A
C470   C472    1.391   .     A
C470   F493    1.361   .     S
C471   F494    1.361   .     S
C471   C473    1.392   .     A
C472   C478    1.405   .     A
C472   C474    1.417   .     A
C473   C475    1.417   .     A
C473   C480    1.405   .     A
C474   C476    1.419   .     A
C474   C1159   1.396   .     S
C475   C477    1.419   .     A
C475   C1158   1.396   1_554 S
C476   C487    1.415   .     A
C477   C479    1.415   .     A
C478   F495    1.361   .     S
C478   C1163   1.394   .     S
C479   C481    1.487   .     S
C479   C1162   1.394   1_554 S
C480   F496    1.361   .     S
C480   C1171   1.394   1_554 S
C481   O512    1.399   .     S
C481   O530    1.223   .     D
C482   C487    1.487   .     S
C482   O514    1.399   .     S
C482   O513    1.223   .     D
C483   O516    1.395   .     S
C483   C488    1.493   .     S
C483   O515    1.224   .     D
C484   O517    1.223   .     D
C484   C489    1.494   .     S
C484   O518    1.396   .     S
C485   O519    1.222   .     D
C485   O520    1.398   .     S
C485   C490    1.476   .     S
C486   C491    1.478   .     S
C486   O523    1.398   .     S
C486   O521    1.223   .     D
C487   C1164   1.394   .     S
C488   C642    1.394   1_455 S
C489   C492    1.409   .     A
C489   C567    1.394   .     S
C490   C492    1.415   .     A
C490   C564    1.394   .     S
C491   C641    1.394   1_455 S
H498   O518    1.013   .     S
H499   O520    1.013   .     S
H500   O523    1.012   .     S
H506   O512    1.014   .     S
H507   O514    1.014   .     S
H508   O516    1.013   .     S
N509   Zn531   2.006   .     S
N510   Zn532   2.006   .     S
O511   Zn531   1.975   .     S
O522   Zn532   1.975   .     S
O524   Zn531   1.966   .     S
O525   Zn532   1.966   .     S
O526   Zn531   2.019   .     S
O527   Zn532   2.019   .     S
O528   Zn531   2.026   .     S
O529   Zn532   2.026   .     S
C533   C534    1.457   .     S
C533   O601    1.292   .     A
C533   O587    1.284   .     A
C534   C567    1.417   .     A
C534   C564    1.411   .     A
C535   N586    1.366   .     A
C535   H578    1.081   .     S
C536   N585    1.366   .     A
C536   H579    1.081   .     S
C536   C81     1.414   1_565 S
C537   H580    1.081   .     S
C537   N586    1.366   .     A
C538   N585    1.366   .     A
C538   H581    1.080   .     S
C538   C79     1.413   1_565 S
C539   O602    1.288   .     A
C539   O605    1.285   .     A
C539   C545    1.441   .     S
C540   O604    1.285   .     A
C540   O603    1.288   .     A
C540   C543    1.439   .     S
C541   C552    1.389   .     A
C541   C543    1.391   .     A
C541   H573    1.081   .     S
C542   C553    1.389   .     A
C542   H577    1.080   .     S
C542   C545    1.391   .     A
C543   C546    1.396   .     A
C544   O600    1.292   .     A
C544   C568    1.457   .     S
C544   O598    1.285   .     A
C545   C547    1.397   .     A
C546   C548    1.391   .     A
C546   F569    1.361   .     S
C547   F570    1.361   .     S
C547   C549    1.392   .     A
C548   C554    1.405   .     A
C548   C550    1.417   .     A
C549   C551    1.417   .     A
C549   C556    1.405   .     A
C550   C552    1.419   .     A
C550   C1235   1.396   .     S
C551   C553    1.419   .     A
C551   C1234   1.396   1_554 S
C552   C563    1.415   .     A
C553   C555    1.415   .     A
C554   F571    1.361   .     S
C554   C1239   1.394   .     S
C555   C557    1.487   .     S
C555   C1238   1.394   1_554 S
C556   F572    1.361   .     S
C556   C1247   1.394   1_554 S
C557   O588    1.399   .     S
C557   O606    1.223   .     D
C558   C563    1.487   .     S
C558   O590    1.399   .     S
C558   O589    1.223   .     D
C559   O592    1.395   .     S
C559   C564    1.493   .     S
C559   O591    1.224   .     D
C560   O593    1.223   .     D
C560   C565    1.494   .     S
C560   O594    1.396   .     S
C561   O595    1.222   .     D
C561   O596    1.398   .     S
C561   C566    1.476   .     S
C562   C567    1.478   .     S
C562   O599    1.398   .     S
C562   O597    1.223   .     D
C563   C1240   1.394   .     S
C565   C568    1.409   .     A
C565   C643    1.394   .     S
C566   C568    1.415   .     A
C566   C640    1.394   .     S
H574   O594    1.013   .     S
H575   O596    1.013   .     S
H576   O599    1.012   .     S
H582   O588    1.014   .     S
H583   O590    1.014   .     S
H584   O592    1.013   .     S
N585   Zn607   2.006   .     S
N586   Zn608   2.006   .     S
O587   Zn607   1.975   .     S
O598   Zn608   1.975   .     S
O600   Zn607   1.966   .     S
O601   Zn608   1.966   .     S
O602   Zn607   2.019   .     S
O603   Zn608   2.019   .     S
O604   Zn607   2.026   .     S
O605   Zn608   2.026   .     S
C609   C610    1.457   .     S
C609   O677    1.292   .     A
C609   O663    1.284   .     A
C610   C643    1.417   .     A
C610   C640    1.411   .     A
C611   N662    1.366   .     A
C611   H654    1.081   .     S
C612   N661    1.366   .     A
C612   H655    1.081   .     S
C612   C157    1.414   1_565 S
C613   H656    1.081   .     S
C613   N662    1.366   .     A
C614   N661    1.366   .     A
C614   H657    1.080   .     S
C614   C155    1.413   1_565 S
C615   O678    1.288   .     A
C615   O681    1.285   .     A
C615   C621    1.441   .     S
C616   O680    1.285   .     A
C616   O679    1.288   .     A
C616   C619    1.439   .     S
C617   C628    1.389   .     A
C617   C619    1.391   .     A
C617   H649    1.081   .     S
C618   C629    1.389   .     A
C618   H653    1.080   .     S
C618   C621    1.391   .     A
C619   C622    1.396   .     A
C620   O676    1.292   .     A
C620   C644    1.457   .     S
C620   O674    1.285   .     A
C621   C623    1.397   .     A
C622   C624    1.391   .     A
C622   F645    1.361   .     S
C623   F646    1.361   .     S
C623   C625    1.392   .     A
C624   C630    1.405   .     A
C624   C626    1.417   .     A
C625   C627    1.417   .     A
C625   C632    1.405   .     A
C626   C628    1.419   .     A
C626   C1311   1.396   .     S
C627   C629    1.419   .     A
C627   C1310   1.396   1_554 S
C628   C639    1.415   .     A
C629   C631    1.415   .     A
C630   F647    1.361   .     S
C630   C1315   1.394   .     S
C631   C633    1.487   .     S
C631   C1314   1.394   1_554 S
C632   F648    1.361   .     S
C632   C1323   1.394   1_554 S
C633   O664    1.399   .     S
C633   O682    1.223   .     D
C634   C639    1.487   .     S
C634   O666    1.399   .     S
C634   O665    1.223   .     D
C635   O668    1.395   .     S
C635   C640    1.493   .     S
C635   O667    1.224   .     D
C636   O669    1.223   .     D
C636   C641    1.494   .     S
C636   O670    1.396   .     S
C637   O671    1.222   .     D
C637   O672    1.398   .     S
C637   C642    1.476   .     S
C638   C643    1.478   .     S
C638   O675    1.398   .     S
C638   O673    1.223   .     D
C639   C1316   1.394   .     S
C641   C644    1.409   .     A
C641   C491    1.394   1_655 S
C642   C644    1.415   .     A
C642   C488    1.394   1_655 S
H650   O670    1.013   .     S
H651   O672    1.013   .     S
H652   O675    1.012   .     S
H658   O664    1.014   .     S
H659   O666    1.014   .     S
H660   O668    1.013   .     S
N661   Zn683   2.006   .     S
N662   Zn684   2.006   .     S
O663   Zn683   1.975   .     S
O674   Zn684   1.975   .     S
O676   Zn683   1.966   .     S
O677   Zn684   1.966   .     S
O678   Zn683   2.019   .     S
O679   Zn684   2.019   .     S
O680   Zn683   2.026   .     S
O681   Zn684   2.026   .     S
C685   C686    1.457   .     S
C685   O753    1.292   .     A
C685   O739    1.284   .     A
C686   C719    1.417   .     A
C686   C716    1.411   .     A
C687   N738    1.366   .     A
C687   H730    1.081   .     S
C687   C1146   1.413   1_545 S
C688   N737    1.366   .     A
C688   H731    1.081   .     S
C688   C917    1.414   .     S
C689   H732    1.081   .     S
C689   N738    1.366   .     A
C689   C1144   1.414   1_545 S
C690   N737    1.366   .     A
C690   H733    1.080   .     S
C690   C915    1.413   .     S
C691   O754    1.288   .     A
C691   O757    1.285   .     A
C691   C697    1.441   .     S
C692   O756    1.285   .     A
C692   O755    1.288   .     A
C692   C695    1.439   .     S
C693   C704    1.389   .     A
C693   C695    1.391   .     A
C693   H725    1.081   .     S
C694   C705    1.389   .     A
C694   H729    1.080   .     S
C694   C697    1.391   .     A
C695   C698    1.396   .     A
C696   O752    1.292   .     A
C696   C720    1.457   .     S
C696   O750    1.285   .     A
C697   C699    1.397   .     A
C698   C700    1.391   .     A
C698   F721    1.361   .     S
C699   F722    1.361   .     S
C699   C701    1.392   .     A
C700   C706    1.405   .     A
C700   C702    1.417   .     A
C701   C703    1.417   .     A
C701   C708    1.405   .     A
C702   C704    1.419   .     A
C702   C19     1.396   1_556 S
C703   C705    1.419   .     A
C704   C715    1.415   .     A
C705   C707    1.415   .     A
C706   F723    1.361   .     S
C706   C23     1.394   1_556 S
C707   C709    1.487   .     S
C708   F724    1.361   .     S
C709   O740    1.399   .     S
C709   O758    1.223   .     D
C710   C715    1.487   .     S
C710   O742    1.399   .     S
C710   O741    1.223   .     D
C711   O744    1.395   .     S
C711   C716    1.493   .     S
C711   O743    1.224   .     D
C712   O745    1.223   .     D
C712   C717    1.494   .     S
C712   O746    1.396   .     S
C713   O747    1.222   .     D
C713   O748    1.398   .     S
C713   C718    1.476   .     S
C714   C719    1.478   .     S
C714   O751    1.398   .     S
C714   O749    1.223   .     D
C715   C24     1.394   1_556 S
C716   C870    1.394   1_455 S
C717   C720    1.409   .     A
C717   C795    1.394   .     S
C718   C720    1.415   .     A
C718   C792    1.394   .     S
C719   C869    1.394   1_455 S
H726   O746    1.013   .     S
H727   O748    1.013   .     S
H728   O751    1.012   .     S
H734   O740    1.014   .     S
H735   O742    1.014   .     S
H736   O744    1.013   .     S
N737   Zn759   2.006   .     S
N738   Zn760   2.006   .     S
O739   Zn759   1.975   .     S
O750   Zn760   1.975   .     S
O752   Zn759   1.966   .     S
O753   Zn760   1.966   .     S
O754   Zn759   2.019   .     S
O755   Zn760   2.019   .     S
O756   Zn759   2.026   .     S
O757   Zn760   2.026   .     S
C761   C762    1.457   .     S
C761   O829    1.292   .     A
C761   O815    1.284   .     A
C762   C795    1.417   .     A
C762   C792    1.411   .     A
C763   N814    1.366   .     A
C763   H806    1.081   .     S
C763   C1222   1.413   1_545 S
C764   N813    1.366   .     A
C764   H807    1.081   .     S
C764   C993    1.414   .     S
C765   H808    1.081   .     S
C765   N814    1.366   .     A
C765   C1220   1.414   1_545 S
C766   N813    1.366   .     A
C766   H809    1.080   .     S
C766   C991    1.413   .     S
C767   O830    1.288   .     A
C767   O833    1.285   .     A
C767   C773    1.441   .     S
C768   O832    1.285   .     A
C768   O831    1.288   .     A
C768   C771    1.439   .     S
C769   C780    1.389   .     A
C769   C771    1.391   .     A
C769   H801    1.081   .     S
C770   C781    1.389   .     A
C770   H805    1.080   .     S
C770   C773    1.391   .     A
C771   C774    1.396   .     A
C772   O828    1.292   .     A
C772   C796    1.457   .     S
C772   O826    1.285   .     A
C773   C775    1.397   .     A
C774   C776    1.391   .     A
C774   F797    1.361   .     S
C775   F798    1.361   .     S
C775   C777    1.392   .     A
C776   C782    1.405   .     A
C776   C778    1.417   .     A
C777   C779    1.417   .     A
C777   C784    1.405   .     A
C778   C780    1.419   .     A
C778   C95     1.396   1_556 S
C779   C781    1.419   .     A
C780   C791    1.415   .     A
C781   C783    1.415   .     A
C782   F799    1.361   .     S
C782   C99     1.394   1_556 S
C783   C785    1.487   .     S
C784   F800    1.361   .     S
C785   O816    1.399   .     S
C785   O834    1.223   .     D
C786   C791    1.487   .     S
C786   O818    1.399   .     S
C786   O817    1.223   .     D
C787   O820    1.395   .     S
C787   C792    1.493   .     S
C787   O819    1.224   .     D
C788   O821    1.223   .     D
C788   C793    1.494   .     S
C788   O822    1.396   .     S
C789   O823    1.222   .     D
C789   O824    1.398   .     S
C789   C794    1.476   .     S
C790   C795    1.478   .     S
C790   O827    1.398   .     S
C790   O825    1.223   .     D
C791   C100    1.394   1_556 S
C793   C796    1.409   .     A
C793   C871    1.394   .     S
C794   C796    1.415   .     A
C794   C868    1.394   .     S
H802   O822    1.013   .     S
H803   O824    1.013   .     S
H804   O827    1.012   .     S
H810   O816    1.014   .     S
H811   O818    1.014   .     S
H812   O820    1.013   .     S
N813   Zn835   2.006   .     S
N814   Zn836   2.006   .     S
O815   Zn835   1.975   .     S
O826   Zn836   1.975   .     S
O828   Zn835   1.966   .     S
O829   Zn836   1.966   .     S
O830   Zn835   2.019   .     S
O831   Zn836   2.019   .     S
O832   Zn835   2.026   .     S
O833   Zn836   2.026   .     S
C837   C838    1.457   .     S
C837   O905    1.292   .     A
C837   O891    1.284   .     A
C838   C871    1.417   .     A
C838   C868    1.411   .     A
C839   N890    1.366   .     A
C839   H882    1.081   .     S
C839   C1298   1.413   1_545 S
C840   N889    1.366   .     A
C840   H883    1.081   .     S
C840   C1069   1.414   .     S
C841   H884    1.081   .     S
C841   N890    1.366   .     A
C841   C1296   1.414   1_545 S
C842   N889    1.366   .     A
C842   H885    1.080   .     S
C842   C1067   1.413   .     S
C843   O906    1.288   .     A
C843   O909    1.285   .     A
C843   C849    1.441   .     S
C844   O908    1.285   .     A
C844   O907    1.288   .     A
C844   C847    1.439   .     S
C845   C856    1.389   .     A
C845   C847    1.391   .     A
C845   H877    1.081   .     S
C846   C857    1.389   .     A
C846   H881    1.080   .     S
C846   C849    1.391   .     A
C847   C850    1.396   .     A
C848   O904    1.292   .     A
C848   C872    1.457   .     S
C848   O902    1.285   .     A
C849   C851    1.397   .     A
C850   C852    1.391   .     A
C850   F873    1.361   .     S
C851   F874    1.361   .     S
C851   C853    1.392   .     A
C852   C858    1.405   .     A
C852   C854    1.417   .     A
C853   C855    1.417   .     A
C853   C860    1.405   .     A
C854   C856    1.419   .     A
C854   C171    1.396   1_556 S
C855   C857    1.419   .     A
C856   C867    1.415   .     A
C857   C859    1.415   .     A
C858   F875    1.361   .     S
C858   C175    1.394   1_556 S
C859   C861    1.487   .     S
C860   F876    1.361   .     S
C861   O892    1.399   .     S
C861   O910    1.223   .     D
C862   C867    1.487   .     S
C862   O894    1.399   .     S
C862   O893    1.223   .     D
C863   O896    1.395   .     S
C863   C868    1.493   .     S
C863   O895    1.224   .     D
C864   O897    1.223   .     D
C864   C869    1.494   .     S
C864   O898    1.396   .     S
C865   O899    1.222   .     D
C865   O900    1.398   .     S
C865   C870    1.476   .     S
C866   C871    1.478   .     S
C866   O903    1.398   .     S
C866   O901    1.223   .     D
C867   C176    1.394   1_556 S
C869   C872    1.409   .     A
C869   C719    1.394   1_655 S
C870   C872    1.415   .     A
C870   C716    1.394   1_655 S
H878   O898    1.013   .     S
H879   O900    1.013   .     S
H880   O903    1.012   .     S
H886   O892    1.014   .     S
H887   O894    1.014   .     S
H888   O896    1.013   .     S
N889   Zn911   2.006   .     S
N890   Zn912   2.006   .     S
O891   Zn911   1.975   .     S
O902   Zn912   1.975   .     S
O904   Zn911   1.966   .     S
O905   Zn912   1.966   .     S
O906   Zn911   2.019   .     S
O907   Zn912   2.019   .     S
O908   Zn911   2.026   .     S
O909   Zn912   2.026   .     S
C913   C914    1.457   .     S
C913   O981    1.292   .     A
C913   O967    1.284   .     A
C914   C947    1.417   .     A
C914   C944    1.411   .     A
C915   N966    1.366   .     A
C915   H958    1.081   .     S
C916   N965    1.366   .     A
C916   H959    1.081   .     S
C916   C1145   1.414   .     S
C917   H960    1.081   .     S
C917   N966    1.366   .     A
C918   N965    1.366   .     A
C918   H961    1.080   .     S
C918   C1143   1.413   .     S
C919   O982    1.288   .     A
C919   O985    1.285   .     A
C919   C925    1.441   .     S
C920   O984    1.285   .     A
C920   O983    1.288   .     A
C920   C923    1.439   .     S
C921   C932    1.389   .     A
C921   C923    1.391   .     A
C921   H953    1.081   .     S
C922   C933    1.389   .     A
C922   H957    1.080   .     S
C922   C925    1.391   .     A
C923   C926    1.396   .     A
C924   O980    1.292   .     A
C924   C948    1.457   .     S
C924   O978    1.285   .     A
C925   C927    1.397   .     A
C926   C928    1.391   .     A
C926   F949    1.361   .     S
C927   F950    1.361   .     S
C927   C929    1.392   .     A
C928   C934    1.405   .     A
C928   C930    1.417   .     A
C929   C931    1.417   .     A
C929   C936    1.405   .     A
C930   C932    1.419   .     A
C930   C247    1.396   1_556 S
C931   C933    1.419   .     A
C932   C943    1.415   .     A
C933   C935    1.415   .     A
C934   F951    1.361   .     S
C934   C251    1.394   1_556 S
C935   C937    1.487   .     S
C936   F952    1.361   .     S
C937   O968    1.399   .     S
C937   O986    1.223   .     D
C938   C943    1.487   .     S
C938   O970    1.399   .     S
C938   O969    1.223   .     D
C939   O972    1.395   .     S
C939   C944    1.493   .     S
C939   O971    1.224   .     D
C940   O973    1.223   .     D
C940   C945    1.494   .     S
C940   O974    1.396   .     S
C941   O975    1.222   .     D
C941   O976    1.398   .     S
C941   C946    1.476   .     S
C942   C947    1.478   .     S
C942   O979    1.398   .     S
C942   O977    1.223   .     D
C943   C252    1.394   1_556 S
C944   C1098   1.394   1_455 S
C945   C948    1.409   .     A
C945   C1023   1.394   .     S
C946   C948    1.415   .     A
C946   C1020   1.394   .     S
C947   C1097   1.394   1_455 S
H954   O974    1.013   .     S
H955   O976    1.013   .     S
H956   O979    1.012   .     S
H962   O968    1.014   .     S
H963   O970    1.014   .     S
H964   O972    1.013   .     S
N965   Zn987   2.006   .     S
N966   Zn988   2.006   .     S
O967   Zn987   1.975   .     S
O978   Zn988   1.975   .     S
O980   Zn987   1.966   .     S
O981   Zn988   1.966   .     S
O982   Zn987   2.019   .     S
O983   Zn988   2.019   .     S
O984   Zn987   2.026   .     S
O985   Zn988   2.026   .     S
C989   C990    1.457   .     S
C989   O1057   1.292   .     A
C989   O1043   1.284   .     A
C990   C1023   1.417   .     A
C990   C1020   1.411   .     A
C991   N1042   1.366   .     A
C991   H1034   1.081   .     S
C992   N1041   1.366   .     A
C992   H1035   1.081   .     S
C992   C1221   1.414   .     S
C993   H1036   1.081   .     S
C993   N1042   1.366   .     A
C994   N1041   1.366   .     A
C994   H1037   1.080   .     S
C994   C1219   1.413   .     S
C995   O1058   1.288   .     A
C995   O1061   1.285   .     A
C995   C1001   1.441   .     S
C996   O1060   1.285   .     A
C996   O1059   1.288   .     A
C996   C999    1.439   .     S
C997   C1008   1.389   .     A
C997   C999    1.391   .     A
C997   H1029   1.081   .     S
C998   C1009   1.389   .     A
C998   H1033   1.080   .     S
C998   C1001   1.391   .     A
C999   C1002   1.396   .     A
C1000  O1056   1.292   .     A
C1000  C1024   1.457   .     S
C1000  O1054   1.285   .     A
C1001  C1003   1.397   .     A
C1002  C1004   1.391   .     A
C1002  F1025   1.361   .     S
C1003  F1026   1.361   .     S
C1003  C1005   1.392   .     A
C1004  C1010   1.405   .     A
C1004  C1006   1.417   .     A
C1005  C1007   1.417   .     A
C1005  C1012   1.405   .     A
C1006  C1008   1.419   .     A
C1006  C323    1.396   1_556 S
C1007  C1009   1.419   .     A
C1008  C1019   1.415   .     A
C1009  C1011   1.415   .     A
C1010  F1027   1.361   .     S
C1010  C327    1.394   1_556 S
C1011  C1013   1.487   .     S
C1012  F1028   1.361   .     S
C1013  O1044   1.399   .     S
C1013  O1062   1.223   .     D
C1014  C1019   1.487   .     S
C1014  O1046   1.399   .     S
C1014  O1045   1.223   .     D
C1015  O1048   1.395   .     S
C1015  C1020   1.493   .     S
C1015  O1047   1.224   .     D
C1016  O1049   1.223   .     D
C1016  C1021   1.494   .     S
C1016  O1050   1.396   .     S
C1017  O1051   1.222   .     D
C1017  O1052   1.398   .     S
C1017  C1022   1.476   .     S
C1018  C1023   1.478   .     S
C1018  O1055   1.398   .     S
C1018  O1053   1.223   .     D
C1019  C328    1.394   1_556 S
C1021  C1024   1.409   .     A
C1021  C1099   1.394   .     S
C1022  C1024   1.415   .     A
C1022  C1096   1.394   .     S
H1030  O1050   1.013   .     S
H1031  O1052   1.013   .     S
H1032  O1055   1.012   .     S
H1038  O1044   1.014   .     S
H1039  O1046   1.014   .     S
H1040  O1048   1.013   .     S
N1041  Zn1063  2.006   .     S
N1042  Zn1064  2.006   .     S
O1043  Zn1063  1.975   .     S
O1054  Zn1064  1.975   .     S
O1056  Zn1063  1.966   .     S
O1057  Zn1064  1.966   .     S
O1058  Zn1063  2.019   .     S
O1059  Zn1064  2.019   .     S
O1060  Zn1063  2.026   .     S
O1061  Zn1064  2.026   .     S
C1065  C1066   1.457   .     S
C1065  O1133   1.292   .     A
C1065  O1119   1.284   .     A
C1066  C1099   1.417   .     A
C1066  C1096   1.411   .     A
C1067  N1118   1.366   .     A
C1067  H1110   1.081   .     S
C1068  N1117   1.366   .     A
C1068  H1111   1.081   .     S
C1068  C1297   1.414   .     S
C1069  H1112   1.081   .     S
C1069  N1118   1.366   .     A
C1070  N1117   1.366   .     A
C1070  H1113   1.080   .     S
C1070  C1295   1.413   .     S
C1071  O1134   1.288   .     A
C1071  O1137   1.285   .     A
C1071  C1077   1.441   .     S
C1072  O1136   1.285   .     A
C1072  O1135   1.288   .     A
C1072  C1075   1.439   .     S
C1073  C1084   1.389   .     A
C1073  C1075   1.391   .     A
C1073  H1105   1.081   .     S
C1074  C1085   1.389   .     A
C1074  H1109   1.080   .     S
C1074  C1077   1.391   .     A
C1075  C1078   1.396   .     A
C1076  O1132   1.292   .     A
C1076  C1100   1.457   .     S
C1076  O1130   1.285   .     A
C1077  C1079   1.397   .     A
C1078  C1080   1.391   .     A
C1078  F1101   1.361   .     S
C1079  F1102   1.361   .     S
C1079  C1081   1.392   .     A
C1080  C1086   1.405   .     A
C1080  C1082   1.417   .     A
C1081  C1083   1.417   .     A
C1081  C1088   1.405   .     A
C1082  C1084   1.419   .     A
C1082  C399    1.396   1_556 S
C1083  C1085   1.419   .     A
C1084  C1095   1.415   .     A
C1085  C1087   1.415   .     A
C1086  F1103   1.361   .     S
C1086  C403    1.394   1_556 S
C1087  C1089   1.487   .     S
C1088  F1104   1.361   .     S
C1089  O1120   1.399   .     S
C1089  O1138   1.223   .     D
C1090  C1095   1.487   .     S
C1090  O1122   1.399   .     S
C1090  O1121   1.223   .     D
C1091  O1124   1.395   .     S
C1091  C1096   1.493   .     S
C1091  O1123   1.224   .     D
C1092  O1125   1.223   .     D
C1092  C1097   1.494   .     S
C1092  O1126   1.396   .     S
C1093  O1127   1.222   .     D
C1093  O1128   1.398   .     S
C1093  C1098   1.476   .     S
C1094  C1099   1.478   .     S
C1094  O1131   1.398   .     S
C1094  O1129   1.223   .     D
C1095  C404    1.394   1_556 S
C1097  C1100   1.409   .     A
C1097  C947    1.394   1_655 S
C1098  C1100   1.415   .     A
C1098  C944    1.394   1_655 S
H1106  O1126   1.013   .     S
H1107  O1128   1.013   .     S
H1108  O1131   1.012   .     S
H1114  O1120   1.014   .     S
H1115  O1122   1.014   .     S
H1116  O1124   1.013   .     S
N1117  Zn1139  2.006   .     S
N1118  Zn1140  2.006   .     S
O1119  Zn1139  1.975   .     S
O1130  Zn1140  1.975   .     S
O1132  Zn1139  1.966   .     S
O1133  Zn1140  1.966   .     S
O1134  Zn1139  2.019   .     S
O1135  Zn1140  2.019   .     S
O1136  Zn1139  2.026   .     S
O1137  Zn1140  2.026   .     S
C1141  C1142   1.457   .     S
C1141  O1209   1.292   .     A
C1141  O1195   1.284   .     A
C1142  C1175   1.417   .     A
C1142  C1172   1.411   .     A
C1143  N1194   1.366   .     A
C1143  H1186   1.081   .     S
C1144  N1193   1.366   .     A
C1144  H1187   1.081   .     S
C1144  C689    1.414   1_565 S
C1145  H1188   1.081   .     S
C1145  N1194   1.366   .     A
C1146  N1193   1.366   .     A
C1146  H1189   1.080   .     S
C1146  C687    1.413   1_565 S
C1147  O1210   1.288   .     A
C1147  O1213   1.285   .     A
C1147  C1153   1.441   .     S
C1148  O1212   1.285   .     A
C1148  O1211   1.288   .     A
C1148  C1151   1.439   .     S
C1149  C1160   1.389   .     A
C1149  C1151   1.391   .     A
C1149  H1181   1.081   .     S
C1150  C1161   1.389   .     A
C1150  H1185   1.080   .     S
C1150  C1153   1.391   .     A
C1151  C1154   1.396   .     A
C1152  O1208   1.292   .     A
C1152  C1176   1.457   .     S
C1152  O1206   1.285   .     A
C1153  C1155   1.397   .     A
C1154  C1156   1.391   .     A
C1154  F1177   1.361   .     S
C1155  F1178   1.361   .     S
C1155  C1157   1.392   .     A
C1156  C1162   1.405   .     A
C1156  C1158   1.417   .     A
C1157  C1159   1.417   .     A
C1157  C1164   1.405   .     A
C1158  C1160   1.419   .     A
C1158  C475    1.396   1_556 S
C1159  C1161   1.419   .     A
C1160  C1171   1.415   .     A
C1161  C1163   1.415   .     A
C1162  F1179   1.361   .     S
C1162  C479    1.394   1_556 S
C1163  C1165   1.487   .     S
C1164  F1180   1.361   .     S
C1165  O1196   1.399   .     S
C1165  O1214   1.223   .     D
C1166  C1171   1.487   .     S
C1166  O1198   1.399   .     S
C1166  O1197   1.223   .     D
C1167  O1200   1.395   .     S
C1167  C1172   1.493   .     S
C1167  O1199   1.224   .     D
C1168  O1201   1.223   .     D
C1168  C1173   1.494   .     S
C1168  O1202   1.396   .     S
C1169  O1203   1.222   .     D
C1169  O1204   1.398   .     S
C1169  C1174   1.476   .     S
C1170  C1175   1.478   .     S
C1170  O1207   1.398   .     S
C1170  O1205   1.223   .     D
C1171  C480    1.394   1_556 S
C1172  C1326   1.394   1_455 S
C1173  C1176   1.409   .     A
C1173  C1251   1.394   .     S
C1174  C1176   1.415   .     A
C1174  C1248   1.394   .     S
C1175  C1325   1.394   1_455 S
H1182  O1202   1.013   .     S
H1183  O1204   1.013   .     S
H1184  O1207   1.012   .     S
H1190  O1196   1.014   .     S
H1191  O1198   1.014   .     S
H1192  O1200   1.013   .     S
N1193  Zn1215  2.006   .     S
N1194  Zn1216  2.006   .     S
O1195  Zn1215  1.975   .     S
O1206  Zn1216  1.975   .     S
O1208  Zn1215  1.966   .     S
O1209  Zn1216  1.966   .     S
O1210  Zn1215  2.019   .     S
O1211  Zn1216  2.019   .     S
O1212  Zn1215  2.026   .     S
O1213  Zn1216  2.026   .     S
C1217  C1218   1.457   .     S
C1217  O1285   1.292   .     A
C1217  O1271   1.284   .     A
C1218  C1251   1.417   .     A
C1218  C1248   1.411   .     A
C1219  N1270   1.366   .     A
C1219  H1262   1.081   .     S
C1220  N1269   1.366   .     A
C1220  H1263   1.081   .     S
C1220  C765    1.414   1_565 S
C1221  H1264   1.081   .     S
C1221  N1270   1.366   .     A
C1222  N1269   1.366   .     A
C1222  H1265   1.080   .     S
C1222  C763    1.413   1_565 S
C1223  O1286   1.288   .     A
C1223  O1289   1.285   .     A
C1223  C1229   1.441   .     S
C1224  O1288   1.285   .     A
C1224  O1287   1.288   .     A
C1224  C1227   1.439   .     S
C1225  C1236   1.389   .     A
C1225  C1227   1.391   .     A
C1225  H1257   1.081   .     S
C1226  C1237   1.389   .     A
C1226  H1261   1.080   .     S
C1226  C1229   1.391   .     A
C1227  C1230   1.396   .     A
C1228  O1284   1.292   .     A
C1228  C1252   1.457   .     S
C1228  O1282   1.285   .     A
C1229  C1231   1.397   .     A
C1230  C1232   1.391   .     A
C1230  F1253   1.361   .     S
C1231  F1254   1.361   .     S
C1231  C1233   1.392   .     A
C1232  C1238   1.405   .     A
C1232  C1234   1.417   .     A
C1233  C1235   1.417   .     A
C1233  C1240   1.405   .     A
C1234  C1236   1.419   .     A
C1234  C551    1.396   1_556 S
C1235  C1237   1.419   .     A
C1236  C1247   1.415   .     A
C1237  C1239   1.415   .     A
C1238  F1255   1.361   .     S
C1238  C555    1.394   1_556 S
C1239  C1241   1.487   .     S
C1240  F1256   1.361   .     S
C1241  O1272   1.399   .     S
C1241  O1290   1.223   .     D
C1242  C1247   1.487   .     S
C1242  O1274   1.399   .     S
C1242  O1273   1.223   .     D
C1243  O1276   1.395   .     S
C1243  C1248   1.493   .     S
C1243  O1275   1.224   .     D
C1244  O1277   1.223   .     D
C1244  C1249   1.494   .     S
C1244  O1278   1.396   .     S
C1245  O1279   1.222   .     D
C1245  O1280   1.398   .     S
C1245  C1250   1.476   .     S
C1246  C1251   1.478   .     S
C1246  O1283   1.398   .     S
C1246  O1281   1.223   .     D
C1247  C556    1.394   1_556 S
C1249  C1252   1.409   .     A
C1249  C1327   1.394   .     S
C1250  C1252   1.415   .     A
C1250  C1324   1.394   .     S
H1258  O1278   1.013   .     S
H1259  O1280   1.013   .     S
H1260  O1283   1.012   .     S
H1266  O1272   1.014   .     S
H1267  O1274   1.014   .     S
H1268  O1276   1.013   .     S
N1269  Zn1291  2.006   .     S
N1270  Zn1292  2.006   .     S
O1271  Zn1291  1.975   .     S
O1282  Zn1292  1.975   .     S
O1284  Zn1291  1.966   .     S
O1285  Zn1292  1.966   .     S
O1286  Zn1291  2.019   .     S
O1287  Zn1292  2.019   .     S
O1288  Zn1291  2.026   .     S
O1289  Zn1292  2.026   .     S
C1293  C1294   1.457   .     S
C1293  O1361   1.292   .     A
C1293  O1347   1.284   .     A
C1294  C1327   1.417   .     A
C1294  C1324   1.411   .     A
C1295  N1346   1.366   .     A
C1295  H1338   1.081   .     S
C1296  N1345   1.366   .     A
C1296  H1339   1.081   .     S
C1296  C841    1.414   1_565 S
C1297  H1340   1.081   .     S
C1297  N1346   1.366   .     A
C1298  N1345   1.366   .     A
C1298  H1341   1.080   .     S
C1298  C839    1.413   1_565 S
C1299  O1362   1.288   .     A
C1299  O1365   1.285   .     A
C1299  C1305   1.441   .     S
C1300  O1364   1.285   .     A
C1300  O1363   1.288   .     A
C1300  C1303   1.439   .     S
C1301  C1312   1.389   .     A
C1301  C1303   1.391   .     A
C1301  H1333   1.081   .     S
C1302  C1313   1.389   .     A
C1302  H1337   1.080   .     S
C1302  C1305   1.391   .     A
C1303  C1306   1.396   .     A
C1304  O1360   1.292   .     A
C1304  C1328   1.457   .     S
C1304  O1358   1.285   .     A
C1305  C1307   1.397   .     A
C1306  C1308   1.391   .     A
C1306  F1329   1.361   .     S
C1307  F1330   1.361   .     S
C1307  C1309   1.392   .     A
C1308  C1314   1.405   .     A
C1308  C1310   1.417   .     A
C1309  C1311   1.417   .     A
C1309  C1316   1.405   .     A
C1310  C1312   1.419   .     A
C1310  C627    1.396   1_556 S
C1311  C1313   1.419   .     A
C1312  C1323   1.415   .     A
C1313  C1315   1.415   .     A
C1314  F1331   1.361   .     S
C1314  C631    1.394   1_556 S
C1315  C1317   1.487   .     S
C1316  F1332   1.361   .     S
C1317  O1348   1.399   .     S
C1317  O1366   1.223   .     D
C1318  C1323   1.487   .     S
C1318  O1350   1.399   .     S
C1318  O1349   1.223   .     D
C1319  O1352   1.395   .     S
C1319  C1324   1.493   .     S
C1319  O1351   1.224   .     D
C1320  O1353   1.223   .     D
C1320  C1325   1.494   .     S
C1320  O1354   1.396   .     S
C1321  O1355   1.222   .     D
C1321  O1356   1.398   .     S
C1321  C1326   1.476   .     S
C1322  C1327   1.478   .     S
C1322  O1359   1.398   .     S
C1322  O1357   1.223   .     D
C1323  C632    1.394   1_556 S
C1325  C1328   1.409   .     A
C1325  C1175   1.394   1_655 S
C1326  C1328   1.415   .     A
C1326  C1172   1.394   1_655 S
H1334  O1354   1.013   .     S
H1335  O1356   1.013   .     S
H1336  O1359   1.012   .     S
H1342  O1348   1.014   .     S
H1343  O1350   1.014   .     S
H1344  O1352   1.013   .     S
N1345  Zn1367  2.006   .     S
N1346  Zn1368  2.006   .     S
O1347  Zn1367  1.975   .     S
O1358  Zn1368  1.975   .     S
O1360  Zn1367  1.966   .     S
O1361  Zn1368  1.966   .     S
O1362  Zn1367  2.019   .     S
O1363  Zn1368  2.019   .     S
O1364  Zn1367  2.026   .     S
O1365  Zn1368  2.026   .     S
