data_str_m3_o5_o17_pcu_sym.34
_audit_creation_date              2020-01-03
_audit_creation_method            'Materials Studio'
_symmetry_space_group_name_H-M    'P1'
_symmetry_Int_Tables_number       1
_symmetry_cell_setting            triclinic
loop_
_symmetry_equiv_pos_as_xyz
  x,y,z
_cell_length_a                    29.9219
_cell_length_b                    26.7436
_cell_length_c                    24.3597
_cell_angle_alpha                 89.8603
_cell_angle_beta                  90.1121
_cell_angle_gamma                 89.9719
loop_
_atom_site_label
_atom_site_type_symbol
_atom_site_fract_x
_atom_site_fract_y
_atom_site_fract_z
_atom_site_U_iso_or_equiv
_atom_site_adp_type
_atom_site_occupancy
O1     O     0.25000   0.09512   0.21228   0.00000  Uiso   1.00
O2     O     0.25000   0.23822   0.12105   0.00000  Uiso   1.00
O3     O     0.25000   0.23822   0.21228   0.00000  Uiso   1.00
O4     O     0.25000   0.09512   0.12105   0.00000  Uiso   1.00
C5     C     0.24994   0.07269   0.16671   0.00000  Uiso   1.00
C6     C     0.25010   0.26064   0.16663   0.00000  Uiso   1.00
O7     O     0.18392   0.16667   0.21230   0.00000  Uiso   1.00
O8     O     0.31607   0.16667   0.12104   0.00000  Uiso   1.00
O9     O     0.31607   0.16667   0.21230   0.00000  Uiso   1.00
O10    O     0.18392   0.16667   0.12104   0.00000  Uiso   1.00
C11    C     0.16342   0.16689   0.16658   0.00000  Uiso   1.00
C12    C     0.33661   0.16657   0.16669   0.00000  Uiso   1.00
Zn13   Zn    0.25000   0.16667   0.22759   0.00000  Uiso   1.00
Zn14   Zn    0.25000   0.16667   0.10574   0.00000  Uiso   1.00
N15    N     0.25000   0.16667   0.02455   0.00000  Uiso   1.00
N16    N     0.25000   0.16667   0.30879   0.00000  Uiso   1.00
C17    C     0.40612   0.20955   0.18266   0.00000  Uiso   1.00
C18    C     0.09341   0.12391   0.15712   0.00000  Uiso   1.00
C19    C     0.40715   0.12363   0.14789   0.00000  Uiso   1.00
C20    C     0.09346   0.21423   0.17359   0.00000  Uiso   1.00
C21    C     0.38426   0.16612   0.16642   0.00000  Uiso   1.00
C22    C     0.11588   0.16864   0.16593   0.00000  Uiso   1.00
C23    C     0.45366   0.12601   0.14243   0.00000  Uiso   1.00
C24    C     0.04669   0.21366   0.17723   0.00000  Uiso   1.00
C25    C     0.45280   0.21250   0.17802   0.00000  Uiso   1.00
C26    C     0.04704   0.12496   0.14899   0.00000  Uiso   1.00
C27    C     0.47663   0.16937   0.16083   0.00000  Uiso   1.00
C28    C     0.02343   0.16944   0.16210   0.00000  Uiso   1.00
C29    C     0.47793   0.08550   0.11991   0.00000  Uiso   1.00
C30    C     0.02258   0.25706   0.19246   0.00000  Uiso   1.00
C31    C     0.47583   0.25743   0.18933   0.00000  Uiso   1.00
C32    C     0.02448   0.08376   0.12574   0.00000  Uiso   1.00
C33    C     0.24999   0.02175   0.16673   0.00000  Uiso   1.00
C34    C     0.25004   0.31159   0.16661   0.00000  Uiso   1.00
O35    O     0.45741   0.04830   0.08989   0.00000  Uiso   1.00
H36    H     0.43568   0.06469   0.06484   0.00000  Uiso   1.00
O37    O     0.04354   0.29886   0.21324   0.00000  Uiso   1.00
H38    H     0.06398   0.28723   0.24273   0.00000  Uiso   1.00
O39    O     0.45201   0.30129   0.19705   0.00000  Uiso   1.00
H40    H     0.47244   0.33038   0.19850   0.00000  Uiso   1.00
O41    O     0.04894   0.04450   0.10407   0.00000  Uiso   1.00
H42    H     0.02908   0.01601   0.09532   0.00000  Uiso   1.00
O43    O     0.38081   0.24786   0.20429   0.00000  Uiso   1.00
H44    H     0.39390   0.25586   0.24067   0.00000  Uiso   1.00
O45    O     0.11790   0.08009   0.15645   0.00000  Uiso   1.00
H46    H     0.10065   0.05459   0.17707   0.00000  Uiso   1.00
O47    O     0.38541   0.07863   0.13842   0.00000  Uiso   1.00
H48    H     0.35515   0.07879   0.15466   0.00000  Uiso   1.00
O49    O     0.11598   0.25952   0.17604   0.00000  Uiso   1.00
H50    H     0.14763   0.25567   0.16531   0.00000  Uiso   1.00
O51    O     0.75000   0.09512   0.21228   0.00000  Uiso   1.00
O52    O     0.75000   0.23822   0.12105   0.00000  Uiso   1.00
O53    O     0.75000   0.23822   0.21228   0.00000  Uiso   1.00
O54    O     0.75000   0.09512   0.12105   0.00000  Uiso   1.00
C55    C     0.74994   0.07269   0.16671   0.00000  Uiso   1.00
C56    C     0.75010   0.26064   0.16663   0.00000  Uiso   1.00
O57    O     0.68392   0.16667   0.21230   0.00000  Uiso   1.00
O58    O     0.81607   0.16667   0.12104   0.00000  Uiso   1.00
O59    O     0.81607   0.16667   0.21230   0.00000  Uiso   1.00
O60    O     0.68392   0.16667   0.12104   0.00000  Uiso   1.00
C61    C     0.66342   0.16689   0.16658   0.00000  Uiso   1.00
C62    C     0.83661   0.16657   0.16669   0.00000  Uiso   1.00
Zn63   Zn    0.75000   0.16667   0.22759   0.00000  Uiso   1.00
Zn64   Zn    0.75000   0.16667   0.10574   0.00000  Uiso   1.00
N65    N     0.75000   0.16667   0.02455   0.00000  Uiso   1.00
N66    N     0.75000   0.16667   0.30879   0.00000  Uiso   1.00
C67    C     0.90612   0.20955   0.18266   0.00000  Uiso   1.00
C68    C     0.59341   0.12391   0.15712   0.00000  Uiso   1.00
C69    C     0.90715   0.12363   0.14789   0.00000  Uiso   1.00
C70    C     0.59346   0.21423   0.17359   0.00000  Uiso   1.00
C71    C     0.88426   0.16612   0.16642   0.00000  Uiso   1.00
C72    C     0.61588   0.16864   0.16593   0.00000  Uiso   1.00
C73    C     0.95366   0.12601   0.14243   0.00000  Uiso   1.00
C74    C     0.54669   0.21366   0.17723   0.00000  Uiso   1.00
C75    C     0.95280   0.21250   0.17802   0.00000  Uiso   1.00
C76    C     0.54704   0.12496   0.14899   0.00000  Uiso   1.00
C77    C     0.97663   0.16937   0.16083   0.00000  Uiso   1.00
C78    C     0.52343   0.16944   0.16210   0.00000  Uiso   1.00
C79    C     0.97793   0.08550   0.11991   0.00000  Uiso   1.00
C80    C     0.52258   0.25706   0.19246   0.00000  Uiso   1.00
C81    C     0.97583   0.25743   0.18933   0.00000  Uiso   1.00
C82    C     0.52448   0.08376   0.12574   0.00000  Uiso   1.00
C83    C     0.74999   0.02175   0.16673   0.00000  Uiso   1.00
C84    C     0.75004   0.31159   0.16661   0.00000  Uiso   1.00
O85    O     0.95741   0.04830   0.08989   0.00000  Uiso   1.00
H86    H     0.93568   0.06469   0.06484   0.00000  Uiso   1.00
O87    O     0.54354   0.29886   0.21324   0.00000  Uiso   1.00
H88    H     0.56398   0.28723   0.24273   0.00000  Uiso   1.00
O89    O     0.95201   0.30129   0.19705   0.00000  Uiso   1.00
H90    H     0.97244   0.33038   0.19850   0.00000  Uiso   1.00
O91    O     0.54894   0.04450   0.10407   0.00000  Uiso   1.00
H92    H     0.52908   0.01601   0.09532   0.00000  Uiso   1.00
O93    O     0.88081   0.24786   0.20429   0.00000  Uiso   1.00
H94    H     0.89390   0.25586   0.24067   0.00000  Uiso   1.00
O95    O     0.61790   0.08009   0.15645   0.00000  Uiso   1.00
H96    H     0.60065   0.05459   0.17707   0.00000  Uiso   1.00
O97    O     0.88541   0.07863   0.13842   0.00000  Uiso   1.00
H98    H     0.85515   0.07879   0.15466   0.00000  Uiso   1.00
O99    O     0.61598   0.25952   0.17604   0.00000  Uiso   1.00
H100   H     0.64763   0.25567   0.16531   0.00000  Uiso   1.00
O101   O     0.25000   0.42845   0.21228   0.00000  Uiso   1.00
O102   O     0.25000   0.57155   0.12105   0.00000  Uiso   1.00
O103   O     0.25000   0.57155   0.21228   0.00000  Uiso   1.00
O104   O     0.25000   0.42845   0.12105   0.00000  Uiso   1.00
C105   C     0.24994   0.40603   0.16671   0.00000  Uiso   1.00
C106   C     0.25010   0.59397   0.16663   0.00000  Uiso   1.00
O107   O     0.18392   0.50000   0.21230   0.00000  Uiso   1.00
O108   O     0.31607   0.50000   0.12104   0.00000  Uiso   1.00
O109   O     0.31607   0.50000   0.21230   0.00000  Uiso   1.00
O110   O     0.18392   0.50000   0.12104   0.00000  Uiso   1.00
C111   C     0.16342   0.50022   0.16658   0.00000  Uiso   1.00
C112   C     0.33661   0.49990   0.16669   0.00000  Uiso   1.00
Zn113  Zn    0.25000   0.50000   0.22759   0.00000  Uiso   1.00
Zn114  Zn    0.25000   0.50000   0.10574   0.00000  Uiso   1.00
N115   N     0.25000   0.50000   0.02455   0.00000  Uiso   1.00
N116   N     0.25000   0.50000   0.30879   0.00000  Uiso   1.00
C117   C     0.40612   0.54288   0.18266   0.00000  Uiso   1.00
C118   C     0.09341   0.45724   0.15712   0.00000  Uiso   1.00
C119   C     0.40715   0.45696   0.14789   0.00000  Uiso   1.00
C120   C     0.09346   0.54757   0.17359   0.00000  Uiso   1.00
C121   C     0.38426   0.49945   0.16642   0.00000  Uiso   1.00
C122   C     0.11588   0.50197   0.16593   0.00000  Uiso   1.00
C123   C     0.45366   0.45935   0.14243   0.00000  Uiso   1.00
C124   C     0.04669   0.54700   0.17723   0.00000  Uiso   1.00
C125   C     0.45280   0.54583   0.17802   0.00000  Uiso   1.00
C126   C     0.04704   0.45829   0.14899   0.00000  Uiso   1.00
C127   C     0.47663   0.50270   0.16083   0.00000  Uiso   1.00
C128   C     0.02343   0.50277   0.16210   0.00000  Uiso   1.00
C129   C     0.47793   0.41883   0.11991   0.00000  Uiso   1.00
C130   C     0.02258   0.59040   0.19246   0.00000  Uiso   1.00
C131   C     0.47583   0.59076   0.18933   0.00000  Uiso   1.00
C132   C     0.02448   0.41710   0.12574   0.00000  Uiso   1.00
C133   C     0.24999   0.35508   0.16673   0.00000  Uiso   1.00
C134   C     0.25004   0.64492   0.16661   0.00000  Uiso   1.00
O135   O     0.45741   0.38164   0.08989   0.00000  Uiso   1.00
H136   H     0.43568   0.39802   0.06484   0.00000  Uiso   1.00
O137   O     0.04354   0.63220   0.21324   0.00000  Uiso   1.00
H138   H     0.06398   0.62056   0.24273   0.00000  Uiso   1.00
O139   O     0.45201   0.63463   0.19705   0.00000  Uiso   1.00
H140   H     0.47244   0.66371   0.19850   0.00000  Uiso   1.00
O141   O     0.04894   0.37784   0.10407   0.00000  Uiso   1.00
H142   H     0.02908   0.34934   0.09532   0.00000  Uiso   1.00
O143   O     0.38081   0.58119   0.20429   0.00000  Uiso   1.00
H144   H     0.39390   0.58919   0.24067   0.00000  Uiso   1.00
O145   O     0.11790   0.41342   0.15645   0.00000  Uiso   1.00
H146   H     0.10065   0.38792   0.17707   0.00000  Uiso   1.00
O147   O     0.38541   0.41196   0.13842   0.00000  Uiso   1.00
H148   H     0.35515   0.41213   0.15466   0.00000  Uiso   1.00
O149   O     0.11598   0.59286   0.17604   0.00000  Uiso   1.00
H150   H     0.14763   0.58900   0.16531   0.00000  Uiso   1.00
O151   O     0.75000   0.42845   0.21228   0.00000  Uiso   1.00
O152   O     0.75000   0.57155   0.12105   0.00000  Uiso   1.00
O153   O     0.75000   0.57155   0.21228   0.00000  Uiso   1.00
O154   O     0.75000   0.42845   0.12105   0.00000  Uiso   1.00
C155   C     0.74994   0.40603   0.16671   0.00000  Uiso   1.00
C156   C     0.75010   0.59397   0.16663   0.00000  Uiso   1.00
O157   O     0.68392   0.50000   0.21230   0.00000  Uiso   1.00
O158   O     0.81607   0.50000   0.12104   0.00000  Uiso   1.00
O159   O     0.81607   0.50000   0.21230   0.00000  Uiso   1.00
O160   O     0.68392   0.50000   0.12104   0.00000  Uiso   1.00
C161   C     0.66342   0.50022   0.16658   0.00000  Uiso   1.00
C162   C     0.83661   0.49990   0.16669   0.00000  Uiso   1.00
Zn163  Zn    0.75000   0.50000   0.22759   0.00000  Uiso   1.00
Zn164  Zn    0.75000   0.50000   0.10574   0.00000  Uiso   1.00
N165   N     0.75000   0.50000   0.02455   0.00000  Uiso   1.00
N166   N     0.75000   0.50000   0.30879   0.00000  Uiso   1.00
C167   C     0.90612   0.54288   0.18266   0.00000  Uiso   1.00
C168   C     0.59341   0.45724   0.15712   0.00000  Uiso   1.00
C169   C     0.90715   0.45696   0.14789   0.00000  Uiso   1.00
C170   C     0.59346   0.54757   0.17359   0.00000  Uiso   1.00
C171   C     0.88426   0.49945   0.16642   0.00000  Uiso   1.00
C172   C     0.61588   0.50197   0.16593   0.00000  Uiso   1.00
C173   C     0.95366   0.45935   0.14243   0.00000  Uiso   1.00
C174   C     0.54669   0.54700   0.17723   0.00000  Uiso   1.00
C175   C     0.95280   0.54583   0.17802   0.00000  Uiso   1.00
C176   C     0.54704   0.45829   0.14899   0.00000  Uiso   1.00
C177   C     0.97663   0.50270   0.16083   0.00000  Uiso   1.00
C178   C     0.52343   0.50277   0.16210   0.00000  Uiso   1.00
C179   C     0.97793   0.41883   0.11991   0.00000  Uiso   1.00
C180   C     0.52258   0.59040   0.19246   0.00000  Uiso   1.00
C181   C     0.97583   0.59076   0.18933   0.00000  Uiso   1.00
C182   C     0.52448   0.41710   0.12574   0.00000  Uiso   1.00
C183   C     0.74999   0.35508   0.16673   0.00000  Uiso   1.00
C184   C     0.75004   0.64492   0.16661   0.00000  Uiso   1.00
O185   O     0.95741   0.38164   0.08989   0.00000  Uiso   1.00
H186   H     0.93568   0.39802   0.06484   0.00000  Uiso   1.00
O187   O     0.54354   0.63220   0.21324   0.00000  Uiso   1.00
H188   H     0.56398   0.62056   0.24273   0.00000  Uiso   1.00
O189   O     0.95201   0.63463   0.19705   0.00000  Uiso   1.00
H190   H     0.97244   0.66371   0.19850   0.00000  Uiso   1.00
O191   O     0.54894   0.37784   0.10407   0.00000  Uiso   1.00
H192   H     0.52908   0.34934   0.09532   0.00000  Uiso   1.00
O193   O     0.88081   0.58119   0.20429   0.00000  Uiso   1.00
H194   H     0.89390   0.58919   0.24067   0.00000  Uiso   1.00
O195   O     0.61790   0.41342   0.15645   0.00000  Uiso   1.00
H196   H     0.60065   0.38792   0.17707   0.00000  Uiso   1.00
O197   O     0.88541   0.41196   0.13842   0.00000  Uiso   1.00
H198   H     0.85515   0.41213   0.15466   0.00000  Uiso   1.00
O199   O     0.61598   0.59286   0.17604   0.00000  Uiso   1.00
H200   H     0.64763   0.58900   0.16531   0.00000  Uiso   1.00
O201   O     0.25000   0.76178   0.21228   0.00000  Uiso   1.00
O202   O     0.25000   0.90488   0.12105   0.00000  Uiso   1.00
O203   O     0.25000   0.90488   0.21228   0.00000  Uiso   1.00
O204   O     0.25000   0.76178   0.12105   0.00000  Uiso   1.00
C205   C     0.24994   0.73936   0.16671   0.00000  Uiso   1.00
C206   C     0.25010   0.92731   0.16663   0.00000  Uiso   1.00
O207   O     0.18392   0.83333   0.21230   0.00000  Uiso   1.00
O208   O     0.31607   0.83333   0.12104   0.00000  Uiso   1.00
O209   O     0.31607   0.83333   0.21230   0.00000  Uiso   1.00
O210   O     0.18392   0.83333   0.12104   0.00000  Uiso   1.00
C211   C     0.16342   0.83355   0.16658   0.00000  Uiso   1.00
C212   C     0.33661   0.83323   0.16669   0.00000  Uiso   1.00
Zn213  Zn    0.25000   0.83333   0.22759   0.00000  Uiso   1.00
Zn214  Zn    0.25000   0.83333   0.10574   0.00000  Uiso   1.00
N215   N     0.25000   0.83333   0.02455   0.00000  Uiso   1.00
N216   N     0.25000   0.83333   0.30879   0.00000  Uiso   1.00
C217   C     0.40612   0.87622   0.18266   0.00000  Uiso   1.00
C218   C     0.09341   0.79057   0.15712   0.00000  Uiso   1.00
C219   C     0.40715   0.79029   0.14789   0.00000  Uiso   1.00
C220   C     0.09346   0.88090   0.17359   0.00000  Uiso   1.00
C221   C     0.38426   0.83279   0.16642   0.00000  Uiso   1.00
C222   C     0.11588   0.83530   0.16593   0.00000  Uiso   1.00
C223   C     0.45366   0.79268   0.14243   0.00000  Uiso   1.00
C224   C     0.04669   0.88033   0.17723   0.00000  Uiso   1.00
C225   C     0.45280   0.87916   0.17802   0.00000  Uiso   1.00
C226   C     0.04704   0.79163   0.14899   0.00000  Uiso   1.00
C227   C     0.47663   0.83603   0.16083   0.00000  Uiso   1.00
C228   C     0.02343   0.83610   0.16210   0.00000  Uiso   1.00
C229   C     0.47793   0.75217   0.11991   0.00000  Uiso   1.00
C230   C     0.02258   0.92373   0.19246   0.00000  Uiso   1.00
C231   C     0.47583   0.92410   0.18933   0.00000  Uiso   1.00
C232   C     0.02448   0.75043   0.12574   0.00000  Uiso   1.00
C233   C     0.24999   0.68841   0.16673   0.00000  Uiso   1.00
C234   C     0.25004   0.97825   0.16661   0.00000  Uiso   1.00
O235   O     0.45741   0.71497   0.08989   0.00000  Uiso   1.00
H236   H     0.43568   0.73135   0.06484   0.00000  Uiso   1.00
O237   O     0.04354   0.96553   0.21324   0.00000  Uiso   1.00
H238   H     0.06398   0.95389   0.24273   0.00000  Uiso   1.00
O239   O     0.45201   0.96796   0.19705   0.00000  Uiso   1.00
H240   H     0.47244   0.99705   0.19850   0.00000  Uiso   1.00
O241   O     0.04894   0.71117   0.10407   0.00000  Uiso   1.00
H242   H     0.02908   0.68268   0.09532   0.00000  Uiso   1.00
O243   O     0.38081   0.91453   0.20429   0.00000  Uiso   1.00
H244   H     0.39390   0.92253   0.24067   0.00000  Uiso   1.00
O245   O     0.11790   0.74676   0.15645   0.00000  Uiso   1.00
H246   H     0.10065   0.72125   0.17707   0.00000  Uiso   1.00
O247   O     0.38541   0.74530   0.13842   0.00000  Uiso   1.00
H248   H     0.35515   0.74546   0.15466   0.00000  Uiso   1.00
O249   O     0.11598   0.92619   0.17604   0.00000  Uiso   1.00
H250   H     0.14763   0.92233   0.16531   0.00000  Uiso   1.00
O251   O     0.75000   0.76178   0.21228   0.00000  Uiso   1.00
O252   O     0.75000   0.90488   0.12105   0.00000  Uiso   1.00
O253   O     0.75000   0.90488   0.21228   0.00000  Uiso   1.00
O254   O     0.75000   0.76178   0.12105   0.00000  Uiso   1.00
C255   C     0.74994   0.73936   0.16671   0.00000  Uiso   1.00
C256   C     0.75010   0.92731   0.16663   0.00000  Uiso   1.00
O257   O     0.68392   0.83333   0.21230   0.00000  Uiso   1.00
O258   O     0.81607   0.83333   0.12104   0.00000  Uiso   1.00
O259   O     0.81607   0.83333   0.21230   0.00000  Uiso   1.00
O260   O     0.68392   0.83333   0.12104   0.00000  Uiso   1.00
C261   C     0.66342   0.83355   0.16658   0.00000  Uiso   1.00
C262   C     0.83661   0.83323   0.16669   0.00000  Uiso   1.00
Zn263  Zn    0.75000   0.83333   0.22759   0.00000  Uiso   1.00
Zn264  Zn    0.75000   0.83333   0.10574   0.00000  Uiso   1.00
N265   N     0.75000   0.83333   0.02455   0.00000  Uiso   1.00
N266   N     0.75000   0.83333   0.30879   0.00000  Uiso   1.00
C267   C     0.90612   0.87622   0.18266   0.00000  Uiso   1.00
C268   C     0.59341   0.79057   0.15712   0.00000  Uiso   1.00
C269   C     0.90715   0.79029   0.14789   0.00000  Uiso   1.00
C270   C     0.59346   0.88090   0.17359   0.00000  Uiso   1.00
C271   C     0.88426   0.83279   0.16642   0.00000  Uiso   1.00
C272   C     0.61588   0.83530   0.16593   0.00000  Uiso   1.00
C273   C     0.95366   0.79268   0.14243   0.00000  Uiso   1.00
C274   C     0.54669   0.88033   0.17723   0.00000  Uiso   1.00
C275   C     0.95280   0.87916   0.17802   0.00000  Uiso   1.00
C276   C     0.54704   0.79163   0.14899   0.00000  Uiso   1.00
C277   C     0.97663   0.83603   0.16083   0.00000  Uiso   1.00
C278   C     0.52343   0.83610   0.16210   0.00000  Uiso   1.00
C279   C     0.97793   0.75217   0.11991   0.00000  Uiso   1.00
C280   C     0.52258   0.92373   0.19246   0.00000  Uiso   1.00
C281   C     0.97583   0.92410   0.18933   0.00000  Uiso   1.00
C282   C     0.52448   0.75043   0.12574   0.00000  Uiso   1.00
C283   C     0.74999   0.68841   0.16673   0.00000  Uiso   1.00
C284   C     0.75004   0.97825   0.16661   0.00000  Uiso   1.00
O285   O     0.95741   0.71497   0.08989   0.00000  Uiso   1.00
H286   H     0.93568   0.73135   0.06484   0.00000  Uiso   1.00
O287   O     0.54354   0.96553   0.21324   0.00000  Uiso   1.00
H288   H     0.56398   0.95389   0.24273   0.00000  Uiso   1.00
O289   O     0.95201   0.96796   0.19705   0.00000  Uiso   1.00
H290   H     0.97244   0.99705   0.19850   0.00000  Uiso   1.00
O291   O     0.54894   0.71117   0.10407   0.00000  Uiso   1.00
H292   H     0.52908   0.68268   0.09532   0.00000  Uiso   1.00
O293   O     0.88081   0.91453   0.20429   0.00000  Uiso   1.00
H294   H     0.89390   0.92253   0.24067   0.00000  Uiso   1.00
O295   O     0.61790   0.74676   0.15645   0.00000  Uiso   1.00
H296   H     0.60065   0.72125   0.17707   0.00000  Uiso   1.00
O297   O     0.88541   0.74530   0.13842   0.00000  Uiso   1.00
H298   H     0.85515   0.74546   0.15466   0.00000  Uiso   1.00
O299   O     0.61598   0.92619   0.17604   0.00000  Uiso   1.00
H300   H     0.64763   0.92233   0.16531   0.00000  Uiso   1.00
O301   O     0.25000   0.09512   0.54562   0.00000  Uiso   1.00
O302   O     0.25000   0.23822   0.45438   0.00000  Uiso   1.00
O303   O     0.25000   0.23822   0.54562   0.00000  Uiso   1.00
O304   O     0.25000   0.09512   0.45438   0.00000  Uiso   1.00
C305   C     0.24994   0.07269   0.50004   0.00000  Uiso   1.00
C306   C     0.25010   0.26064   0.49996   0.00000  Uiso   1.00
O307   O     0.18392   0.16667   0.54563   0.00000  Uiso   1.00
O308   O     0.31607   0.16667   0.45437   0.00000  Uiso   1.00
O309   O     0.31607   0.16667   0.54563   0.00000  Uiso   1.00
O310   O     0.18392   0.16667   0.45437   0.00000  Uiso   1.00
C311   C     0.16342   0.16689   0.49991   0.00000  Uiso   1.00
C312   C     0.33661   0.16657   0.50003   0.00000  Uiso   1.00
Zn313  Zn    0.25000   0.16667   0.56093   0.00000  Uiso   1.00
Zn314  Zn    0.25000   0.16667   0.43907   0.00000  Uiso   1.00
N315   N     0.25000   0.16667   0.35788   0.00000  Uiso   1.00
N316   N     0.25000   0.16667   0.64212   0.00000  Uiso   1.00
C317   C     0.40612   0.20955   0.51599   0.00000  Uiso   1.00
C318   C     0.09341   0.12391   0.49045   0.00000  Uiso   1.00
C319   C     0.40715   0.12363   0.48122   0.00000  Uiso   1.00
C320   C     0.09346   0.21423   0.50692   0.00000  Uiso   1.00
C321   C     0.38426   0.16612   0.49975   0.00000  Uiso   1.00
C322   C     0.11588   0.16864   0.49926   0.00000  Uiso   1.00
C323   C     0.45366   0.12601   0.47576   0.00000  Uiso   1.00
C324   C     0.04669   0.21366   0.51056   0.00000  Uiso   1.00
C325   C     0.45280   0.21250   0.51135   0.00000  Uiso   1.00
C326   C     0.04704   0.12496   0.48232   0.00000  Uiso   1.00
C327   C     0.47663   0.16937   0.49417   0.00000  Uiso   1.00
C328   C     0.02343   0.16944   0.49544   0.00000  Uiso   1.00
C329   C     0.47793   0.08550   0.45324   0.00000  Uiso   1.00
C330   C     0.02258   0.25706   0.52580   0.00000  Uiso   1.00
C331   C     0.47583   0.25743   0.52266   0.00000  Uiso   1.00
C332   C     0.02448   0.08376   0.45907   0.00000  Uiso   1.00
C333   C     0.24999   0.02175   0.50006   0.00000  Uiso   1.00
C334   C     0.25004   0.31159   0.49994   0.00000  Uiso   1.00
O335   O     0.45741   0.04830   0.42322   0.00000  Uiso   1.00
H336   H     0.43568   0.06469   0.39817   0.00000  Uiso   1.00
O337   O     0.04354   0.29886   0.54657   0.00000  Uiso   1.00
H338   H     0.06398   0.28723   0.57606   0.00000  Uiso   1.00
O339   O     0.45201   0.30129   0.53039   0.00000  Uiso   1.00
H340   H     0.47244   0.33038   0.53183   0.00000  Uiso   1.00
O341   O     0.04894   0.04450   0.43741   0.00000  Uiso   1.00
H342   H     0.02908   0.01601   0.42866   0.00000  Uiso   1.00
O343   O     0.38081   0.24786   0.53763   0.00000  Uiso   1.00
H344   H     0.39390   0.25586   0.57400   0.00000  Uiso   1.00
O345   O     0.11790   0.08009   0.48979   0.00000  Uiso   1.00
H346   H     0.10065   0.05459   0.51040   0.00000  Uiso   1.00
O347   O     0.38541   0.07863   0.47175   0.00000  Uiso   1.00
H348   H     0.35515   0.07879   0.48799   0.00000  Uiso   1.00
O349   O     0.11598   0.25952   0.50937   0.00000  Uiso   1.00
H350   H     0.14763   0.25567   0.49865   0.00000  Uiso   1.00
O351   O     0.75000   0.09512   0.54562   0.00000  Uiso   1.00
O352   O     0.75000   0.23822   0.45438   0.00000  Uiso   1.00
O353   O     0.75000   0.23822   0.54562   0.00000  Uiso   1.00
O354   O     0.75000   0.09512   0.45438   0.00000  Uiso   1.00
C355   C     0.74994   0.07269   0.50004   0.00000  Uiso   1.00
C356   C     0.75010   0.26064   0.49996   0.00000  Uiso   1.00
O357   O     0.68392   0.16667   0.54563   0.00000  Uiso   1.00
O358   O     0.81607   0.16667   0.45437   0.00000  Uiso   1.00
O359   O     0.81607   0.16667   0.54563   0.00000  Uiso   1.00
O360   O     0.68392   0.16667   0.45437   0.00000  Uiso   1.00
C361   C     0.66342   0.16689   0.49991   0.00000  Uiso   1.00
C362   C     0.83661   0.16657   0.50003   0.00000  Uiso   1.00
Zn363  Zn    0.75000   0.16667   0.56093   0.00000  Uiso   1.00
Zn364  Zn    0.75000   0.16667   0.43907   0.00000  Uiso   1.00
N365   N     0.75000   0.16667   0.35788   0.00000  Uiso   1.00
N366   N     0.75000   0.16667   0.64212   0.00000  Uiso   1.00
C367   C     0.90612   0.20955   0.51599   0.00000  Uiso   1.00
C368   C     0.59341   0.12391   0.49045   0.00000  Uiso   1.00
C369   C     0.90715   0.12363   0.48122   0.00000  Uiso   1.00
C370   C     0.59346   0.21423   0.50692   0.00000  Uiso   1.00
C371   C     0.88426   0.16612   0.49975   0.00000  Uiso   1.00
C372   C     0.61588   0.16864   0.49926   0.00000  Uiso   1.00
C373   C     0.95366   0.12601   0.47576   0.00000  Uiso   1.00
C374   C     0.54669   0.21366   0.51056   0.00000  Uiso   1.00
C375   C     0.95280   0.21250   0.51135   0.00000  Uiso   1.00
C376   C     0.54704   0.12496   0.48232   0.00000  Uiso   1.00
C377   C     0.97663   0.16937   0.49417   0.00000  Uiso   1.00
C378   C     0.52343   0.16944   0.49544   0.00000  Uiso   1.00
C379   C     0.97793   0.08550   0.45324   0.00000  Uiso   1.00
C380   C     0.52258   0.25706   0.52580   0.00000  Uiso   1.00
C381   C     0.97583   0.25743   0.52266   0.00000  Uiso   1.00
C382   C     0.52448   0.08376   0.45907   0.00000  Uiso   1.00
C383   C     0.74999   0.02175   0.50006   0.00000  Uiso   1.00
C384   C     0.75004   0.31159   0.49994   0.00000  Uiso   1.00
O385   O     0.95741   0.04830   0.42322   0.00000  Uiso   1.00
H386   H     0.93568   0.06469   0.39817   0.00000  Uiso   1.00
O387   O     0.54354   0.29886   0.54657   0.00000  Uiso   1.00
H388   H     0.56398   0.28723   0.57606   0.00000  Uiso   1.00
O389   O     0.95201   0.30129   0.53039   0.00000  Uiso   1.00
H390   H     0.97244   0.33038   0.53183   0.00000  Uiso   1.00
O391   O     0.54894   0.04450   0.43741   0.00000  Uiso   1.00
H392   H     0.52908   0.01601   0.42866   0.00000  Uiso   1.00
O393   O     0.88081   0.24786   0.53763   0.00000  Uiso   1.00
H394   H     0.89390   0.25586   0.57400   0.00000  Uiso   1.00
O395   O     0.61790   0.08009   0.48979   0.00000  Uiso   1.00
H396   H     0.60065   0.05459   0.51040   0.00000  Uiso   1.00
O397   O     0.88541   0.07863   0.47175   0.00000  Uiso   1.00
H398   H     0.85515   0.07879   0.48799   0.00000  Uiso   1.00
O399   O     0.61598   0.25952   0.50937   0.00000  Uiso   1.00
H400   H     0.64763   0.25567   0.49865   0.00000  Uiso   1.00
O401   O     0.25000   0.42845   0.54562   0.00000  Uiso   1.00
O402   O     0.25000   0.57155   0.45438   0.00000  Uiso   1.00
O403   O     0.25000   0.57155   0.54562   0.00000  Uiso   1.00
O404   O     0.25000   0.42845   0.45438   0.00000  Uiso   1.00
C405   C     0.24994   0.40603   0.50004   0.00000  Uiso   1.00
C406   C     0.25010   0.59397   0.49996   0.00000  Uiso   1.00
O407   O     0.18392   0.50000   0.54563   0.00000  Uiso   1.00
O408   O     0.31607   0.50000   0.45437   0.00000  Uiso   1.00
O409   O     0.31607   0.50000   0.54563   0.00000  Uiso   1.00
O410   O     0.18392   0.50000   0.45437   0.00000  Uiso   1.00
C411   C     0.16342   0.50022   0.49991   0.00000  Uiso   1.00
C412   C     0.33661   0.49990   0.50003   0.00000  Uiso   1.00
Zn413  Zn    0.25000   0.50000   0.56093   0.00000  Uiso   1.00
Zn414  Zn    0.25000   0.50000   0.43907   0.00000  Uiso   1.00
N415   N     0.25000   0.50000   0.35788   0.00000  Uiso   1.00
N416   N     0.25000   0.50000   0.64212   0.00000  Uiso   1.00
C417   C     0.40612   0.54288   0.51599   0.00000  Uiso   1.00
C418   C     0.09341   0.45724   0.49045   0.00000  Uiso   1.00
C419   C     0.40715   0.45696   0.48122   0.00000  Uiso   1.00
C420   C     0.09346   0.54757   0.50692   0.00000  Uiso   1.00
C421   C     0.38426   0.49945   0.49975   0.00000  Uiso   1.00
C422   C     0.11588   0.50197   0.49926   0.00000  Uiso   1.00
C423   C     0.45366   0.45935   0.47576   0.00000  Uiso   1.00
C424   C     0.04669   0.54700   0.51056   0.00000  Uiso   1.00
C425   C     0.45280   0.54583   0.51135   0.00000  Uiso   1.00
C426   C     0.04704   0.45829   0.48232   0.00000  Uiso   1.00
C427   C     0.47663   0.50270   0.49417   0.00000  Uiso   1.00
C428   C     0.02343   0.50277   0.49544   0.00000  Uiso   1.00
C429   C     0.47793   0.41883   0.45324   0.00000  Uiso   1.00
C430   C     0.02258   0.59040   0.52580   0.00000  Uiso   1.00
C431   C     0.47583   0.59076   0.52266   0.00000  Uiso   1.00
C432   C     0.02448   0.41710   0.45907   0.00000  Uiso   1.00
C433   C     0.24999   0.35508   0.50006   0.00000  Uiso   1.00
C434   C     0.25004   0.64492   0.49994   0.00000  Uiso   1.00
O435   O     0.45741   0.38164   0.42322   0.00000  Uiso   1.00
H436   H     0.43568   0.39802   0.39817   0.00000  Uiso   1.00
O437   O     0.04354   0.63220   0.54657   0.00000  Uiso   1.00
H438   H     0.06398   0.62056   0.57606   0.00000  Uiso   1.00
O439   O     0.45201   0.63463   0.53039   0.00000  Uiso   1.00
H440   H     0.47244   0.66371   0.53183   0.00000  Uiso   1.00
O441   O     0.04894   0.37784   0.43741   0.00000  Uiso   1.00
H442   H     0.02908   0.34934   0.42866   0.00000  Uiso   1.00
O443   O     0.38081   0.58119   0.53763   0.00000  Uiso   1.00
H444   H     0.39390   0.58919   0.57400   0.00000  Uiso   1.00
O445   O     0.11790   0.41342   0.48979   0.00000  Uiso   1.00
H446   H     0.10065   0.38792   0.51040   0.00000  Uiso   1.00
O447   O     0.38541   0.41196   0.47175   0.00000  Uiso   1.00
H448   H     0.35515   0.41213   0.48799   0.00000  Uiso   1.00
O449   O     0.11598   0.59286   0.50937   0.00000  Uiso   1.00
H450   H     0.14763   0.58900   0.49865   0.00000  Uiso   1.00
O451   O     0.75000   0.42845   0.54562   0.00000  Uiso   1.00
O452   O     0.75000   0.57155   0.45438   0.00000  Uiso   1.00
O453   O     0.75000   0.57155   0.54562   0.00000  Uiso   1.00
O454   O     0.75000   0.42845   0.45438   0.00000  Uiso   1.00
C455   C     0.74994   0.40603   0.50004   0.00000  Uiso   1.00
C456   C     0.75010   0.59397   0.49996   0.00000  Uiso   1.00
O457   O     0.68392   0.50000   0.54563   0.00000  Uiso   1.00
O458   O     0.81607   0.50000   0.45437   0.00000  Uiso   1.00
O459   O     0.81607   0.50000   0.54563   0.00000  Uiso   1.00
O460   O     0.68392   0.50000   0.45437   0.00000  Uiso   1.00
C461   C     0.66342   0.50022   0.49991   0.00000  Uiso   1.00
C462   C     0.83661   0.49990   0.50003   0.00000  Uiso   1.00
Zn463  Zn    0.75000   0.50000   0.56093   0.00000  Uiso   1.00
Zn464  Zn    0.75000   0.50000   0.43907   0.00000  Uiso   1.00
N465   N     0.75000   0.50000   0.35788   0.00000  Uiso   1.00
N466   N     0.75000   0.50000   0.64212   0.00000  Uiso   1.00
C467   C     0.90612   0.54288   0.51599   0.00000  Uiso   1.00
C468   C     0.59341   0.45724   0.49045   0.00000  Uiso   1.00
C469   C     0.90715   0.45696   0.48122   0.00000  Uiso   1.00
C470   C     0.59346   0.54757   0.50692   0.00000  Uiso   1.00
C471   C     0.88426   0.49945   0.49975   0.00000  Uiso   1.00
C472   C     0.61588   0.50197   0.49926   0.00000  Uiso   1.00
C473   C     0.95366   0.45935   0.47576   0.00000  Uiso   1.00
C474   C     0.54669   0.54700   0.51056   0.00000  Uiso   1.00
C475   C     0.95280   0.54583   0.51135   0.00000  Uiso   1.00
C476   C     0.54704   0.45829   0.48232   0.00000  Uiso   1.00
C477   C     0.97663   0.50270   0.49417   0.00000  Uiso   1.00
C478   C     0.52343   0.50277   0.49544   0.00000  Uiso   1.00
C479   C     0.97793   0.41883   0.45324   0.00000  Uiso   1.00
C480   C     0.52258   0.59040   0.52580   0.00000  Uiso   1.00
C481   C     0.97583   0.59076   0.52266   0.00000  Uiso   1.00
C482   C     0.52448   0.41710   0.45907   0.00000  Uiso   1.00
C483   C     0.74999   0.35508   0.50006   0.00000  Uiso   1.00
C484   C     0.75004   0.64492   0.49994   0.00000  Uiso   1.00
O485   O     0.95741   0.38164   0.42322   0.00000  Uiso   1.00
H486   H     0.93568   0.39802   0.39817   0.00000  Uiso   1.00
O487   O     0.54354   0.63220   0.54657   0.00000  Uiso   1.00
H488   H     0.56398   0.62056   0.57606   0.00000  Uiso   1.00
O489   O     0.95201   0.63463   0.53039   0.00000  Uiso   1.00
H490   H     0.97244   0.66371   0.53183   0.00000  Uiso   1.00
O491   O     0.54894   0.37784   0.43741   0.00000  Uiso   1.00
H492   H     0.52908   0.34934   0.42866   0.00000  Uiso   1.00
O493   O     0.88081   0.58119   0.53763   0.00000  Uiso   1.00
H494   H     0.89390   0.58919   0.57400   0.00000  Uiso   1.00
O495   O     0.61790   0.41342   0.48979   0.00000  Uiso   1.00
H496   H     0.60065   0.38792   0.51040   0.00000  Uiso   1.00
O497   O     0.88541   0.41196   0.47175   0.00000  Uiso   1.00
H498   H     0.85515   0.41213   0.48799   0.00000  Uiso   1.00
O499   O     0.61598   0.59286   0.50937   0.00000  Uiso   1.00
H500   H     0.64763   0.58900   0.49865   0.00000  Uiso   1.00
O501   O     0.25000   0.76178   0.54562   0.00000  Uiso   1.00
O502   O     0.25000   0.90488   0.45438   0.00000  Uiso   1.00
O503   O     0.25000   0.90488   0.54562   0.00000  Uiso   1.00
O504   O     0.25000   0.76178   0.45438   0.00000  Uiso   1.00
C505   C     0.24994   0.73936   0.50004   0.00000  Uiso   1.00
C506   C     0.25010   0.92731   0.49996   0.00000  Uiso   1.00
O507   O     0.18392   0.83333   0.54563   0.00000  Uiso   1.00
O508   O     0.31607   0.83333   0.45437   0.00000  Uiso   1.00
O509   O     0.31607   0.83333   0.54563   0.00000  Uiso   1.00
O510   O     0.18392   0.83333   0.45437   0.00000  Uiso   1.00
C511   C     0.16342   0.83355   0.49991   0.00000  Uiso   1.00
C512   C     0.33661   0.83323   0.50003   0.00000  Uiso   1.00
Zn513  Zn    0.25000   0.83333   0.56093   0.00000  Uiso   1.00
Zn514  Zn    0.25000   0.83333   0.43907   0.00000  Uiso   1.00
N515   N     0.25000   0.83333   0.35788   0.00000  Uiso   1.00
N516   N     0.25000   0.83333   0.64212   0.00000  Uiso   1.00
C517   C     0.40612   0.87622   0.51599   0.00000  Uiso   1.00
C518   C     0.09341   0.79057   0.49045   0.00000  Uiso   1.00
C519   C     0.40715   0.79029   0.48122   0.00000  Uiso   1.00
C520   C     0.09346   0.88090   0.50692   0.00000  Uiso   1.00
C521   C     0.38426   0.83279   0.49975   0.00000  Uiso   1.00
C522   C     0.11588   0.83530   0.49926   0.00000  Uiso   1.00
C523   C     0.45366   0.79268   0.47576   0.00000  Uiso   1.00
C524   C     0.04669   0.88033   0.51056   0.00000  Uiso   1.00
C525   C     0.45280   0.87916   0.51135   0.00000  Uiso   1.00
C526   C     0.04704   0.79163   0.48232   0.00000  Uiso   1.00
C527   C     0.47663   0.83603   0.49417   0.00000  Uiso   1.00
C528   C     0.02343   0.83610   0.49544   0.00000  Uiso   1.00
C529   C     0.47793   0.75217   0.45324   0.00000  Uiso   1.00
C530   C     0.02258   0.92373   0.52580   0.00000  Uiso   1.00
C531   C     0.47583   0.92410   0.52266   0.00000  Uiso   1.00
C532   C     0.02448   0.75043   0.45907   0.00000  Uiso   1.00
C533   C     0.24999   0.68841   0.50006   0.00000  Uiso   1.00
C534   C     0.25004   0.97825   0.49994   0.00000  Uiso   1.00
O535   O     0.45741   0.71497   0.42322   0.00000  Uiso   1.00
H536   H     0.43568   0.73135   0.39817   0.00000  Uiso   1.00
O537   O     0.04354   0.96553   0.54657   0.00000  Uiso   1.00
H538   H     0.06398   0.95389   0.57606   0.00000  Uiso   1.00
O539   O     0.45201   0.96796   0.53039   0.00000  Uiso   1.00
H540   H     0.47244   0.99705   0.53183   0.00000  Uiso   1.00
O541   O     0.04894   0.71117   0.43741   0.00000  Uiso   1.00
H542   H     0.02908   0.68268   0.42866   0.00000  Uiso   1.00
O543   O     0.38081   0.91453   0.53763   0.00000  Uiso   1.00
H544   H     0.39390   0.92253   0.57400   0.00000  Uiso   1.00
O545   O     0.11790   0.74676   0.48979   0.00000  Uiso   1.00
H546   H     0.10065   0.72125   0.51040   0.00000  Uiso   1.00
O547   O     0.38541   0.74530   0.47175   0.00000  Uiso   1.00
H548   H     0.35515   0.74546   0.48799   0.00000  Uiso   1.00
O549   O     0.11598   0.92619   0.50937   0.00000  Uiso   1.00
H550   H     0.14763   0.92233   0.49865   0.00000  Uiso   1.00
O551   O     0.75000   0.76178   0.54562   0.00000  Uiso   1.00
O552   O     0.75000   0.90488   0.45438   0.00000  Uiso   1.00
O553   O     0.75000   0.90488   0.54562   0.00000  Uiso   1.00
O554   O     0.75000   0.76178   0.45438   0.00000  Uiso   1.00
C555   C     0.74994   0.73936   0.50004   0.00000  Uiso   1.00
C556   C     0.75010   0.92731   0.49996   0.00000  Uiso   1.00
O557   O     0.68392   0.83333   0.54563   0.00000  Uiso   1.00
O558   O     0.81607   0.83333   0.45437   0.00000  Uiso   1.00
O559   O     0.81607   0.83333   0.54563   0.00000  Uiso   1.00
O560   O     0.68392   0.83333   0.45437   0.00000  Uiso   1.00
C561   C     0.66342   0.83355   0.49991   0.00000  Uiso   1.00
C562   C     0.83661   0.83323   0.50003   0.00000  Uiso   1.00
Zn563  Zn    0.75000   0.83333   0.56093   0.00000  Uiso   1.00
Zn564  Zn    0.75000   0.83333   0.43907   0.00000  Uiso   1.00
N565   N     0.75000   0.83333   0.35788   0.00000  Uiso   1.00
N566   N     0.75000   0.83333   0.64212   0.00000  Uiso   1.00
C567   C     0.90612   0.87622   0.51599   0.00000  Uiso   1.00
C568   C     0.59341   0.79057   0.49045   0.00000  Uiso   1.00
C569   C     0.90715   0.79029   0.48122   0.00000  Uiso   1.00
C570   C     0.59346   0.88090   0.50692   0.00000  Uiso   1.00
C571   C     0.88426   0.83279   0.49975   0.00000  Uiso   1.00
C572   C     0.61588   0.83530   0.49926   0.00000  Uiso   1.00
C573   C     0.95366   0.79268   0.47576   0.00000  Uiso   1.00
C574   C     0.54669   0.88033   0.51056   0.00000  Uiso   1.00
C575   C     0.95280   0.87916   0.51135   0.00000  Uiso   1.00
C576   C     0.54704   0.79163   0.48232   0.00000  Uiso   1.00
C577   C     0.97663   0.83603   0.49417   0.00000  Uiso   1.00
C578   C     0.52343   0.83610   0.49544   0.00000  Uiso   1.00
C579   C     0.97793   0.75217   0.45324   0.00000  Uiso   1.00
C580   C     0.52258   0.92373   0.52580   0.00000  Uiso   1.00
C581   C     0.97583   0.92410   0.52266   0.00000  Uiso   1.00
C582   C     0.52448   0.75043   0.45907   0.00000  Uiso   1.00
C583   C     0.74999   0.68841   0.50006   0.00000  Uiso   1.00
C584   C     0.75004   0.97825   0.49994   0.00000  Uiso   1.00
O585   O     0.95741   0.71497   0.42322   0.00000  Uiso   1.00
H586   H     0.93568   0.73135   0.39817   0.00000  Uiso   1.00
O587   O     0.54354   0.96553   0.54657   0.00000  Uiso   1.00
H588   H     0.56398   0.95389   0.57606   0.00000  Uiso   1.00
O589   O     0.95201   0.96796   0.53039   0.00000  Uiso   1.00
H590   H     0.97244   0.99705   0.53183   0.00000  Uiso   1.00
O591   O     0.54894   0.71117   0.43741   0.00000  Uiso   1.00
H592   H     0.52908   0.68268   0.42866   0.00000  Uiso   1.00
O593   O     0.88081   0.91453   0.53763   0.00000  Uiso   1.00
H594   H     0.89390   0.92253   0.57400   0.00000  Uiso   1.00
O595   O     0.61790   0.74676   0.48979   0.00000  Uiso   1.00
H596   H     0.60065   0.72125   0.51040   0.00000  Uiso   1.00
O597   O     0.88541   0.74530   0.47175   0.00000  Uiso   1.00
H598   H     0.85515   0.74546   0.48799   0.00000  Uiso   1.00
O599   O     0.61598   0.92619   0.50937   0.00000  Uiso   1.00
H600   H     0.64763   0.92233   0.49865   0.00000  Uiso   1.00
O601   O     0.25000   0.09512   0.87895   0.00000  Uiso   1.00
O602   O     0.25000   0.23822   0.78772   0.00000  Uiso   1.00
O603   O     0.25000   0.23822   0.87895   0.00000  Uiso   1.00
O604   O     0.25000   0.09512   0.78772   0.00000  Uiso   1.00
C605   C     0.24994   0.07269   0.83338   0.00000  Uiso   1.00
C606   C     0.25010   0.26064   0.83329   0.00000  Uiso   1.00
O607   O     0.18392   0.16667   0.87896   0.00000  Uiso   1.00
O608   O     0.31607   0.16667   0.78770   0.00000  Uiso   1.00
O609   O     0.31607   0.16667   0.87896   0.00000  Uiso   1.00
O610   O     0.18392   0.16667   0.78770   0.00000  Uiso   1.00
C611   C     0.16342   0.16689   0.83325   0.00000  Uiso   1.00
C612   C     0.33661   0.16657   0.83336   0.00000  Uiso   1.00
Zn613  Zn    0.25000   0.16667   0.89426   0.00000  Uiso   1.00
Zn614  Zn    0.25000   0.16667   0.77241   0.00000  Uiso   1.00
N615   N     0.25000   0.16667   0.69121   0.00000  Uiso   1.00
N616   N     0.25000   0.16667   0.97545   0.00000  Uiso   1.00
C617   C     0.40612   0.20955   0.84933   0.00000  Uiso   1.00
C618   C     0.09341   0.12391   0.82378   0.00000  Uiso   1.00
C619   C     0.40715   0.12363   0.81455   0.00000  Uiso   1.00
C620   C     0.09346   0.21423   0.84025   0.00000  Uiso   1.00
C621   C     0.38426   0.16612   0.83308   0.00000  Uiso   1.00
C622   C     0.11588   0.16864   0.83260   0.00000  Uiso   1.00
C623   C     0.45366   0.12601   0.80909   0.00000  Uiso   1.00
C624   C     0.04669   0.21366   0.84389   0.00000  Uiso   1.00
C625   C     0.45280   0.21250   0.84468   0.00000  Uiso   1.00
C626   C     0.04704   0.12496   0.81566   0.00000  Uiso   1.00
C627   C     0.47663   0.16937   0.82750   0.00000  Uiso   1.00
C628   C     0.02343   0.16944   0.82877   0.00000  Uiso   1.00
C629   C     0.47793   0.08550   0.78658   0.00000  Uiso   1.00
C630   C     0.02258   0.25706   0.85913   0.00000  Uiso   1.00
C631   C     0.47583   0.25743   0.85600   0.00000  Uiso   1.00
C632   C     0.02448   0.08376   0.79240   0.00000  Uiso   1.00
C633   C     0.24999   0.02175   0.83339   0.00000  Uiso   1.00
C634   C     0.25004   0.31159   0.83327   0.00000  Uiso   1.00
O635   O     0.45741   0.04830   0.75655   0.00000  Uiso   1.00
H636   H     0.43568   0.06469   0.73151   0.00000  Uiso   1.00
O637   O     0.04354   0.29886   0.87991   0.00000  Uiso   1.00
H638   H     0.06398   0.28723   0.90939   0.00000  Uiso   1.00
O639   O     0.45201   0.30129   0.86372   0.00000  Uiso   1.00
H640   H     0.47244   0.33038   0.86517   0.00000  Uiso   1.00
O641   O     0.04894   0.04450   0.77074   0.00000  Uiso   1.00
H642   H     0.02908   0.01601   0.76199   0.00000  Uiso   1.00
O643   O     0.38081   0.24786   0.87096   0.00000  Uiso   1.00
H644   H     0.39390   0.25586   0.90734   0.00000  Uiso   1.00
O645   O     0.11790   0.08009   0.82312   0.00000  Uiso   1.00
H646   H     0.10065   0.05459   0.84373   0.00000  Uiso   1.00
O647   O     0.38541   0.07863   0.80509   0.00000  Uiso   1.00
H648   H     0.35515   0.07879   0.82132   0.00000  Uiso   1.00
O649   O     0.11598   0.25952   0.84271   0.00000  Uiso   1.00
H650   H     0.14763   0.25567   0.83198   0.00000  Uiso   1.00
O651   O     0.75000   0.09512   0.87895   0.00000  Uiso   1.00
O652   O     0.75000   0.23822   0.78772   0.00000  Uiso   1.00
O653   O     0.75000   0.23822   0.87895   0.00000  Uiso   1.00
O654   O     0.75000   0.09512   0.78772   0.00000  Uiso   1.00
C655   C     0.74994   0.07269   0.83338   0.00000  Uiso   1.00
C656   C     0.75010   0.26064   0.83329   0.00000  Uiso   1.00
O657   O     0.68392   0.16667   0.87896   0.00000  Uiso   1.00
O658   O     0.81607   0.16667   0.78770   0.00000  Uiso   1.00
O659   O     0.81607   0.16667   0.87896   0.00000  Uiso   1.00
O660   O     0.68392   0.16667   0.78770   0.00000  Uiso   1.00
C661   C     0.66342   0.16689   0.83325   0.00000  Uiso   1.00
C662   C     0.83661   0.16657   0.83336   0.00000  Uiso   1.00
Zn663  Zn    0.75000   0.16667   0.89426   0.00000  Uiso   1.00
Zn664  Zn    0.75000   0.16667   0.77241   0.00000  Uiso   1.00
N665   N     0.75000   0.16667   0.69121   0.00000  Uiso   1.00
N666   N     0.75000   0.16667   0.97545   0.00000  Uiso   1.00
C667   C     0.90612   0.20955   0.84933   0.00000  Uiso   1.00
C668   C     0.59341   0.12391   0.82378   0.00000  Uiso   1.00
C669   C     0.90715   0.12363   0.81455   0.00000  Uiso   1.00
C670   C     0.59346   0.21423   0.84025   0.00000  Uiso   1.00
C671   C     0.88426   0.16612   0.83308   0.00000  Uiso   1.00
C672   C     0.61588   0.16864   0.83260   0.00000  Uiso   1.00
C673   C     0.95366   0.12601   0.80909   0.00000  Uiso   1.00
C674   C     0.54669   0.21366   0.84389   0.00000  Uiso   1.00
C675   C     0.95280   0.21250   0.84468   0.00000  Uiso   1.00
C676   C     0.54704   0.12496   0.81566   0.00000  Uiso   1.00
C677   C     0.97663   0.16937   0.82750   0.00000  Uiso   1.00
C678   C     0.52343   0.16944   0.82877   0.00000  Uiso   1.00
C679   C     0.97793   0.08550   0.78658   0.00000  Uiso   1.00
C680   C     0.52258   0.25706   0.85913   0.00000  Uiso   1.00
C681   C     0.97583   0.25743   0.85600   0.00000  Uiso   1.00
C682   C     0.52448   0.08376   0.79240   0.00000  Uiso   1.00
C683   C     0.74999   0.02175   0.83339   0.00000  Uiso   1.00
C684   C     0.75004   0.31159   0.83327   0.00000  Uiso   1.00
O685   O     0.95741   0.04830   0.75655   0.00000  Uiso   1.00
H686   H     0.93568   0.06469   0.73151   0.00000  Uiso   1.00
O687   O     0.54354   0.29886   0.87991   0.00000  Uiso   1.00
H688   H     0.56398   0.28723   0.90939   0.00000  Uiso   1.00
O689   O     0.95201   0.30129   0.86372   0.00000  Uiso   1.00
H690   H     0.97244   0.33038   0.86517   0.00000  Uiso   1.00
O691   O     0.54894   0.04450   0.77074   0.00000  Uiso   1.00
H692   H     0.52908   0.01601   0.76199   0.00000  Uiso   1.00
O693   O     0.88081   0.24786   0.87096   0.00000  Uiso   1.00
H694   H     0.89390   0.25586   0.90734   0.00000  Uiso   1.00
O695   O     0.61790   0.08009   0.82312   0.00000  Uiso   1.00
H696   H     0.60065   0.05459   0.84373   0.00000  Uiso   1.00
O697   O     0.88541   0.07863   0.80509   0.00000  Uiso   1.00
H698   H     0.85515   0.07879   0.82132   0.00000  Uiso   1.00
O699   O     0.61598   0.25952   0.84271   0.00000  Uiso   1.00
H700   H     0.64763   0.25567   0.83198   0.00000  Uiso   1.00
O701   O     0.25000   0.42845   0.87895   0.00000  Uiso   1.00
O702   O     0.25000   0.57155   0.78772   0.00000  Uiso   1.00
O703   O     0.25000   0.57155   0.87895   0.00000  Uiso   1.00
O704   O     0.25000   0.42845   0.78772   0.00000  Uiso   1.00
C705   C     0.24994   0.40603   0.83338   0.00000  Uiso   1.00
C706   C     0.25010   0.59397   0.83329   0.00000  Uiso   1.00
O707   O     0.18392   0.50000   0.87896   0.00000  Uiso   1.00
O708   O     0.31607   0.50000   0.78770   0.00000  Uiso   1.00
O709   O     0.31607   0.50000   0.87896   0.00000  Uiso   1.00
O710   O     0.18392   0.50000   0.78770   0.00000  Uiso   1.00
C711   C     0.16342   0.50022   0.83325   0.00000  Uiso   1.00
C712   C     0.33661   0.49990   0.83336   0.00000  Uiso   1.00
Zn713  Zn    0.25000   0.50000   0.89426   0.00000  Uiso   1.00
Zn714  Zn    0.25000   0.50000   0.77241   0.00000  Uiso   1.00
N715   N     0.25000   0.50000   0.69121   0.00000  Uiso   1.00
N716   N     0.25000   0.50000   0.97545   0.00000  Uiso   1.00
C717   C     0.40612   0.54288   0.84933   0.00000  Uiso   1.00
C718   C     0.09341   0.45724   0.82378   0.00000  Uiso   1.00
C719   C     0.40715   0.45696   0.81455   0.00000  Uiso   1.00
C720   C     0.09346   0.54757   0.84025   0.00000  Uiso   1.00
C721   C     0.38426   0.49945   0.83308   0.00000  Uiso   1.00
C722   C     0.11588   0.50197   0.83260   0.00000  Uiso   1.00
C723   C     0.45366   0.45935   0.80909   0.00000  Uiso   1.00
C724   C     0.04669   0.54700   0.84389   0.00000  Uiso   1.00
C725   C     0.45280   0.54583   0.84468   0.00000  Uiso   1.00
C726   C     0.04704   0.45829   0.81566   0.00000  Uiso   1.00
C727   C     0.47663   0.50270   0.82750   0.00000  Uiso   1.00
C728   C     0.02343   0.50277   0.82877   0.00000  Uiso   1.00
C729   C     0.47793   0.41883   0.78658   0.00000  Uiso   1.00
C730   C     0.02258   0.59040   0.85913   0.00000  Uiso   1.00
C731   C     0.47583   0.59076   0.85600   0.00000  Uiso   1.00
C732   C     0.02448   0.41710   0.79240   0.00000  Uiso   1.00
C733   C     0.24999   0.35508   0.83339   0.00000  Uiso   1.00
C734   C     0.25004   0.64492   0.83327   0.00000  Uiso   1.00
O735   O     0.45741   0.38164   0.75655   0.00000  Uiso   1.00
H736   H     0.43568   0.39802   0.73151   0.00000  Uiso   1.00
O737   O     0.04354   0.63220   0.87991   0.00000  Uiso   1.00
H738   H     0.06398   0.62056   0.90939   0.00000  Uiso   1.00
O739   O     0.45201   0.63463   0.86372   0.00000  Uiso   1.00
H740   H     0.47244   0.66371   0.86517   0.00000  Uiso   1.00
O741   O     0.04894   0.37784   0.77074   0.00000  Uiso   1.00
H742   H     0.02908   0.34934   0.76199   0.00000  Uiso   1.00
O743   O     0.38081   0.58119   0.87096   0.00000  Uiso   1.00
H744   H     0.39390   0.58919   0.90734   0.00000  Uiso   1.00
O745   O     0.11790   0.41342   0.82312   0.00000  Uiso   1.00
H746   H     0.10065   0.38792   0.84373   0.00000  Uiso   1.00
O747   O     0.38541   0.41196   0.80509   0.00000  Uiso   1.00
H748   H     0.35515   0.41213   0.82132   0.00000  Uiso   1.00
O749   O     0.11598   0.59286   0.84271   0.00000  Uiso   1.00
H750   H     0.14763   0.58900   0.83198   0.00000  Uiso   1.00
O751   O     0.75000   0.42845   0.87895   0.00000  Uiso   1.00
O752   O     0.75000   0.57155   0.78772   0.00000  Uiso   1.00
O753   O     0.75000   0.57155   0.87895   0.00000  Uiso   1.00
O754   O     0.75000   0.42845   0.78772   0.00000  Uiso   1.00
C755   C     0.74994   0.40603   0.83338   0.00000  Uiso   1.00
C756   C     0.75010   0.59397   0.83329   0.00000  Uiso   1.00
O757   O     0.68392   0.50000   0.87896   0.00000  Uiso   1.00
O758   O     0.81607   0.50000   0.78770   0.00000  Uiso   1.00
O759   O     0.81607   0.50000   0.87896   0.00000  Uiso   1.00
O760   O     0.68392   0.50000   0.78770   0.00000  Uiso   1.00
C761   C     0.66342   0.50022   0.83325   0.00000  Uiso   1.00
C762   C     0.83661   0.49990   0.83336   0.00000  Uiso   1.00
Zn763  Zn    0.75000   0.50000   0.89426   0.00000  Uiso   1.00
Zn764  Zn    0.75000   0.50000   0.77241   0.00000  Uiso   1.00
N765   N     0.75000   0.50000   0.69121   0.00000  Uiso   1.00
N766   N     0.75000   0.50000   0.97545   0.00000  Uiso   1.00
C767   C     0.90612   0.54288   0.84933   0.00000  Uiso   1.00
C768   C     0.59341   0.45724   0.82378   0.00000  Uiso   1.00
C769   C     0.90715   0.45696   0.81455   0.00000  Uiso   1.00
C770   C     0.59346   0.54757   0.84025   0.00000  Uiso   1.00
C771   C     0.88426   0.49945   0.83308   0.00000  Uiso   1.00
C772   C     0.61588   0.50197   0.83260   0.00000  Uiso   1.00
C773   C     0.95366   0.45935   0.80909   0.00000  Uiso   1.00
C774   C     0.54669   0.54700   0.84389   0.00000  Uiso   1.00
C775   C     0.95280   0.54583   0.84468   0.00000  Uiso   1.00
C776   C     0.54704   0.45829   0.81566   0.00000  Uiso   1.00
C777   C     0.97663   0.50270   0.82750   0.00000  Uiso   1.00
C778   C     0.52343   0.50277   0.82877   0.00000  Uiso   1.00
C779   C     0.97793   0.41883   0.78658   0.00000  Uiso   1.00
C780   C     0.52258   0.59040   0.85913   0.00000  Uiso   1.00
C781   C     0.97583   0.59076   0.85600   0.00000  Uiso   1.00
C782   C     0.52448   0.41710   0.79240   0.00000  Uiso   1.00
C783   C     0.74999   0.35508   0.83339   0.00000  Uiso   1.00
C784   C     0.75004   0.64492   0.83327   0.00000  Uiso   1.00
O785   O     0.95741   0.38164   0.75655   0.00000  Uiso   1.00
H786   H     0.93568   0.39802   0.73151   0.00000  Uiso   1.00
O787   O     0.54354   0.63220   0.87991   0.00000  Uiso   1.00
H788   H     0.56398   0.62056   0.90939   0.00000  Uiso   1.00
O789   O     0.95201   0.63463   0.86372   0.00000  Uiso   1.00
H790   H     0.97244   0.66371   0.86517   0.00000  Uiso   1.00
O791   O     0.54894   0.37784   0.77074   0.00000  Uiso   1.00
H792   H     0.52908   0.34934   0.76199   0.00000  Uiso   1.00
O793   O     0.88081   0.58119   0.87096   0.00000  Uiso   1.00
H794   H     0.89390   0.58919   0.90734   0.00000  Uiso   1.00
O795   O     0.61790   0.41342   0.82312   0.00000  Uiso   1.00
H796   H     0.60065   0.38792   0.84373   0.00000  Uiso   1.00
O797   O     0.88541   0.41196   0.80509   0.00000  Uiso   1.00
H798   H     0.85515   0.41213   0.82132   0.00000  Uiso   1.00
O799   O     0.61598   0.59286   0.84271   0.00000  Uiso   1.00
H800   H     0.64763   0.58900   0.83198   0.00000  Uiso   1.00
O801   O     0.25000   0.76178   0.87895   0.00000  Uiso   1.00
O802   O     0.25000   0.90488   0.78772   0.00000  Uiso   1.00
O803   O     0.25000   0.90488   0.87895   0.00000  Uiso   1.00
O804   O     0.25000   0.76178   0.78772   0.00000  Uiso   1.00
C805   C     0.24994   0.73936   0.83338   0.00000  Uiso   1.00
C806   C     0.25010   0.92731   0.83329   0.00000  Uiso   1.00
O807   O     0.18392   0.83333   0.87896   0.00000  Uiso   1.00
O808   O     0.31607   0.83333   0.78770   0.00000  Uiso   1.00
O809   O     0.31607   0.83333   0.87896   0.00000  Uiso   1.00
O810   O     0.18392   0.83333   0.78770   0.00000  Uiso   1.00
C811   C     0.16342   0.83355   0.83325   0.00000  Uiso   1.00
C812   C     0.33661   0.83323   0.83336   0.00000  Uiso   1.00
Zn813  Zn    0.25000   0.83333   0.89426   0.00000  Uiso   1.00
Zn814  Zn    0.25000   0.83333   0.77241   0.00000  Uiso   1.00
N815   N     0.25000   0.83333   0.69121   0.00000  Uiso   1.00
N816   N     0.25000   0.83333   0.97545   0.00000  Uiso   1.00
C817   C     0.40612   0.87622   0.84933   0.00000  Uiso   1.00
C818   C     0.09341   0.79057   0.82378   0.00000  Uiso   1.00
C819   C     0.40715   0.79029   0.81455   0.00000  Uiso   1.00
C820   C     0.09346   0.88090   0.84025   0.00000  Uiso   1.00
C821   C     0.38426   0.83279   0.83308   0.00000  Uiso   1.00
C822   C     0.11588   0.83530   0.83260   0.00000  Uiso   1.00
C823   C     0.45366   0.79268   0.80909   0.00000  Uiso   1.00
C824   C     0.04669   0.88033   0.84389   0.00000  Uiso   1.00
C825   C     0.45280   0.87916   0.84468   0.00000  Uiso   1.00
C826   C     0.04704   0.79163   0.81566   0.00000  Uiso   1.00
C827   C     0.47663   0.83603   0.82750   0.00000  Uiso   1.00
C828   C     0.02343   0.83610   0.82877   0.00000  Uiso   1.00
C829   C     0.47793   0.75217   0.78658   0.00000  Uiso   1.00
C830   C     0.02258   0.92373   0.85913   0.00000  Uiso   1.00
C831   C     0.47583   0.92410   0.85600   0.00000  Uiso   1.00
C832   C     0.02448   0.75043   0.79240   0.00000  Uiso   1.00
C833   C     0.24999   0.68841   0.83339   0.00000  Uiso   1.00
C834   C     0.25004   0.97825   0.83327   0.00000  Uiso   1.00
O835   O     0.45741   0.71497   0.75655   0.00000  Uiso   1.00
H836   H     0.43568   0.73135   0.73151   0.00000  Uiso   1.00
O837   O     0.04354   0.96553   0.87991   0.00000  Uiso   1.00
H838   H     0.06398   0.95389   0.90939   0.00000  Uiso   1.00
O839   O     0.45201   0.96796   0.86372   0.00000  Uiso   1.00
H840   H     0.47244   0.99705   0.86517   0.00000  Uiso   1.00
O841   O     0.04894   0.71117   0.77074   0.00000  Uiso   1.00
H842   H     0.02908   0.68268   0.76199   0.00000  Uiso   1.00
O843   O     0.38081   0.91453   0.87096   0.00000  Uiso   1.00
H844   H     0.39390   0.92253   0.90734   0.00000  Uiso   1.00
O845   O     0.11790   0.74676   0.82312   0.00000  Uiso   1.00
H846   H     0.10065   0.72125   0.84373   0.00000  Uiso   1.00
O847   O     0.38541   0.74530   0.80509   0.00000  Uiso   1.00
H848   H     0.35515   0.74546   0.82132   0.00000  Uiso   1.00
O849   O     0.11598   0.92619   0.84271   0.00000  Uiso   1.00
H850   H     0.14763   0.92233   0.83198   0.00000  Uiso   1.00
O851   O     0.75000   0.76178   0.87895   0.00000  Uiso   1.00
O852   O     0.75000   0.90488   0.78772   0.00000  Uiso   1.00
O853   O     0.75000   0.90488   0.87895   0.00000  Uiso   1.00
O854   O     0.75000   0.76178   0.78772   0.00000  Uiso   1.00
C855   C     0.74994   0.73936   0.83338   0.00000  Uiso   1.00
C856   C     0.75010   0.92731   0.83329   0.00000  Uiso   1.00
O857   O     0.68392   0.83333   0.87896   0.00000  Uiso   1.00
O858   O     0.81607   0.83333   0.78770   0.00000  Uiso   1.00
O859   O     0.81607   0.83333   0.87896   0.00000  Uiso   1.00
O860   O     0.68392   0.83333   0.78770   0.00000  Uiso   1.00
C861   C     0.66342   0.83355   0.83325   0.00000  Uiso   1.00
C862   C     0.83661   0.83323   0.83336   0.00000  Uiso   1.00
Zn863  Zn    0.75000   0.83333   0.89426   0.00000  Uiso   1.00
Zn864  Zn    0.75000   0.83333   0.77241   0.00000  Uiso   1.00
N865   N     0.75000   0.83333   0.69121   0.00000  Uiso   1.00
N866   N     0.75000   0.83333   0.97545   0.00000  Uiso   1.00
C867   C     0.90612   0.87622   0.84933   0.00000  Uiso   1.00
C868   C     0.59341   0.79057   0.82378   0.00000  Uiso   1.00
C869   C     0.90715   0.79029   0.81455   0.00000  Uiso   1.00
C870   C     0.59346   0.88090   0.84025   0.00000  Uiso   1.00
C871   C     0.88426   0.83279   0.83308   0.00000  Uiso   1.00
C872   C     0.61588   0.83530   0.83260   0.00000  Uiso   1.00
C873   C     0.95366   0.79268   0.80909   0.00000  Uiso   1.00
C874   C     0.54669   0.88033   0.84389   0.00000  Uiso   1.00
C875   C     0.95280   0.87916   0.84468   0.00000  Uiso   1.00
C876   C     0.54704   0.79163   0.81566   0.00000  Uiso   1.00
C877   C     0.97663   0.83603   0.82750   0.00000  Uiso   1.00
C878   C     0.52343   0.83610   0.82877   0.00000  Uiso   1.00
C879   C     0.97793   0.75217   0.78658   0.00000  Uiso   1.00
C880   C     0.52258   0.92373   0.85913   0.00000  Uiso   1.00
C881   C     0.97583   0.92410   0.85600   0.00000  Uiso   1.00
C882   C     0.52448   0.75043   0.79240   0.00000  Uiso   1.00
C883   C     0.74999   0.68841   0.83339   0.00000  Uiso   1.00
C884   C     0.75004   0.97825   0.83327   0.00000  Uiso   1.00
O885   O     0.95741   0.71497   0.75655   0.00000  Uiso   1.00
H886   H     0.93568   0.73135   0.73151   0.00000  Uiso   1.00
O887   O     0.54354   0.96553   0.87991   0.00000  Uiso   1.00
H888   H     0.56398   0.95389   0.90939   0.00000  Uiso   1.00
O889   O     0.95201   0.96796   0.86372   0.00000  Uiso   1.00
H890   H     0.97244   0.99705   0.86517   0.00000  Uiso   1.00
O891   O     0.54894   0.71117   0.77074   0.00000  Uiso   1.00
H892   H     0.52908   0.68268   0.76199   0.00000  Uiso   1.00
O893   O     0.88081   0.91453   0.87096   0.00000  Uiso   1.00
H894   H     0.89390   0.92253   0.90734   0.00000  Uiso   1.00
O895   O     0.61790   0.74676   0.82312   0.00000  Uiso   1.00
H896   H     0.60065   0.72125   0.84373   0.00000  Uiso   1.00
O897   O     0.88541   0.74530   0.80509   0.00000  Uiso   1.00
H898   H     0.85515   0.74546   0.82132   0.00000  Uiso   1.00
O899   O     0.61598   0.92619   0.84271   0.00000  Uiso   1.00
H900   H     0.64763   0.92233   0.83198   0.00000  Uiso   1.00
loop_
_geom_bond_atom_site_label_1
_geom_bond_atom_site_label_2
_geom_bond_distance
_geom_bond_site_symmetry_2
_ccdc_geom_bond_type
O1     C5      1.263   .     A
O1     Zn13    1.950   .     S
O2     C6      1.263   .     A
O2     Zn14    1.950   .     S
O3     Zn13    1.949   .     S
O3     C6      1.262   .     A
O4     Zn14    1.949   .     S
O4     C5      1.262   .     A
C5     C33     1.362   .     S
C6     C34     1.362   .     S
O7     C11     1.270   .     A
O7     Zn13    2.011   .     S
O8     C12     1.270   .     A
O8     Zn14    2.011   .     S
O9     C12     1.271   .     A
O9     Zn13    2.013   .     S
O10    C11     1.269   .     A
O10    Zn14    2.013   .     S
C11    C22     1.423   .     S
C12    C21     1.426   .     S
Zn13   N16     1.978   .     S
Zn14   N15     1.978   .     S
N15    N616    1.196   1_554 S
N16    N315    1.196   .     S
C17    O43     1.380   .     S
C17    C25     1.404   .     A
C17    C21     1.391   .     A
C18    C26     1.401   .     A
C18    O45     1.382   .     S
C18    C22     1.390   .     A
C19    C23     1.400   .     A
C19    C21     1.403   .     A
C19    O47     1.388   .     S
C20    O49     1.388   .     S
C20    C22     1.405   .     A
C20    C24     1.402   .     A
C23    C27     1.421   .     A
C23    C29     1.416   .     A
C24    C30     1.417   .     A
C24    C28     1.422   .     A
C25    C31     1.413   .     A
C25    C27     1.420   .     A
C26    C32     1.412   .     A
C26    C28     1.421   .     A
C27    C78     1.401   .     S
C28    C77     1.401   1_455 S
C29    O35     1.380   .     S
C29    C82     1.400   .     S
C30    O37     1.379   .     S
C30    C81     1.401   1_455 S
C31    O39     1.386   .     S
C31    C80     1.401   .     S
C32    O41     1.386   .     S
C32    C79     1.400   1_455 S
C33    C234    1.163   1_545 S
C34    C133    1.163   .     S
O35    H36     0.992   .     S
O37    H38     0.992   .     S
O39    H40     0.990   .     S
O41    H42     0.990   .     S
O43    H44     0.992   .     S
O45    H46     0.992   .     S
O47    H48     0.989   .     S
O49    H50     0.988   .     S
O51    C55     1.263   .     A
O51    Zn63    1.950   .     S
O52    C56     1.263   .     A
O52    Zn64    1.950   .     S
O53    Zn63    1.949   .     S
O53    C56     1.262   .     A
O54    Zn64    1.949   .     S
O54    C55     1.262   .     A
C55    C83     1.362   .     S
C56    C84     1.362   .     S
O57    C61     1.270   .     A
O57    Zn63    2.011   .     S
O58    C62     1.270   .     A
O58    Zn64    2.011   .     S
O59    C62     1.271   .     A
O59    Zn63    2.013   .     S
O60    C61     1.269   .     A
O60    Zn64    2.013   .     S
C61    C72     1.423   .     S
C62    C71     1.426   .     S
Zn63   N66     1.978   .     S
Zn64   N65     1.978   .     S
N65    N666    1.196   1_554 S
N66    N365    1.196   .     S
C67    O93     1.380   .     S
C67    C75     1.404   .     A
C67    C71     1.391   .     A
C68    C76     1.401   .     A
C68    O95     1.382   .     S
C68    C72     1.390   .     A
C69    C73     1.400   .     A
C69    C71     1.403   .     A
C69    O97     1.388   .     S
C70    O99     1.388   .     S
C70    C72     1.405   .     A
C70    C74     1.402   .     A
C73    C77     1.421   .     A
C73    C79     1.416   .     A
C74    C80     1.417   .     A
C74    C78     1.422   .     A
C75    C81     1.413   .     A
C75    C77     1.420   .     A
C76    C82     1.412   .     A
C76    C78     1.421   .     A
C77    C28     1.401   1_655 S
C79    O85     1.380   .     S
C79    C32     1.400   1_655 S
C80    O87     1.379   .     S
C81    O89     1.386   .     S
C81    C30     1.401   1_655 S
C82    O91     1.386   .     S
C83    C284    1.163   1_545 S
C84    C183    1.163   .     S
O85    H86     0.992   .     S
O87    H88     0.992   .     S
O89    H90     0.990   .     S
O91    H92     0.990   .     S
O93    H94     0.992   .     S
O95    H96     0.992   .     S
O97    H98     0.989   .     S
O99    H100    0.988   .     S
O101   C105    1.263   .     A
O101   Zn113   1.950   .     S
O102   C106    1.263   .     A
O102   Zn114   1.950   .     S
O103   Zn113   1.949   .     S
O103   C106    1.262   .     A
O104   Zn114   1.949   .     S
O104   C105    1.262   .     A
C105   C133    1.362   .     S
C106   C134    1.362   .     S
O107   C111    1.270   .     A
O107   Zn113   2.011   .     S
O108   C112    1.270   .     A
O108   Zn114   2.011   .     S
O109   C112    1.271   .     A
O109   Zn113   2.013   .     S
O110   C111    1.269   .     A
O110   Zn114   2.013   .     S
C111   C122    1.423   .     S
C112   C121    1.426   .     S
Zn113  N116    1.978   .     S
Zn114  N115    1.978   .     S
N115   N716    1.196   1_554 S
N116   N415    1.196   .     S
C117   O143    1.380   .     S
C117   C125    1.404   .     A
C117   C121    1.391   .     A
C118   C126    1.401   .     A
C118   O145    1.382   .     S
C118   C122    1.390   .     A
C119   C123    1.400   .     A
C119   C121    1.403   .     A
C119   O147    1.388   .     S
C120   O149    1.388   .     S
C120   C122    1.405   .     A
C120   C124    1.402   .     A
C123   C127    1.421   .     A
C123   C129    1.416   .     A
C124   C130    1.417   .     A
C124   C128    1.422   .     A
C125   C131    1.413   .     A
C125   C127    1.420   .     A
C126   C132    1.412   .     A
C126   C128    1.421   .     A
C127   C178    1.401   .     S
C128   C177    1.401   1_455 S
C129   O135    1.380   .     S
C129   C182    1.400   .     S
C130   O137    1.379   .     S
C130   C181    1.401   1_455 S
C131   O139    1.386   .     S
C131   C180    1.401   .     S
C132   O141    1.386   .     S
C132   C179    1.400   1_455 S
C134   C233    1.163   .     S
O135   H136    0.992   .     S
O137   H138    0.992   .     S
O139   H140    0.990   .     S
O141   H142    0.990   .     S
O143   H144    0.992   .     S
O145   H146    0.992   .     S
O147   H148    0.989   .     S
O149   H150    0.988   .     S
O151   C155    1.263   .     A
O151   Zn163   1.950   .     S
O152   C156    1.263   .     A
O152   Zn164   1.950   .     S
O153   Zn163   1.949   .     S
O153   C156    1.262   .     A
O154   Zn164   1.949   .     S
O154   C155    1.262   .     A
C155   C183    1.362   .     S
C156   C184    1.362   .     S
O157   C161    1.270   .     A
O157   Zn163   2.011   .     S
O158   C162    1.270   .     A
O158   Zn164   2.011   .     S
O159   C162    1.271   .     A
O159   Zn163   2.013   .     S
O160   C161    1.269   .     A
O160   Zn164   2.013   .     S
C161   C172    1.423   .     S
C162   C171    1.426   .     S
Zn163  N166    1.978   .     S
Zn164  N165    1.978   .     S
N165   N766    1.196   1_554 S
N166   N465    1.196   .     S
C167   O193    1.380   .     S
C167   C175    1.404   .     A
C167   C171    1.391   .     A
C168   C176    1.401   .     A
C168   O195    1.382   .     S
C168   C172    1.390   .     A
C169   C173    1.400   .     A
C169   C171    1.403   .     A
C169   O197    1.388   .     S
C170   O199    1.388   .     S
C170   C172    1.405   .     A
C170   C174    1.402   .     A
C173   C177    1.421   .     A
C173   C179    1.416   .     A
C174   C180    1.417   .     A
C174   C178    1.422   .     A
C175   C181    1.413   .     A
C175   C177    1.420   .     A
C176   C182    1.412   .     A
C176   C178    1.421   .     A
C177   C128    1.401   1_655 S
C179   O185    1.380   .     S
C179   C132    1.400   1_655 S
C180   O187    1.379   .     S
C181   O189    1.386   .     S
C181   C130    1.401   1_655 S
C182   O191    1.386   .     S
C184   C283    1.163   .     S
O185   H186    0.992   .     S
O187   H188    0.992   .     S
O189   H190    0.990   .     S
O191   H192    0.990   .     S
O193   H194    0.992   .     S
O195   H196    0.992   .     S
O197   H198    0.989   .     S
O199   H200    0.988   .     S
O201   C205    1.263   .     A
O201   Zn213   1.950   .     S
O202   C206    1.263   .     A
O202   Zn214   1.950   .     S
O203   Zn213   1.949   .     S
O203   C206    1.262   .     A
O204   Zn214   1.949   .     S
O204   C205    1.262   .     A
C205   C233    1.362   .     S
C206   C234    1.362   .     S
O207   C211    1.270   .     A
O207   Zn213   2.011   .     S
O208   C212    1.270   .     A
O208   Zn214   2.011   .     S
O209   C212    1.271   .     A
O209   Zn213   2.013   .     S
O210   C211    1.269   .     A
O210   Zn214   2.013   .     S
C211   C222    1.423   .     S
C212   C221    1.426   .     S
Zn213  N216    1.978   .     S
Zn214  N215    1.978   .     S
N215   N816    1.196   1_554 S
N216   N515    1.196   .     S
C217   O243    1.380   .     S
C217   C225    1.404   .     A
C217   C221    1.391   .     A
C218   C226    1.401   .     A
C218   O245    1.382   .     S
C218   C222    1.390   .     A
C219   C223    1.400   .     A
C219   C221    1.403   .     A
C219   O247    1.388   .     S
C220   O249    1.388   .     S
C220   C222    1.405   .     A
C220   C224    1.402   .     A
C223   C227    1.421   .     A
C223   C229    1.416   .     A
C224   C230    1.417   .     A
C224   C228    1.422   .     A
C225   C231    1.413   .     A
C225   C227    1.420   .     A
C226   C232    1.412   .     A
C226   C228    1.421   .     A
C227   C278    1.401   .     S
C228   C277    1.401   1_455 S
C229   O235    1.380   .     S
C229   C282    1.400   .     S
C230   O237    1.379   .     S
C230   C281    1.401   1_455 S
C231   O239    1.386   .     S
C231   C280    1.401   .     S
C232   O241    1.386   .     S
C232   C279    1.400   1_455 S
C234   C33     1.163   1_565 S
O235   H236    0.992   .     S
O237   H238    0.992   .     S
O239   H240    0.990   .     S
O241   H242    0.990   .     S
O243   H244    0.992   .     S
O245   H246    0.992   .     S
O247   H248    0.989   .     S
O249   H250    0.988   .     S
O251   C255    1.263   .     A
O251   Zn263   1.950   .     S
O252   C256    1.263   .     A
O252   Zn264   1.950   .     S
O253   Zn263   1.949   .     S
O253   C256    1.262   .     A
O254   Zn264   1.949   .     S
O254   C255    1.262   .     A
C255   C283    1.362   .     S
C256   C284    1.362   .     S
O257   C261    1.270   .     A
O257   Zn263   2.011   .     S
O258   C262    1.270   .     A
O258   Zn264   2.011   .     S
O259   C262    1.271   .     A
O259   Zn263   2.013   .     S
O260   C261    1.269   .     A
O260   Zn264   2.013   .     S
C261   C272    1.423   .     S
C262   C271    1.426   .     S
Zn263  N266    1.978   .     S
Zn264  N265    1.978   .     S
N265   N866    1.196   1_554 S
N266   N565    1.196   .     S
C267   O293    1.380   .     S
C267   C275    1.404   .     A
C267   C271    1.391   .     A
C268   C276    1.401   .     A
C268   O295    1.382   .     S
C268   C272    1.390   .     A
C269   C273    1.400   .     A
C269   C271    1.403   .     A
C269   O297    1.388   .     S
C270   O299    1.388   .     S
C270   C272    1.405   .     A
C270   C274    1.402   .     A
C273   C277    1.421   .     A
C273   C279    1.416   .     A
C274   C280    1.417   .     A
C274   C278    1.422   .     A
C275   C281    1.413   .     A
C275   C277    1.420   .     A
C276   C282    1.412   .     A
C276   C278    1.421   .     A
C277   C228    1.401   1_655 S
C279   O285    1.380   .     S
C279   C232    1.400   1_655 S
C280   O287    1.379   .     S
C281   O289    1.386   .     S
C281   C230    1.401   1_655 S
C282   O291    1.386   .     S
C284   C83     1.163   1_565 S
O285   H286    0.992   .     S
O287   H288    0.992   .     S
O289   H290    0.990   .     S
O291   H292    0.990   .     S
O293   H294    0.992   .     S
O295   H296    0.992   .     S
O297   H298    0.989   .     S
O299   H300    0.988   .     S
O301   C305    1.263   .     A
O301   Zn313   1.950   .     S
O302   C306    1.263   .     A
O302   Zn314   1.950   .     S
O303   Zn313   1.949   .     S
O303   C306    1.262   .     A
O304   Zn314   1.949   .     S
O304   C305    1.262   .     A
C305   C333    1.362   .     S
C306   C334    1.362   .     S
O307   C311    1.270   .     A
O307   Zn313   2.011   .     S
O308   C312    1.270   .     A
O308   Zn314   2.011   .     S
O309   C312    1.271   .     A
O309   Zn313   2.013   .     S
O310   C311    1.269   .     A
O310   Zn314   2.013   .     S
C311   C322    1.423   .     S
C312   C321    1.426   .     S
Zn313  N316    1.978   .     S
Zn314  N315    1.978   .     S
N316   N615    1.196   .     S
C317   O343    1.380   .     S
C317   C325    1.404   .     A
C317   C321    1.391   .     A
C318   C326    1.401   .     A
C318   O345    1.382   .     S
C318   C322    1.390   .     A
C319   C323    1.400   .     A
C319   C321    1.403   .     A
C319   O347    1.388   .     S
C320   O349    1.388   .     S
C320   C322    1.405   .     A
C320   C324    1.402   .     A
C323   C327    1.421   .     A
C323   C329    1.416   .     A
C324   C330    1.417   .     A
C324   C328    1.422   .     A
C325   C331    1.413   .     A
C325   C327    1.420   .     A
C326   C332    1.412   .     A
C326   C328    1.421   .     A
C327   C378    1.401   .     S
C328   C377    1.401   1_455 S
C329   O335    1.380   .     S
C329   C382    1.400   .     S
C330   O337    1.379   .     S
C330   C381    1.401   1_455 S
C331   O339    1.386   .     S
C331   C380    1.401   .     S
C332   O341    1.386   .     S
C332   C379    1.400   1_455 S
C333   C534    1.163   1_545 S
C334   C433    1.163   .     S
O335   H336    0.992   .     S
O337   H338    0.992   .     S
O339   H340    0.990   .     S
O341   H342    0.990   .     S
O343   H344    0.992   .     S
O345   H346    0.992   .     S
O347   H348    0.989   .     S
O349   H350    0.988   .     S
O351   C355    1.263   .     A
O351   Zn363   1.950   .     S
O352   C356    1.263   .     A
O352   Zn364   1.950   .     S
O353   Zn363   1.949   .     S
O353   C356    1.262   .     A
O354   Zn364   1.949   .     S
O354   C355    1.262   .     A
C355   C383    1.362   .     S
C356   C384    1.362   .     S
O357   C361    1.270   .     A
O357   Zn363   2.011   .     S
O358   C362    1.270   .     A
O358   Zn364   2.011   .     S
O359   C362    1.271   .     A
O359   Zn363   2.013   .     S
O360   C361    1.269   .     A
O360   Zn364   2.013   .     S
C361   C372    1.423   .     S
C362   C371    1.426   .     S
Zn363  N366    1.978   .     S
Zn364  N365    1.978   .     S
N366   N665    1.196   .     S
C367   O393    1.380   .     S
C367   C375    1.404   .     A
C367   C371    1.391   .     A
C368   C376    1.401   .     A
C368   O395    1.382   .     S
C368   C372    1.390   .     A
C369   C373    1.400   .     A
C369   C371    1.403   .     A
C369   O397    1.388   .     S
C370   O399    1.388   .     S
C370   C372    1.405   .     A
C370   C374    1.402   .     A
C373   C377    1.421   .     A
C373   C379    1.416   .     A
C374   C380    1.417   .     A
C374   C378    1.422   .     A
C375   C381    1.413   .     A
C375   C377    1.420   .     A
C376   C382    1.412   .     A
C376   C378    1.421   .     A
C377   C328    1.401   1_655 S
C379   O385    1.380   .     S
C379   C332    1.400   1_655 S
C380   O387    1.379   .     S
C381   O389    1.386   .     S
C381   C330    1.401   1_655 S
C382   O391    1.386   .     S
C383   C584    1.163   1_545 S
C384   C483    1.163   .     S
O385   H386    0.992   .     S
O387   H388    0.992   .     S
O389   H390    0.990   .     S
O391   H392    0.990   .     S
O393   H394    0.992   .     S
O395   H396    0.992   .     S
O397   H398    0.989   .     S
O399   H400    0.988   .     S
O401   C405    1.263   .     A
O401   Zn413   1.950   .     S
O402   C406    1.263   .     A
O402   Zn414   1.950   .     S
O403   Zn413   1.949   .     S
O403   C406    1.262   .     A
O404   Zn414   1.949   .     S
O404   C405    1.262   .     A
C405   C433    1.362   .     S
C406   C434    1.362   .     S
O407   C411    1.270   .     A
O407   Zn413   2.011   .     S
O408   C412    1.270   .     A
O408   Zn414   2.011   .     S
O409   C412    1.271   .     A
O409   Zn413   2.013   .     S
O410   C411    1.269   .     A
O410   Zn414   2.013   .     S
C411   C422    1.423   .     S
C412   C421    1.426   .     S
Zn413  N416    1.978   .     S
Zn414  N415    1.978   .     S
N416   N715    1.196   .     S
C417   O443    1.380   .     S
C417   C425    1.404   .     A
C417   C421    1.391   .     A
C418   C426    1.401   .     A
C418   O445    1.382   .     S
C418   C422    1.390   .     A
C419   C423    1.400   .     A
C419   C421    1.403   .     A
C419   O447    1.388   .     S
C420   O449    1.388   .     S
C420   C422    1.405   .     A
C420   C424    1.402   .     A
C423   C427    1.421   .     A
C423   C429    1.416   .     A
C424   C430    1.417   .     A
C424   C428    1.422   .     A
C425   C431    1.413   .     A
C425   C427    1.420   .     A
C426   C432    1.412   .     A
C426   C428    1.421   .     A
C427   C478    1.401   .     S
C428   C477    1.401   1_455 S
C429   O435    1.380   .     S
C429   C482    1.400   .     S
C430   O437    1.379   .     S
C430   C481    1.401   1_455 S
C431   O439    1.386   .     S
C431   C480    1.401   .     S
C432   O441    1.386   .     S
C432   C479    1.400   1_455 S
C434   C533    1.163   .     S
O435   H436    0.992   .     S
O437   H438    0.992   .     S
O439   H440    0.990   .     S
O441   H442    0.990   .     S
O443   H444    0.992   .     S
O445   H446    0.992   .     S
O447   H448    0.989   .     S
O449   H450    0.988   .     S
O451   C455    1.263   .     A
O451   Zn463   1.950   .     S
O452   C456    1.263   .     A
O452   Zn464   1.950   .     S
O453   Zn463   1.949   .     S
O453   C456    1.262   .     A
O454   Zn464   1.949   .     S
O454   C455    1.262   .     A
C455   C483    1.362   .     S
C456   C484    1.362   .     S
O457   C461    1.270   .     A
O457   Zn463   2.011   .     S
O458   C462    1.270   .     A
O458   Zn464   2.011   .     S
O459   C462    1.271   .     A
O459   Zn463   2.013   .     S
O460   C461    1.269   .     A
O460   Zn464   2.013   .     S
C461   C472    1.423   .     S
C462   C471    1.426   .     S
Zn463  N466    1.978   .     S
Zn464  N465    1.978   .     S
N466   N765    1.196   .     S
C467   O493    1.380   .     S
C467   C475    1.404   .     A
C467   C471    1.391   .     A
C468   C476    1.401   .     A
C468   O495    1.382   .     S
C468   C472    1.390   .     A
C469   C473    1.400   .     A
C469   C471    1.403   .     A
C469   O497    1.388   .     S
C470   O499    1.388   .     S
C470   C472    1.405   .     A
C470   C474    1.402   .     A
C473   C477    1.421   .     A
C473   C479    1.416   .     A
C474   C480    1.417   .     A
C474   C478    1.422   .     A
C475   C481    1.413   .     A
C475   C477    1.420   .     A
C476   C482    1.412   .     A
C476   C478    1.421   .     A
C477   C428    1.401   1_655 S
C479   O485    1.380   .     S
C479   C432    1.400   1_655 S
C480   O487    1.379   .     S
C481   O489    1.386   .     S
C481   C430    1.401   1_655 S
C482   O491    1.386   .     S
C484   C583    1.163   .     S
O485   H486    0.992   .     S
O487   H488    0.992   .     S
O489   H490    0.990   .     S
O491   H492    0.990   .     S
O493   H494    0.992   .     S
O495   H496    0.992   .     S
O497   H498    0.989   .     S
O499   H500    0.988   .     S
O501   C505    1.263   .     A
O501   Zn513   1.950   .     S
O502   C506    1.263   .     A
O502   Zn514   1.950   .     S
O503   Zn513   1.949   .     S
O503   C506    1.262   .     A
O504   Zn514   1.949   .     S
O504   C505    1.262   .     A
C505   C533    1.362   .     S
C506   C534    1.362   .     S
O507   C511    1.270   .     A
O507   Zn513   2.011   .     S
O508   C512    1.270   .     A
O508   Zn514   2.011   .     S
O509   C512    1.271   .     A
O509   Zn513   2.013   .     S
O510   C511    1.269   .     A
O510   Zn514   2.013   .     S
C511   C522    1.423   .     S
C512   C521    1.426   .     S
Zn513  N516    1.978   .     S
Zn514  N515    1.978   .     S
N516   N815    1.196   .     S
C517   O543    1.380   .     S
C517   C525    1.404   .     A
C517   C521    1.391   .     A
C518   C526    1.401   .     A
C518   O545    1.382   .     S
C518   C522    1.390   .     A
C519   C523    1.400   .     A
C519   C521    1.403   .     A
C519   O547    1.388   .     S
C520   O549    1.388   .     S
C520   C522    1.405   .     A
C520   C524    1.402   .     A
C523   C527    1.421   .     A
C523   C529    1.416   .     A
C524   C530    1.417   .     A
C524   C528    1.422   .     A
C525   C531    1.413   .     A
C525   C527    1.420   .     A
C526   C532    1.412   .     A
C526   C528    1.421   .     A
C527   C578    1.401   .     S
C528   C577    1.401   1_455 S
C529   O535    1.380   .     S
C529   C582    1.400   .     S
C530   O537    1.379   .     S
C530   C581    1.401   1_455 S
C531   O539    1.386   .     S
C531   C580    1.401   .     S
C532   O541    1.386   .     S
C532   C579    1.400   1_455 S
C534   C333    1.163   1_565 S
O535   H536    0.992   .     S
O537   H538    0.992   .     S
O539   H540    0.990   .     S
O541   H542    0.990   .     S
O543   H544    0.992   .     S
O545   H546    0.992   .     S
O547   H548    0.989   .     S
O549   H550    0.988   .     S
O551   C555    1.263   .     A
O551   Zn563   1.950   .     S
O552   C556    1.263   .     A
O552   Zn564   1.950   .     S
O553   Zn563   1.949   .     S
O553   C556    1.262   .     A
O554   Zn564   1.949   .     S
O554   C555    1.262   .     A
C555   C583    1.362   .     S
C556   C584    1.362   .     S
O557   C561    1.270   .     A
O557   Zn563   2.011   .     S
O558   C562    1.270   .     A
O558   Zn564   2.011   .     S
O559   C562    1.271   .     A
O559   Zn563   2.013   .     S
O560   C561    1.269   .     A
O560   Zn564   2.013   .     S
C561   C572    1.423   .     S
C562   C571    1.426   .     S
Zn563  N566    1.978   .     S
Zn564  N565    1.978   .     S
N566   N865    1.196   .     S
C567   O593    1.380   .     S
C567   C575    1.404   .     A
C567   C571    1.391   .     A
C568   C576    1.401   .     A
C568   O595    1.382   .     S
C568   C572    1.390   .     A
C569   C573    1.400   .     A
C569   C571    1.403   .     A
C569   O597    1.388   .     S
C570   O599    1.388   .     S
C570   C572    1.405   .     A
C570   C574    1.402   .     A
C573   C577    1.421   .     A
C573   C579    1.416   .     A
C574   C580    1.417   .     A
C574   C578    1.422   .     A
C575   C581    1.413   .     A
C575   C577    1.420   .     A
C576   C582    1.412   .     A
C576   C578    1.421   .     A
C577   C528    1.401   1_655 S
C579   O585    1.380   .     S
C579   C532    1.400   1_655 S
C580   O587    1.379   .     S
C581   O589    1.386   .     S
C581   C530    1.401   1_655 S
C582   O591    1.386   .     S
C584   C383    1.163   1_565 S
O585   H586    0.992   .     S
O587   H588    0.992   .     S
O589   H590    0.990   .     S
O591   H592    0.990   .     S
O593   H594    0.992   .     S
O595   H596    0.992   .     S
O597   H598    0.989   .     S
O599   H600    0.988   .     S
O601   C605    1.263   .     A
O601   Zn613   1.950   .     S
O602   C606    1.263   .     A
O602   Zn614   1.950   .     S
O603   Zn613   1.949   .     S
O603   C606    1.262   .     A
O604   Zn614   1.949   .     S
O604   C605    1.262   .     A
C605   C633    1.362   .     S
C606   C634    1.362   .     S
O607   C611    1.270   .     A
O607   Zn613   2.011   .     S
O608   C612    1.270   .     A
O608   Zn614   2.011   .     S
O609   C612    1.271   .     A
O609   Zn613   2.013   .     S
O610   C611    1.269   .     A
O610   Zn614   2.013   .     S
C611   C622    1.423   .     S
C612   C621    1.426   .     S
Zn613  N616    1.978   .     S
Zn614  N615    1.978   .     S
N616   N15     1.196   1_556 S
C617   O643    1.380   .     S
C617   C625    1.404   .     A
C617   C621    1.391   .     A
C618   C626    1.401   .     A
C618   O645    1.382   .     S
C618   C622    1.390   .     A
C619   C623    1.400   .     A
C619   C621    1.403   .     A
C619   O647    1.388   .     S
C620   O649    1.388   .     S
C620   C622    1.405   .     A
C620   C624    1.402   .     A
C623   C627    1.421   .     A
C623   C629    1.416   .     A
C624   C630    1.417   .     A
C624   C628    1.422   .     A
C625   C631    1.413   .     A
C625   C627    1.420   .     A
C626   C632    1.412   .     A
C626   C628    1.421   .     A
C627   C678    1.401   .     S
C628   C677    1.401   1_455 S
C629   O635    1.380   .     S
C629   C682    1.400   .     S
C630   O637    1.379   .     S
C630   C681    1.401   1_455 S
C631   O639    1.386   .     S
C631   C680    1.401   .     S
C632   O641    1.386   .     S
C632   C679    1.400   1_455 S
C633   C834    1.163   1_545 S
C634   C733    1.163   .     S
O635   H636    0.992   .     S
O637   H638    0.992   .     S
O639   H640    0.990   .     S
O641   H642    0.990   .     S
O643   H644    0.992   .     S
O645   H646    0.992   .     S
O647   H648    0.989   .     S
O649   H650    0.988   .     S
O651   C655    1.263   .     A
O651   Zn663   1.950   .     S
O652   C656    1.263   .     A
O652   Zn664   1.950   .     S
O653   Zn663   1.949   .     S
O653   C656    1.262   .     A
O654   Zn664   1.949   .     S
O654   C655    1.262   .     A
C655   C683    1.362   .     S
C656   C684    1.362   .     S
O657   C661    1.270   .     A
O657   Zn663   2.011   .     S
O658   C662    1.270   .     A
O658   Zn664   2.011   .     S
O659   C662    1.271   .     A
O659   Zn663   2.013   .     S
O660   C661    1.269   .     A
O660   Zn664   2.013   .     S
C661   C672    1.423   .     S
C662   C671    1.426   .     S
Zn663  N666    1.978   .     S
Zn664  N665    1.978   .     S
N666   N65     1.196   1_556 S
C667   O693    1.380   .     S
C667   C675    1.404   .     A
C667   C671    1.391   .     A
C668   C676    1.401   .     A
C668   O695    1.382   .     S
C668   C672    1.390   .     A
C669   C673    1.400   .     A
C669   C671    1.403   .     A
C669   O697    1.388   .     S
C670   O699    1.388   .     S
C670   C672    1.405   .     A
C670   C674    1.402   .     A
C673   C677    1.421   .     A
C673   C679    1.416   .     A
C674   C680    1.417   .     A
C674   C678    1.422   .     A
C675   C681    1.413   .     A
C675   C677    1.420   .     A
C676   C682    1.412   .     A
C676   C678    1.421   .     A
C677   C628    1.401   1_655 S
C679   O685    1.380   .     S
C679   C632    1.400   1_655 S
C680   O687    1.379   .     S
C681   O689    1.386   .     S
C681   C630    1.401   1_655 S
C682   O691    1.386   .     S
C683   C884    1.163   1_545 S
C684   C783    1.163   .     S
O685   H686    0.992   .     S
O687   H688    0.992   .     S
O689   H690    0.990   .     S
O691   H692    0.990   .     S
O693   H694    0.992   .     S
O695   H696    0.992   .     S
O697   H698    0.989   .     S
O699   H700    0.988   .     S
O701   C705    1.263   .     A
O701   Zn713   1.950   .     S
O702   C706    1.263   .     A
O702   Zn714   1.950   .     S
O703   Zn713   1.949   .     S
O703   C706    1.262   .     A
O704   Zn714   1.949   .     S
O704   C705    1.262   .     A
C705   C733    1.362   .     S
C706   C734    1.362   .     S
O707   C711    1.270   .     A
O707   Zn713   2.011   .     S
O708   C712    1.270   .     A
O708   Zn714   2.011   .     S
O709   C712    1.271   .     A
O709   Zn713   2.013   .     S
O710   C711    1.269   .     A
O710   Zn714   2.013   .     S
C711   C722    1.423   .     S
C712   C721    1.426   .     S
Zn713  N716    1.978   .     S
Zn714  N715    1.978   .     S
N716   N115    1.196   1_556 S
C717   O743    1.380   .     S
C717   C725    1.404   .     A
C717   C721    1.391   .     A
C718   C726    1.401   .     A
C718   O745    1.382   .     S
C718   C722    1.390   .     A
C719   C723    1.400   .     A
C719   C721    1.403   .     A
C719   O747    1.388   .     S
C720   O749    1.388   .     S
C720   C722    1.405   .     A
C720   C724    1.402   .     A
C723   C727    1.421   .     A
C723   C729    1.416   .     A
C724   C730    1.417   .     A
C724   C728    1.422   .     A
C725   C731    1.413   .     A
C725   C727    1.420   .     A
C726   C732    1.412   .     A
C726   C728    1.421   .     A
C727   C778    1.401   .     S
C728   C777    1.401   1_455 S
C729   O735    1.380   .     S
C729   C782    1.400   .     S
C730   O737    1.379   .     S
C730   C781    1.401   1_455 S
C731   O739    1.386   .     S
C731   C780    1.401   .     S
C732   O741    1.386   .     S
C732   C779    1.400   1_455 S
C734   C833    1.163   .     S
O735   H736    0.992   .     S
O737   H738    0.992   .     S
O739   H740    0.990   .     S
O741   H742    0.990   .     S
O743   H744    0.992   .     S
O745   H746    0.992   .     S
O747   H748    0.989   .     S
O749   H750    0.988   .     S
O751   C755    1.263   .     A
O751   Zn763   1.950   .     S
O752   C756    1.263   .     A
O752   Zn764   1.950   .     S
O753   Zn763   1.949   .     S
O753   C756    1.262   .     A
O754   Zn764   1.949   .     S
O754   C755    1.262   .     A
C755   C783    1.362   .     S
C756   C784    1.362   .     S
O757   C761    1.270   .     A
O757   Zn763   2.011   .     S
O758   C762    1.270   .     A
O758   Zn764   2.011   .     S
O759   C762    1.271   .     A
O759   Zn763   2.013   .     S
O760   C761    1.269   .     A
O760   Zn764   2.013   .     S
C761   C772    1.423   .     S
C762   C771    1.426   .     S
Zn763  N766    1.978   .     S
Zn764  N765    1.978   .     S
N766   N165    1.196   1_556 S
C767   O793    1.380   .     S
C767   C775    1.404   .     A
C767   C771    1.391   .     A
C768   C776    1.401   .     A
C768   O795    1.382   .     S
C768   C772    1.390   .     A
C769   C773    1.400   .     A
C769   C771    1.403   .     A
C769   O797    1.388   .     S
C770   O799    1.388   .     S
C770   C772    1.405   .     A
C770   C774    1.402   .     A
C773   C777    1.421   .     A
C773   C779    1.416   .     A
C774   C780    1.417   .     A
C774   C778    1.422   .     A
C775   C781    1.413   .     A
C775   C777    1.420   .     A
C776   C782    1.412   .     A
C776   C778    1.421   .     A
C777   C728    1.401   1_655 S
C779   O785    1.380   .     S
C779   C732    1.400   1_655 S
C780   O787    1.379   .     S
C781   O789    1.386   .     S
C781   C730    1.401   1_655 S
C782   O791    1.386   .     S
C784   C883    1.163   .     S
O785   H786    0.992   .     S
O787   H788    0.992   .     S
O789   H790    0.990   .     S
O791   H792    0.990   .     S
O793   H794    0.992   .     S
O795   H796    0.992   .     S
O797   H798    0.989   .     S
O799   H800    0.988   .     S
O801   C805    1.263   .     A
O801   Zn813   1.950   .     S
O802   C806    1.263   .     A
O802   Zn814   1.950   .     S
O803   Zn813   1.949   .     S
O803   C806    1.262   .     A
O804   Zn814   1.949   .     S
O804   C805    1.262   .     A
C805   C833    1.362   .     S
C806   C834    1.362   .     S
O807   C811    1.270   .     A
O807   Zn813   2.011   .     S
O808   C812    1.270   .     A
O808   Zn814   2.011   .     S
O809   C812    1.271   .     A
O809   Zn813   2.013   .     S
O810   C811    1.269   .     A
O810   Zn814   2.013   .     S
C811   C822    1.423   .     S
C812   C821    1.426   .     S
Zn813  N816    1.978   .     S
Zn814  N815    1.978   .     S
N816   N215    1.196   1_556 S
C817   O843    1.380   .     S
C817   C825    1.404   .     A
C817   C821    1.391   .     A
C818   C826    1.401   .     A
C818   O845    1.382   .     S
C818   C822    1.390   .     A
C819   C823    1.400   .     A
C819   C821    1.403   .     A
C819   O847    1.388   .     S
C820   O849    1.388   .     S
C820   C822    1.405   .     A
C820   C824    1.402   .     A
C823   C827    1.421   .     A
C823   C829    1.416   .     A
C824   C830    1.417   .     A
C824   C828    1.422   .     A
C825   C831    1.413   .     A
C825   C827    1.420   .     A
C826   C832    1.412   .     A
C826   C828    1.421   .     A
C827   C878    1.401   .     S
C828   C877    1.401   1_455 S
C829   O835    1.380   .     S
C829   C882    1.400   .     S
C830   O837    1.379   .     S
C830   C881    1.401   1_455 S
C831   O839    1.386   .     S
C831   C880    1.401   .     S
C832   O841    1.386   .     S
C832   C879    1.400   1_455 S
C834   C633    1.163   1_565 S
O835   H836    0.992   .     S
O837   H838    0.992   .     S
O839   H840    0.990   .     S
O841   H842    0.990   .     S
O843   H844    0.992   .     S
O845   H846    0.992   .     S
O847   H848    0.989   .     S
O849   H850    0.988   .     S
O851   C855    1.263   .     A
O851   Zn863   1.950   .     S
O852   C856    1.263   .     A
O852   Zn864   1.950   .     S
O853   Zn863   1.949   .     S
O853   C856    1.262   .     A
O854   Zn864   1.949   .     S
O854   C855    1.262   .     A
C855   C883    1.362   .     S
C856   C884    1.362   .     S
O857   C861    1.270   .     A
O857   Zn863   2.011   .     S
O858   C862    1.270   .     A
O858   Zn864   2.011   .     S
O859   C862    1.271   .     A
O859   Zn863   2.013   .     S
O860   C861    1.269   .     A
O860   Zn864   2.013   .     S
C861   C872    1.423   .     S
C862   C871    1.426   .     S
Zn863  N866    1.978   .     S
Zn864  N865    1.978   .     S
N866   N265    1.196   1_556 S
C867   O893    1.380   .     S
C867   C875    1.404   .     A
C867   C871    1.391   .     A
C868   C876    1.401   .     A
C868   O895    1.382   .     S
C868   C872    1.390   .     A
C869   C873    1.400   .     A
C869   C871    1.403   .     A
C869   O897    1.388   .     S
C870   O899    1.388   .     S
C870   C872    1.405   .     A
C870   C874    1.402   .     A
C873   C877    1.421   .     A
C873   C879    1.416   .     A
C874   C880    1.417   .     A
C874   C878    1.422   .     A
C875   C881    1.413   .     A
C875   C877    1.420   .     A
C876   C882    1.412   .     A
C876   C878    1.421   .     A
C877   C828    1.401   1_655 S
C879   O885    1.380   .     S
C879   C832    1.400   1_655 S
C880   O887    1.379   .     S
C881   O889    1.386   .     S
C881   C830    1.401   1_655 S
C882   O891    1.386   .     S
C884   C683    1.163   1_565 S
O885   H886    0.992   .     S
O887   H888    0.992   .     S
O889   H890    0.990   .     S
O891   H892    0.990   .     S
O893   H894    0.992   .     S
O895   H896    0.992   .     S
O897   H898    0.989   .     S
O899   H900    0.988   .     S
