data_str_m3_o2_o5_pcu_sym.4
_audit_creation_date              2020-01-03
_audit_creation_method            'Materials Studio'
_symmetry_space_group_name_H-M    'P1'
_symmetry_Int_Tables_number       1
_symmetry_cell_setting            triclinic
loop_
_symmetry_equiv_pos_as_xyz
  x,y,z
_cell_length_a                    29.9340
_cell_length_b                    28.3848
_cell_length_c                    26.7111
_cell_angle_alpha                 89.9998
_cell_angle_beta                  90.0417
_cell_angle_gamma                 90.0003
loop_
_atom_site_label
_atom_site_type_symbol
_atom_site_fract_x
_atom_site_fract_y
_atom_site_fract_z
_atom_site_U_iso_or_equiv
_atom_site_adp_type
_atom_site_occupancy
C1     C     0.16412   0.25000   0.16664   0.00000  Uiso   1.00
C2     C     0.23004   0.44736   0.12755   0.00000  Uiso   1.00
C3     C     0.24999   0.25000   0.07286   0.00000  Uiso   1.00
C4     C     0.25002   0.25000   0.26047   0.00000  Uiso   1.00
C5     C     0.25000   0.02668   0.16667   0.00000  Uiso   1.00
C6     C     0.25000   0.47331   0.16667   0.00000  Uiso   1.00
C7     C     0.24999   0.25001   0.02179   0.00000  Uiso   1.00
C8     C     0.25001   0.25001   0.31154   0.00000  Uiso   1.00
C9     C     0.04712   0.26703   0.20845   0.00000  Uiso   1.00
C10    C     0.45295   0.23306   0.20849   0.00000  Uiso   1.00
C11    C     0.45288   0.26702   0.12488   0.00000  Uiso   1.00
C12    C     0.33588   0.25000   0.16669   0.00000  Uiso   1.00
C13    C     0.04705   0.23304   0.12485   0.00000  Uiso   1.00
C14    C     0.09344   0.26692   0.20908   0.00000  Uiso   1.00
C15    C     0.40663   0.23319   0.20916   0.00000  Uiso   1.00
C16    C     0.40656   0.26691   0.12425   0.00000  Uiso   1.00
C17    C     0.09337   0.23317   0.12418   0.00000  Uiso   1.00
C18    C     0.11633   0.25002   0.16664   0.00000  Uiso   1.00
C19    C     0.38367   0.25002   0.16670   0.00000  Uiso   1.00
C20    C     0.02415   0.25002   0.16666   0.00000  Uiso   1.00
C21    C     0.47585   0.25002   0.16667   0.00000  Uiso   1.00
C22    C     0.11778   0.28392   0.25522   0.00000  Uiso   1.00
C23    C     0.21561   0.10221   0.14500   0.00000  Uiso   1.00
C24    C     0.38238   0.21639   0.25539   0.00000  Uiso   1.00
C25    C     0.38222   0.28389   0.07810   0.00000  Uiso   1.00
C26    C     0.11762   0.21636   0.07795   0.00000  Uiso   1.00
C27    C     0.26971   0.39778   0.20497   0.00000  Uiso   1.00
C28    C     0.28439   0.10221   0.18833   0.00000  Uiso   1.00
C29    C     0.23029   0.39778   0.12836   0.00000  Uiso   1.00
C30    C     0.21489   0.05263   0.14471   0.00000  Uiso   1.00
C31    C     0.26997   0.44736   0.20578   0.00000  Uiso   1.00
C32    C     0.28511   0.05263   0.18862   0.00000  Uiso   1.00
H33    H     0.18843   0.12150   0.12794   0.00000  Uiso   1.00
H34    H     0.28520   0.46508   0.23733   0.00000  Uiso   1.00
H35    H     0.31343   0.03492   0.20536   0.00000  Uiso   1.00
H36    H     0.21481   0.46508   0.09600   0.00000  Uiso   1.00
H37    H     0.13816   0.31541   0.24604   0.00000  Uiso   1.00
H38    H     0.09428   0.29376   0.28565   0.00000  Uiso   1.00
H39    H     0.13996   0.25561   0.26961   0.00000  Uiso   1.00
H40    H     0.36023   0.24475   0.26967   0.00000  Uiso   1.00
H41    H     0.36198   0.18487   0.24638   0.00000  Uiso   1.00
H42    H     0.40593   0.20666   0.28585   0.00000  Uiso   1.00
H43    H     0.36184   0.31539   0.08727   0.00000  Uiso   1.00
H44    H     0.28524   0.37846   0.23524   0.00000  Uiso   1.00
H45    H     0.40572   0.29372   0.04767   0.00000  Uiso   1.00
H46    H     0.36004   0.25558   0.06372   0.00000  Uiso   1.00
H47    H     0.13977   0.24472   0.06366   0.00000  Uiso   1.00
H48    H     0.13802   0.18485   0.08698   0.00000  Uiso   1.00
H49    H     0.09407   0.20663   0.04750   0.00000  Uiso   1.00
H50    H     0.31157   0.12151   0.20539   0.00000  Uiso   1.00
H51    H     0.21476   0.37846   0.09809   0.00000  Uiso   1.00
H52    H     0.02882   0.28056   0.24037   0.00000  Uiso   1.00
H53    H     0.47131   0.21956   0.24042   0.00000  Uiso   1.00
H54    H     0.47118   0.28054   0.09295   0.00000  Uiso   1.00
H55    H     0.02869   0.21954   0.09292   0.00000  Uiso   1.00
H56    H     0.18658   0.03492   0.12798   0.00000  Uiso   1.00
N57    N     0.25000   0.12623   0.16667   0.00000  Uiso   1.00
N58    N     0.25000   0.37376   0.16667   0.00000  Uiso   1.00
O59    O     0.18453   0.28974   0.16667   0.00000  Uiso   1.00
O60    O     0.31547   0.21026   0.16666   0.00000  Uiso   1.00
O61    O     0.31547   0.28974   0.16666   0.00000  Uiso   1.00
O62    O     0.18453   0.21026   0.16667   0.00000  Uiso   1.00
O63    O     0.25000   0.28973   0.09511   0.00000  Uiso   1.00
O64    O     0.25000   0.21027   0.23822   0.00000  Uiso   1.00
O65    O     0.25000   0.28973   0.23822   0.00000  Uiso   1.00
O66    O     0.25000   0.21027   0.09511   0.00000  Uiso   1.00
Zn67   Zn    0.25000   0.30307   0.16667   0.00000  Uiso   1.00
Zn68   Zn    0.25000   0.19693   0.16667   0.00000  Uiso   1.00
C69    C     0.66412   0.25000   0.16664   0.00000  Uiso   1.00
C70    C     0.73004   0.44736   0.12755   0.00000  Uiso   1.00
C71    C     0.74999   0.25000   0.07286   0.00000  Uiso   1.00
C72    C     0.75002   0.25000   0.26047   0.00000  Uiso   1.00
C73    C     0.75000   0.02668   0.16667   0.00000  Uiso   1.00
C74    C     0.75000   0.47331   0.16667   0.00000  Uiso   1.00
C75    C     0.74999   0.25001   0.02179   0.00000  Uiso   1.00
C76    C     0.75001   0.25001   0.31154   0.00000  Uiso   1.00
C77    C     0.54712   0.26703   0.20845   0.00000  Uiso   1.00
C78    C     0.95295   0.23306   0.20849   0.00000  Uiso   1.00
C79    C     0.95288   0.26702   0.12488   0.00000  Uiso   1.00
C80    C     0.83588   0.25000   0.16669   0.00000  Uiso   1.00
C81    C     0.54705   0.23304   0.12485   0.00000  Uiso   1.00
C82    C     0.59344   0.26692   0.20908   0.00000  Uiso   1.00
C83    C     0.90663   0.23319   0.20916   0.00000  Uiso   1.00
C84    C     0.90656   0.26691   0.12425   0.00000  Uiso   1.00
C85    C     0.59337   0.23317   0.12418   0.00000  Uiso   1.00
C86    C     0.61633   0.25002   0.16664   0.00000  Uiso   1.00
C87    C     0.88367   0.25002   0.16670   0.00000  Uiso   1.00
C88    C     0.52415   0.25002   0.16666   0.00000  Uiso   1.00
C89    C     0.97585   0.25002   0.16667   0.00000  Uiso   1.00
C90    C     0.61778   0.28392   0.25522   0.00000  Uiso   1.00
C91    C     0.71561   0.10221   0.14500   0.00000  Uiso   1.00
C92    C     0.88238   0.21639   0.25539   0.00000  Uiso   1.00
C93    C     0.88222   0.28389   0.07810   0.00000  Uiso   1.00
C94    C     0.61762   0.21636   0.07795   0.00000  Uiso   1.00
C95    C     0.76971   0.39778   0.20497   0.00000  Uiso   1.00
C96    C     0.78439   0.10221   0.18833   0.00000  Uiso   1.00
C97    C     0.73029   0.39778   0.12836   0.00000  Uiso   1.00
C98    C     0.71489   0.05263   0.14471   0.00000  Uiso   1.00
C99    C     0.76997   0.44736   0.20578   0.00000  Uiso   1.00
C100   C     0.78511   0.05263   0.18862   0.00000  Uiso   1.00
H101   H     0.68843   0.12150   0.12794   0.00000  Uiso   1.00
H102   H     0.78520   0.46508   0.23733   0.00000  Uiso   1.00
H103   H     0.81343   0.03492   0.20536   0.00000  Uiso   1.00
H104   H     0.71481   0.46508   0.09600   0.00000  Uiso   1.00
H105   H     0.63816   0.31541   0.24604   0.00000  Uiso   1.00
H106   H     0.59428   0.29376   0.28565   0.00000  Uiso   1.00
H107   H     0.63996   0.25561   0.26961   0.00000  Uiso   1.00
H108   H     0.86023   0.24475   0.26967   0.00000  Uiso   1.00
H109   H     0.86198   0.18487   0.24638   0.00000  Uiso   1.00
H110   H     0.90593   0.20666   0.28585   0.00000  Uiso   1.00
H111   H     0.86184   0.31539   0.08727   0.00000  Uiso   1.00
H112   H     0.78524   0.37846   0.23524   0.00000  Uiso   1.00
H113   H     0.90572   0.29372   0.04767   0.00000  Uiso   1.00
H114   H     0.86004   0.25558   0.06372   0.00000  Uiso   1.00
H115   H     0.63977   0.24472   0.06366   0.00000  Uiso   1.00
H116   H     0.63802   0.18485   0.08698   0.00000  Uiso   1.00
H117   H     0.59407   0.20663   0.04750   0.00000  Uiso   1.00
H118   H     0.81157   0.12151   0.20539   0.00000  Uiso   1.00
H119   H     0.71476   0.37846   0.09809   0.00000  Uiso   1.00
H120   H     0.52882   0.28056   0.24037   0.00000  Uiso   1.00
H121   H     0.97131   0.21956   0.24042   0.00000  Uiso   1.00
H122   H     0.97118   0.28054   0.09295   0.00000  Uiso   1.00
H123   H     0.52869   0.21954   0.09292   0.00000  Uiso   1.00
H124   H     0.68658   0.03492   0.12798   0.00000  Uiso   1.00
N125   N     0.75000   0.12623   0.16667   0.00000  Uiso   1.00
N126   N     0.75000   0.37376   0.16667   0.00000  Uiso   1.00
O127   O     0.68453   0.28974   0.16667   0.00000  Uiso   1.00
O128   O     0.81547   0.21026   0.16666   0.00000  Uiso   1.00
O129   O     0.81547   0.28974   0.16666   0.00000  Uiso   1.00
O130   O     0.68453   0.21026   0.16667   0.00000  Uiso   1.00
O131   O     0.75000   0.28973   0.09511   0.00000  Uiso   1.00
O132   O     0.75000   0.21027   0.23822   0.00000  Uiso   1.00
O133   O     0.75000   0.28973   0.23822   0.00000  Uiso   1.00
O134   O     0.75000   0.21027   0.09511   0.00000  Uiso   1.00
Zn135  Zn    0.75000   0.30307   0.16667   0.00000  Uiso   1.00
Zn136  Zn    0.75000   0.19693   0.16667   0.00000  Uiso   1.00
C137   C     0.16412   0.75000   0.16664   0.00000  Uiso   1.00
C138   C     0.23004   0.94736   0.12755   0.00000  Uiso   1.00
C139   C     0.24999   0.75000   0.07286   0.00000  Uiso   1.00
C140   C     0.25002   0.75000   0.26047   0.00000  Uiso   1.00
C141   C     0.25000   0.52668   0.16667   0.00000  Uiso   1.00
C142   C     0.25000   0.97331   0.16667   0.00000  Uiso   1.00
C143   C     0.24999   0.75001   0.02179   0.00000  Uiso   1.00
C144   C     0.25001   0.75001   0.31154   0.00000  Uiso   1.00
C145   C     0.04712   0.76703   0.20845   0.00000  Uiso   1.00
C146   C     0.45295   0.73306   0.20849   0.00000  Uiso   1.00
C147   C     0.45288   0.76702   0.12488   0.00000  Uiso   1.00
C148   C     0.33588   0.75000   0.16669   0.00000  Uiso   1.00
C149   C     0.04705   0.73304   0.12485   0.00000  Uiso   1.00
C150   C     0.09344   0.76692   0.20908   0.00000  Uiso   1.00
C151   C     0.40663   0.73319   0.20916   0.00000  Uiso   1.00
C152   C     0.40656   0.76691   0.12425   0.00000  Uiso   1.00
C153   C     0.09337   0.73317   0.12418   0.00000  Uiso   1.00
C154   C     0.11633   0.75002   0.16664   0.00000  Uiso   1.00
C155   C     0.38367   0.75002   0.16670   0.00000  Uiso   1.00
C156   C     0.02415   0.75002   0.16666   0.00000  Uiso   1.00
C157   C     0.47585   0.75002   0.16667   0.00000  Uiso   1.00
C158   C     0.11778   0.78392   0.25522   0.00000  Uiso   1.00
C159   C     0.21561   0.60221   0.14500   0.00000  Uiso   1.00
C160   C     0.38238   0.71639   0.25539   0.00000  Uiso   1.00
C161   C     0.38222   0.78389   0.07810   0.00000  Uiso   1.00
C162   C     0.11762   0.71636   0.07795   0.00000  Uiso   1.00
C163   C     0.26971   0.89778   0.20497   0.00000  Uiso   1.00
C164   C     0.28439   0.60221   0.18833   0.00000  Uiso   1.00
C165   C     0.23029   0.89778   0.12836   0.00000  Uiso   1.00
C166   C     0.21489   0.55263   0.14471   0.00000  Uiso   1.00
C167   C     0.26997   0.94736   0.20578   0.00000  Uiso   1.00
C168   C     0.28511   0.55263   0.18862   0.00000  Uiso   1.00
H169   H     0.18843   0.62150   0.12794   0.00000  Uiso   1.00
H170   H     0.28520   0.96508   0.23733   0.00000  Uiso   1.00
H171   H     0.31343   0.53492   0.20536   0.00000  Uiso   1.00
H172   H     0.21481   0.96508   0.09600   0.00000  Uiso   1.00
H173   H     0.13816   0.81541   0.24604   0.00000  Uiso   1.00
H174   H     0.09428   0.79376   0.28565   0.00000  Uiso   1.00
H175   H     0.13996   0.75561   0.26961   0.00000  Uiso   1.00
H176   H     0.36023   0.74475   0.26967   0.00000  Uiso   1.00
H177   H     0.36198   0.68487   0.24638   0.00000  Uiso   1.00
H178   H     0.40593   0.70666   0.28585   0.00000  Uiso   1.00
H179   H     0.36184   0.81539   0.08727   0.00000  Uiso   1.00
H180   H     0.28524   0.87846   0.23524   0.00000  Uiso   1.00
H181   H     0.40572   0.79372   0.04767   0.00000  Uiso   1.00
H182   H     0.36004   0.75558   0.06372   0.00000  Uiso   1.00
H183   H     0.13977   0.74472   0.06366   0.00000  Uiso   1.00
H184   H     0.13802   0.68485   0.08698   0.00000  Uiso   1.00
H185   H     0.09407   0.70663   0.04750   0.00000  Uiso   1.00
H186   H     0.31157   0.62151   0.20539   0.00000  Uiso   1.00
H187   H     0.21476   0.87846   0.09809   0.00000  Uiso   1.00
H188   H     0.02882   0.78056   0.24037   0.00000  Uiso   1.00
H189   H     0.47131   0.71956   0.24042   0.00000  Uiso   1.00
H190   H     0.47118   0.78054   0.09295   0.00000  Uiso   1.00
H191   H     0.02869   0.71954   0.09292   0.00000  Uiso   1.00
H192   H     0.18658   0.53492   0.12798   0.00000  Uiso   1.00
N193   N     0.25000   0.62623   0.16667   0.00000  Uiso   1.00
N194   N     0.25000   0.87376   0.16667   0.00000  Uiso   1.00
O195   O     0.18453   0.78974   0.16667   0.00000  Uiso   1.00
O196   O     0.31547   0.71026   0.16666   0.00000  Uiso   1.00
O197   O     0.31547   0.78974   0.16666   0.00000  Uiso   1.00
O198   O     0.18453   0.71026   0.16667   0.00000  Uiso   1.00
O199   O     0.25000   0.78973   0.09511   0.00000  Uiso   1.00
O200   O     0.25000   0.71027   0.23822   0.00000  Uiso   1.00
O201   O     0.25000   0.78973   0.23822   0.00000  Uiso   1.00
O202   O     0.25000   0.71027   0.09511   0.00000  Uiso   1.00
Zn203  Zn    0.25000   0.80307   0.16667   0.00000  Uiso   1.00
Zn204  Zn    0.25000   0.69693   0.16667   0.00000  Uiso   1.00
C205   C     0.66412   0.75000   0.16664   0.00000  Uiso   1.00
C206   C     0.73004   0.94736   0.12755   0.00000  Uiso   1.00
C207   C     0.74999   0.75000   0.07286   0.00000  Uiso   1.00
C208   C     0.75002   0.75000   0.26047   0.00000  Uiso   1.00
C209   C     0.75000   0.52668   0.16667   0.00000  Uiso   1.00
C210   C     0.75000   0.97331   0.16667   0.00000  Uiso   1.00
C211   C     0.74999   0.75001   0.02179   0.00000  Uiso   1.00
C212   C     0.75001   0.75001   0.31154   0.00000  Uiso   1.00
C213   C     0.54712   0.76703   0.20845   0.00000  Uiso   1.00
C214   C     0.95295   0.73306   0.20849   0.00000  Uiso   1.00
C215   C     0.95288   0.76702   0.12488   0.00000  Uiso   1.00
C216   C     0.83588   0.75000   0.16669   0.00000  Uiso   1.00
C217   C     0.54705   0.73304   0.12485   0.00000  Uiso   1.00
C218   C     0.59344   0.76692   0.20908   0.00000  Uiso   1.00
C219   C     0.90663   0.73319   0.20916   0.00000  Uiso   1.00
C220   C     0.90656   0.76691   0.12425   0.00000  Uiso   1.00
C221   C     0.59337   0.73317   0.12418   0.00000  Uiso   1.00
C222   C     0.61633   0.75002   0.16664   0.00000  Uiso   1.00
C223   C     0.88367   0.75002   0.16670   0.00000  Uiso   1.00
C224   C     0.52415   0.75002   0.16666   0.00000  Uiso   1.00
C225   C     0.97585   0.75002   0.16667   0.00000  Uiso   1.00
C226   C     0.61778   0.78392   0.25522   0.00000  Uiso   1.00
C227   C     0.71561   0.60221   0.14500   0.00000  Uiso   1.00
C228   C     0.88238   0.71639   0.25539   0.00000  Uiso   1.00
C229   C     0.88222   0.78389   0.07810   0.00000  Uiso   1.00
C230   C     0.61762   0.71636   0.07795   0.00000  Uiso   1.00
C231   C     0.76971   0.89778   0.20497   0.00000  Uiso   1.00
C232   C     0.78439   0.60221   0.18833   0.00000  Uiso   1.00
C233   C     0.73029   0.89778   0.12836   0.00000  Uiso   1.00
C234   C     0.71489   0.55263   0.14471   0.00000  Uiso   1.00
C235   C     0.76997   0.94736   0.20578   0.00000  Uiso   1.00
C236   C     0.78511   0.55263   0.18862   0.00000  Uiso   1.00
H237   H     0.68843   0.62150   0.12794   0.00000  Uiso   1.00
H238   H     0.78520   0.96508   0.23733   0.00000  Uiso   1.00
H239   H     0.81343   0.53492   0.20536   0.00000  Uiso   1.00
H240   H     0.71481   0.96508   0.09600   0.00000  Uiso   1.00
H241   H     0.63816   0.81541   0.24604   0.00000  Uiso   1.00
H242   H     0.59428   0.79376   0.28565   0.00000  Uiso   1.00
H243   H     0.63996   0.75561   0.26961   0.00000  Uiso   1.00
H244   H     0.86023   0.74475   0.26967   0.00000  Uiso   1.00
H245   H     0.86198   0.68487   0.24638   0.00000  Uiso   1.00
H246   H     0.90593   0.70666   0.28585   0.00000  Uiso   1.00
H247   H     0.86184   0.81539   0.08727   0.00000  Uiso   1.00
H248   H     0.78524   0.87846   0.23524   0.00000  Uiso   1.00
H249   H     0.90572   0.79372   0.04767   0.00000  Uiso   1.00
H250   H     0.86004   0.75558   0.06372   0.00000  Uiso   1.00
H251   H     0.63977   0.74472   0.06366   0.00000  Uiso   1.00
H252   H     0.63802   0.68485   0.08698   0.00000  Uiso   1.00
H253   H     0.59407   0.70663   0.04750   0.00000  Uiso   1.00
H254   H     0.81157   0.62151   0.20539   0.00000  Uiso   1.00
H255   H     0.71476   0.87846   0.09809   0.00000  Uiso   1.00
H256   H     0.52882   0.78056   0.24037   0.00000  Uiso   1.00
H257   H     0.97131   0.71956   0.24042   0.00000  Uiso   1.00
H258   H     0.97118   0.78054   0.09295   0.00000  Uiso   1.00
H259   H     0.52869   0.71954   0.09292   0.00000  Uiso   1.00
H260   H     0.68658   0.53492   0.12798   0.00000  Uiso   1.00
N261   N     0.75000   0.62623   0.16667   0.00000  Uiso   1.00
N262   N     0.75000   0.87376   0.16667   0.00000  Uiso   1.00
O263   O     0.68453   0.78974   0.16667   0.00000  Uiso   1.00
O264   O     0.81547   0.71026   0.16666   0.00000  Uiso   1.00
O265   O     0.81547   0.78974   0.16666   0.00000  Uiso   1.00
O266   O     0.68453   0.71026   0.16667   0.00000  Uiso   1.00
O267   O     0.75000   0.78973   0.09511   0.00000  Uiso   1.00
O268   O     0.75000   0.71027   0.23822   0.00000  Uiso   1.00
O269   O     0.75000   0.78973   0.23822   0.00000  Uiso   1.00
O270   O     0.75000   0.71027   0.09511   0.00000  Uiso   1.00
Zn271  Zn    0.75000   0.80307   0.16667   0.00000  Uiso   1.00
Zn272  Zn    0.75000   0.69693   0.16667   0.00000  Uiso   1.00
C273   C     0.16412   0.25000   0.49997   0.00000  Uiso   1.00
C274   C     0.23004   0.44736   0.46088   0.00000  Uiso   1.00
C275   C     0.24999   0.25000   0.40620   0.00000  Uiso   1.00
C276   C     0.25002   0.25000   0.59380   0.00000  Uiso   1.00
C277   C     0.25000   0.02668   0.50000   0.00000  Uiso   1.00
C278   C     0.25000   0.47331   0.50000   0.00000  Uiso   1.00
C279   C     0.24999   0.25001   0.35513   0.00000  Uiso   1.00
C280   C     0.25001   0.25001   0.64487   0.00000  Uiso   1.00
C281   C     0.04712   0.26703   0.54178   0.00000  Uiso   1.00
C282   C     0.45295   0.23306   0.54182   0.00000  Uiso   1.00
C283   C     0.45288   0.26702   0.45821   0.00000  Uiso   1.00
C284   C     0.33588   0.25000   0.50003   0.00000  Uiso   1.00
C285   C     0.04705   0.23304   0.45818   0.00000  Uiso   1.00
C286   C     0.09344   0.26692   0.54241   0.00000  Uiso   1.00
C287   C     0.40663   0.23319   0.54249   0.00000  Uiso   1.00
C288   C     0.40656   0.26691   0.45758   0.00000  Uiso   1.00
C289   C     0.09337   0.23317   0.45752   0.00000  Uiso   1.00
C290   C     0.11633   0.25002   0.49997   0.00000  Uiso   1.00
C291   C     0.38367   0.25002   0.50003   0.00000  Uiso   1.00
C292   C     0.02415   0.25002   0.49999   0.00000  Uiso   1.00
C293   C     0.47585   0.25002   0.50001   0.00000  Uiso   1.00
C294   C     0.11778   0.28392   0.58855   0.00000  Uiso   1.00
C295   C     0.21561   0.10221   0.47833   0.00000  Uiso   1.00
C296   C     0.38238   0.21639   0.58873   0.00000  Uiso   1.00
C297   C     0.38222   0.28389   0.41144   0.00000  Uiso   1.00
C298   C     0.11762   0.21636   0.41129   0.00000  Uiso   1.00
C299   C     0.26971   0.39778   0.53830   0.00000  Uiso   1.00
C300   C     0.28439   0.10221   0.52166   0.00000  Uiso   1.00
C301   C     0.23029   0.39778   0.46170   0.00000  Uiso   1.00
C302   C     0.21489   0.05263   0.47805   0.00000  Uiso   1.00
C303   C     0.26997   0.44736   0.53912   0.00000  Uiso   1.00
C304   C     0.28511   0.05263   0.52195   0.00000  Uiso   1.00
H305   H     0.18843   0.12150   0.46127   0.00000  Uiso   1.00
H306   H     0.28520   0.46508   0.57067   0.00000  Uiso   1.00
H307   H     0.31343   0.03492   0.53869   0.00000  Uiso   1.00
H308   H     0.21481   0.46508   0.42933   0.00000  Uiso   1.00
H309   H     0.13816   0.31541   0.57937   0.00000  Uiso   1.00
H310   H     0.09428   0.29376   0.61898   0.00000  Uiso   1.00
H311   H     0.13996   0.25561   0.60295   0.00000  Uiso   1.00
H312   H     0.36023   0.24475   0.60301   0.00000  Uiso   1.00
H313   H     0.36198   0.18487   0.57971   0.00000  Uiso   1.00
H314   H     0.40593   0.20666   0.61918   0.00000  Uiso   1.00
H315   H     0.36184   0.31539   0.42061   0.00000  Uiso   1.00
H316   H     0.28524   0.37846   0.56857   0.00000  Uiso   1.00
H317   H     0.40572   0.29372   0.38100   0.00000  Uiso   1.00
H318   H     0.36004   0.25558   0.39705   0.00000  Uiso   1.00
H319   H     0.13977   0.24472   0.39699   0.00000  Uiso   1.00
H320   H     0.13802   0.18485   0.42031   0.00000  Uiso   1.00
H321   H     0.09407   0.20663   0.38084   0.00000  Uiso   1.00
H322   H     0.31157   0.12151   0.53873   0.00000  Uiso   1.00
H323   H     0.21476   0.37846   0.43143   0.00000  Uiso   1.00
H324   H     0.02882   0.28056   0.57370   0.00000  Uiso   1.00
H325   H     0.47131   0.21956   0.57376   0.00000  Uiso   1.00
H326   H     0.47118   0.28054   0.42629   0.00000  Uiso   1.00
H327   H     0.02869   0.21954   0.42626   0.00000  Uiso   1.00
H328   H     0.18658   0.03492   0.46131   0.00000  Uiso   1.00
N329   N     0.25000   0.12623   0.50000   0.00000  Uiso   1.00
N330   N     0.25000   0.37376   0.50000   0.00000  Uiso   1.00
O331   O     0.18453   0.28974   0.50000   0.00000  Uiso   1.00
O332   O     0.31547   0.21026   0.50000   0.00000  Uiso   1.00
O333   O     0.31547   0.28974   0.50000   0.00000  Uiso   1.00
O334   O     0.18453   0.21026   0.50000   0.00000  Uiso   1.00
O335   O     0.25000   0.28973   0.42845   0.00000  Uiso   1.00
O336   O     0.25000   0.21027   0.57155   0.00000  Uiso   1.00
O337   O     0.25000   0.28973   0.57155   0.00000  Uiso   1.00
O338   O     0.25000   0.21027   0.42845   0.00000  Uiso   1.00
Zn339  Zn    0.25000   0.30307   0.50000   0.00000  Uiso   1.00
Zn340  Zn    0.25000   0.19693   0.50000   0.00000  Uiso   1.00
C341   C     0.66412   0.25000   0.49997   0.00000  Uiso   1.00
C342   C     0.73004   0.44736   0.46088   0.00000  Uiso   1.00
C343   C     0.74999   0.25000   0.40620   0.00000  Uiso   1.00
C344   C     0.75002   0.25000   0.59380   0.00000  Uiso   1.00
C345   C     0.75000   0.02668   0.50000   0.00000  Uiso   1.00
C346   C     0.75000   0.47331   0.50000   0.00000  Uiso   1.00
C347   C     0.74999   0.25001   0.35513   0.00000  Uiso   1.00
C348   C     0.75001   0.25001   0.64487   0.00000  Uiso   1.00
C349   C     0.54712   0.26703   0.54178   0.00000  Uiso   1.00
C350   C     0.95295   0.23306   0.54182   0.00000  Uiso   1.00
C351   C     0.95288   0.26702   0.45821   0.00000  Uiso   1.00
C352   C     0.83588   0.25000   0.50003   0.00000  Uiso   1.00
C353   C     0.54705   0.23304   0.45818   0.00000  Uiso   1.00
C354   C     0.59344   0.26692   0.54241   0.00000  Uiso   1.00
C355   C     0.90663   0.23319   0.54249   0.00000  Uiso   1.00
C356   C     0.90656   0.26691   0.45758   0.00000  Uiso   1.00
C357   C     0.59337   0.23317   0.45752   0.00000  Uiso   1.00
C358   C     0.61633   0.25002   0.49997   0.00000  Uiso   1.00
C359   C     0.88367   0.25002   0.50003   0.00000  Uiso   1.00
C360   C     0.52415   0.25002   0.49999   0.00000  Uiso   1.00
C361   C     0.97585   0.25002   0.50001   0.00000  Uiso   1.00
C362   C     0.61778   0.28392   0.58855   0.00000  Uiso   1.00
C363   C     0.71561   0.10221   0.47833   0.00000  Uiso   1.00
C364   C     0.88238   0.21639   0.58873   0.00000  Uiso   1.00
C365   C     0.88222   0.28389   0.41144   0.00000  Uiso   1.00
C366   C     0.61762   0.21636   0.41129   0.00000  Uiso   1.00
C367   C     0.76971   0.39778   0.53830   0.00000  Uiso   1.00
C368   C     0.78439   0.10221   0.52166   0.00000  Uiso   1.00
C369   C     0.73029   0.39778   0.46170   0.00000  Uiso   1.00
C370   C     0.71489   0.05263   0.47805   0.00000  Uiso   1.00
C371   C     0.76997   0.44736   0.53912   0.00000  Uiso   1.00
C372   C     0.78511   0.05263   0.52195   0.00000  Uiso   1.00
H373   H     0.68843   0.12150   0.46127   0.00000  Uiso   1.00
H374   H     0.78520   0.46508   0.57067   0.00000  Uiso   1.00
H375   H     0.81343   0.03492   0.53869   0.00000  Uiso   1.00
H376   H     0.71481   0.46508   0.42933   0.00000  Uiso   1.00
H377   H     0.63816   0.31541   0.57937   0.00000  Uiso   1.00
H378   H     0.59428   0.29376   0.61898   0.00000  Uiso   1.00
H379   H     0.63996   0.25561   0.60295   0.00000  Uiso   1.00
H380   H     0.86023   0.24475   0.60301   0.00000  Uiso   1.00
H381   H     0.86198   0.18487   0.57971   0.00000  Uiso   1.00
H382   H     0.90593   0.20666   0.61918   0.00000  Uiso   1.00
H383   H     0.86184   0.31539   0.42061   0.00000  Uiso   1.00
H384   H     0.78524   0.37846   0.56857   0.00000  Uiso   1.00
H385   H     0.90572   0.29372   0.38100   0.00000  Uiso   1.00
H386   H     0.86004   0.25558   0.39705   0.00000  Uiso   1.00
H387   H     0.63977   0.24472   0.39699   0.00000  Uiso   1.00
H388   H     0.63802   0.18485   0.42031   0.00000  Uiso   1.00
H389   H     0.59407   0.20663   0.38084   0.00000  Uiso   1.00
H390   H     0.81157   0.12151   0.53873   0.00000  Uiso   1.00
H391   H     0.71476   0.37846   0.43143   0.00000  Uiso   1.00
H392   H     0.52882   0.28056   0.57370   0.00000  Uiso   1.00
H393   H     0.97131   0.21956   0.57376   0.00000  Uiso   1.00
H394   H     0.97118   0.28054   0.42629   0.00000  Uiso   1.00
H395   H     0.52869   0.21954   0.42626   0.00000  Uiso   1.00
H396   H     0.68658   0.03492   0.46131   0.00000  Uiso   1.00
N397   N     0.75000   0.12623   0.50000   0.00000  Uiso   1.00
N398   N     0.75000   0.37376   0.50000   0.00000  Uiso   1.00
O399   O     0.68453   0.28974   0.50000   0.00000  Uiso   1.00
O400   O     0.81547   0.21026   0.50000   0.00000  Uiso   1.00
O401   O     0.81547   0.28974   0.50000   0.00000  Uiso   1.00
O402   O     0.68453   0.21026   0.50000   0.00000  Uiso   1.00
O403   O     0.75000   0.28973   0.42845   0.00000  Uiso   1.00
O404   O     0.75000   0.21027   0.57155   0.00000  Uiso   1.00
O405   O     0.75000   0.28973   0.57155   0.00000  Uiso   1.00
O406   O     0.75000   0.21027   0.42845   0.00000  Uiso   1.00
Zn407  Zn    0.75000   0.30307   0.50000   0.00000  Uiso   1.00
Zn408  Zn    0.75000   0.19693   0.50000   0.00000  Uiso   1.00
C409   C     0.16412   0.75000   0.49997   0.00000  Uiso   1.00
C410   C     0.23004   0.94736   0.46088   0.00000  Uiso   1.00
C411   C     0.24999   0.75000   0.40620   0.00000  Uiso   1.00
C412   C     0.25002   0.75000   0.59380   0.00000  Uiso   1.00
C413   C     0.25000   0.52668   0.50000   0.00000  Uiso   1.00
C414   C     0.25000   0.97331   0.50000   0.00000  Uiso   1.00
C415   C     0.24999   0.75001   0.35513   0.00000  Uiso   1.00
C416   C     0.25001   0.75001   0.64487   0.00000  Uiso   1.00
C417   C     0.04712   0.76703   0.54178   0.00000  Uiso   1.00
C418   C     0.45295   0.73306   0.54182   0.00000  Uiso   1.00
C419   C     0.45288   0.76702   0.45821   0.00000  Uiso   1.00
C420   C     0.33588   0.75000   0.50003   0.00000  Uiso   1.00
C421   C     0.04705   0.73304   0.45818   0.00000  Uiso   1.00
C422   C     0.09344   0.76692   0.54241   0.00000  Uiso   1.00
C423   C     0.40663   0.73319   0.54249   0.00000  Uiso   1.00
C424   C     0.40656   0.76691   0.45758   0.00000  Uiso   1.00
C425   C     0.09337   0.73317   0.45752   0.00000  Uiso   1.00
C426   C     0.11633   0.75002   0.49997   0.00000  Uiso   1.00
C427   C     0.38367   0.75002   0.50003   0.00000  Uiso   1.00
C428   C     0.02415   0.75002   0.49999   0.00000  Uiso   1.00
C429   C     0.47585   0.75002   0.50001   0.00000  Uiso   1.00
C430   C     0.11778   0.78392   0.58855   0.00000  Uiso   1.00
C431   C     0.21561   0.60221   0.47833   0.00000  Uiso   1.00
C432   C     0.38238   0.71639   0.58873   0.00000  Uiso   1.00
C433   C     0.38222   0.78389   0.41144   0.00000  Uiso   1.00
C434   C     0.11762   0.71636   0.41129   0.00000  Uiso   1.00
C435   C     0.26971   0.89778   0.53830   0.00000  Uiso   1.00
C436   C     0.28439   0.60221   0.52166   0.00000  Uiso   1.00
C437   C     0.23029   0.89778   0.46170   0.00000  Uiso   1.00
C438   C     0.21489   0.55263   0.47805   0.00000  Uiso   1.00
C439   C     0.26997   0.94736   0.53912   0.00000  Uiso   1.00
C440   C     0.28511   0.55263   0.52195   0.00000  Uiso   1.00
H441   H     0.18843   0.62150   0.46127   0.00000  Uiso   1.00
H442   H     0.28520   0.96508   0.57067   0.00000  Uiso   1.00
H443   H     0.31343   0.53492   0.53869   0.00000  Uiso   1.00
H444   H     0.21481   0.96508   0.42933   0.00000  Uiso   1.00
H445   H     0.13816   0.81541   0.57937   0.00000  Uiso   1.00
H446   H     0.09428   0.79376   0.61898   0.00000  Uiso   1.00
H447   H     0.13996   0.75561   0.60295   0.00000  Uiso   1.00
H448   H     0.36023   0.74475   0.60301   0.00000  Uiso   1.00
H449   H     0.36198   0.68487   0.57971   0.00000  Uiso   1.00
H450   H     0.40593   0.70666   0.61918   0.00000  Uiso   1.00
H451   H     0.36184   0.81539   0.42061   0.00000  Uiso   1.00
H452   H     0.28524   0.87846   0.56857   0.00000  Uiso   1.00
H453   H     0.40572   0.79372   0.38100   0.00000  Uiso   1.00
H454   H     0.36004   0.75558   0.39705   0.00000  Uiso   1.00
H455   H     0.13977   0.74472   0.39699   0.00000  Uiso   1.00
H456   H     0.13802   0.68485   0.42031   0.00000  Uiso   1.00
H457   H     0.09407   0.70663   0.38084   0.00000  Uiso   1.00
H458   H     0.31157   0.62151   0.53873   0.00000  Uiso   1.00
H459   H     0.21476   0.87846   0.43143   0.00000  Uiso   1.00
H460   H     0.02882   0.78056   0.57370   0.00000  Uiso   1.00
H461   H     0.47131   0.71956   0.57376   0.00000  Uiso   1.00
H462   H     0.47118   0.78054   0.42629   0.00000  Uiso   1.00
H463   H     0.02869   0.71954   0.42626   0.00000  Uiso   1.00
H464   H     0.18658   0.53492   0.46131   0.00000  Uiso   1.00
N465   N     0.25000   0.62623   0.50000   0.00000  Uiso   1.00
N466   N     0.25000   0.87376   0.50000   0.00000  Uiso   1.00
O467   O     0.18453   0.78974   0.50000   0.00000  Uiso   1.00
O468   O     0.31547   0.71026   0.50000   0.00000  Uiso   1.00
O469   O     0.31547   0.78974   0.50000   0.00000  Uiso   1.00
O470   O     0.18453   0.71026   0.50000   0.00000  Uiso   1.00
O471   O     0.25000   0.78973   0.42845   0.00000  Uiso   1.00
O472   O     0.25000   0.71027   0.57155   0.00000  Uiso   1.00
O473   O     0.25000   0.78973   0.57155   0.00000  Uiso   1.00
O474   O     0.25000   0.71027   0.42845   0.00000  Uiso   1.00
Zn475  Zn    0.25000   0.80307   0.50000   0.00000  Uiso   1.00
Zn476  Zn    0.25000   0.69693   0.50000   0.00000  Uiso   1.00
C477   C     0.66412   0.75000   0.49997   0.00000  Uiso   1.00
C478   C     0.73004   0.94736   0.46088   0.00000  Uiso   1.00
C479   C     0.74999   0.75000   0.40620   0.00000  Uiso   1.00
C480   C     0.75002   0.75000   0.59380   0.00000  Uiso   1.00
C481   C     0.75000   0.52668   0.50000   0.00000  Uiso   1.00
C482   C     0.75000   0.97331   0.50000   0.00000  Uiso   1.00
C483   C     0.74999   0.75001   0.35513   0.00000  Uiso   1.00
C484   C     0.75001   0.75001   0.64487   0.00000  Uiso   1.00
C485   C     0.54712   0.76703   0.54178   0.00000  Uiso   1.00
C486   C     0.95295   0.73306   0.54182   0.00000  Uiso   1.00
C487   C     0.95288   0.76702   0.45821   0.00000  Uiso   1.00
C488   C     0.83588   0.75000   0.50003   0.00000  Uiso   1.00
C489   C     0.54705   0.73304   0.45818   0.00000  Uiso   1.00
C490   C     0.59344   0.76692   0.54241   0.00000  Uiso   1.00
C491   C     0.90663   0.73319   0.54249   0.00000  Uiso   1.00
C492   C     0.90656   0.76691   0.45758   0.00000  Uiso   1.00
C493   C     0.59337   0.73317   0.45752   0.00000  Uiso   1.00
C494   C     0.61633   0.75002   0.49997   0.00000  Uiso   1.00
C495   C     0.88367   0.75002   0.50003   0.00000  Uiso   1.00
C496   C     0.52415   0.75002   0.49999   0.00000  Uiso   1.00
C497   C     0.97585   0.75002   0.50001   0.00000  Uiso   1.00
C498   C     0.61778   0.78392   0.58855   0.00000  Uiso   1.00
C499   C     0.71561   0.60221   0.47833   0.00000  Uiso   1.00
C500   C     0.88238   0.71639   0.58873   0.00000  Uiso   1.00
C501   C     0.88222   0.78389   0.41144   0.00000  Uiso   1.00
C502   C     0.61762   0.71636   0.41129   0.00000  Uiso   1.00
C503   C     0.76971   0.89778   0.53830   0.00000  Uiso   1.00
C504   C     0.78439   0.60221   0.52166   0.00000  Uiso   1.00
C505   C     0.73029   0.89778   0.46170   0.00000  Uiso   1.00
C506   C     0.71489   0.55263   0.47805   0.00000  Uiso   1.00
C507   C     0.76997   0.94736   0.53912   0.00000  Uiso   1.00
C508   C     0.78511   0.55263   0.52195   0.00000  Uiso   1.00
H509   H     0.68843   0.62150   0.46127   0.00000  Uiso   1.00
H510   H     0.78520   0.96508   0.57067   0.00000  Uiso   1.00
H511   H     0.81343   0.53492   0.53869   0.00000  Uiso   1.00
H512   H     0.71481   0.96508   0.42933   0.00000  Uiso   1.00
H513   H     0.63816   0.81541   0.57937   0.00000  Uiso   1.00
H514   H     0.59428   0.79376   0.61898   0.00000  Uiso   1.00
H515   H     0.63996   0.75561   0.60295   0.00000  Uiso   1.00
H516   H     0.86023   0.74475   0.60301   0.00000  Uiso   1.00
H517   H     0.86198   0.68487   0.57971   0.00000  Uiso   1.00
H518   H     0.90593   0.70666   0.61918   0.00000  Uiso   1.00
H519   H     0.86184   0.81539   0.42061   0.00000  Uiso   1.00
H520   H     0.78524   0.87846   0.56857   0.00000  Uiso   1.00
H521   H     0.90572   0.79372   0.38100   0.00000  Uiso   1.00
H522   H     0.86004   0.75558   0.39705   0.00000  Uiso   1.00
H523   H     0.63977   0.74472   0.39699   0.00000  Uiso   1.00
H524   H     0.63802   0.68485   0.42031   0.00000  Uiso   1.00
H525   H     0.59407   0.70663   0.38084   0.00000  Uiso   1.00
H526   H     0.81157   0.62151   0.53873   0.00000  Uiso   1.00
H527   H     0.71476   0.87846   0.43143   0.00000  Uiso   1.00
H528   H     0.52882   0.78056   0.57370   0.00000  Uiso   1.00
H529   H     0.97131   0.71956   0.57376   0.00000  Uiso   1.00
H530   H     0.97118   0.78054   0.42629   0.00000  Uiso   1.00
H531   H     0.52869   0.71954   0.42626   0.00000  Uiso   1.00
H532   H     0.68658   0.53492   0.46131   0.00000  Uiso   1.00
N533   N     0.75000   0.62623   0.50000   0.00000  Uiso   1.00
N534   N     0.75000   0.87376   0.50000   0.00000  Uiso   1.00
O535   O     0.68453   0.78974   0.50000   0.00000  Uiso   1.00
O536   O     0.81547   0.71026   0.50000   0.00000  Uiso   1.00
O537   O     0.81547   0.78974   0.50000   0.00000  Uiso   1.00
O538   O     0.68453   0.71026   0.50000   0.00000  Uiso   1.00
O539   O     0.75000   0.78973   0.42845   0.00000  Uiso   1.00
O540   O     0.75000   0.71027   0.57155   0.00000  Uiso   1.00
O541   O     0.75000   0.78973   0.57155   0.00000  Uiso   1.00
O542   O     0.75000   0.71027   0.42845   0.00000  Uiso   1.00
Zn543  Zn    0.75000   0.80307   0.50000   0.00000  Uiso   1.00
Zn544  Zn    0.75000   0.69693   0.50000   0.00000  Uiso   1.00
C545   C     0.16412   0.25000   0.83331   0.00000  Uiso   1.00
C546   C     0.23004   0.44736   0.79422   0.00000  Uiso   1.00
C547   C     0.24999   0.25000   0.73953   0.00000  Uiso   1.00
C548   C     0.25002   0.25000   0.92714   0.00000  Uiso   1.00
C549   C     0.25000   0.02668   0.83333   0.00000  Uiso   1.00
C550   C     0.25000   0.47331   0.83333   0.00000  Uiso   1.00
C551   C     0.24999   0.25001   0.68846   0.00000  Uiso   1.00
C552   C     0.25001   0.25001   0.97821   0.00000  Uiso   1.00
C553   C     0.04712   0.26703   0.87511   0.00000  Uiso   1.00
C554   C     0.45295   0.23306   0.87516   0.00000  Uiso   1.00
C555   C     0.45288   0.26702   0.79155   0.00000  Uiso   1.00
C556   C     0.33588   0.25000   0.83336   0.00000  Uiso   1.00
C557   C     0.04705   0.23304   0.79151   0.00000  Uiso   1.00
C558   C     0.09344   0.26692   0.87574   0.00000  Uiso   1.00
C559   C     0.40663   0.23319   0.87582   0.00000  Uiso   1.00
C560   C     0.40656   0.26691   0.79092   0.00000  Uiso   1.00
C561   C     0.09337   0.23317   0.79085   0.00000  Uiso   1.00
C562   C     0.11633   0.25002   0.83330   0.00000  Uiso   1.00
C563   C     0.38367   0.25002   0.83336   0.00000  Uiso   1.00
C564   C     0.02415   0.25002   0.83333   0.00000  Uiso   1.00
C565   C     0.47585   0.25002   0.83334   0.00000  Uiso   1.00
C566   C     0.11778   0.28392   0.92189   0.00000  Uiso   1.00
C567   C     0.21561   0.10221   0.81167   0.00000  Uiso   1.00
C568   C     0.38238   0.21639   0.92206   0.00000  Uiso   1.00
C569   C     0.38222   0.28389   0.74477   0.00000  Uiso   1.00
C570   C     0.11762   0.21636   0.74462   0.00000  Uiso   1.00
C571   C     0.26971   0.39778   0.87163   0.00000  Uiso   1.00
C572   C     0.28439   0.10221   0.85500   0.00000  Uiso   1.00
C573   C     0.23029   0.39778   0.79503   0.00000  Uiso   1.00
C574   C     0.21489   0.05263   0.81138   0.00000  Uiso   1.00
C575   C     0.26997   0.44736   0.87245   0.00000  Uiso   1.00
C576   C     0.28511   0.05263   0.85529   0.00000  Uiso   1.00
H577   H     0.18843   0.12150   0.79461   0.00000  Uiso   1.00
H578   H     0.28520   0.46508   0.90400   0.00000  Uiso   1.00
H579   H     0.31343   0.03492   0.87202   0.00000  Uiso   1.00
H580   H     0.21481   0.46508   0.76267   0.00000  Uiso   1.00
H581   H     0.13816   0.31541   0.91270   0.00000  Uiso   1.00
H582   H     0.09428   0.29376   0.95231   0.00000  Uiso   1.00
H583   H     0.13996   0.25561   0.93628   0.00000  Uiso   1.00
H584   H     0.36023   0.24475   0.93634   0.00000  Uiso   1.00
H585   H     0.36198   0.18487   0.91305   0.00000  Uiso   1.00
H586   H     0.40593   0.20666   0.95251   0.00000  Uiso   1.00
H587   H     0.36184   0.31539   0.75394   0.00000  Uiso   1.00
H588   H     0.28524   0.37846   0.90191   0.00000  Uiso   1.00
H589   H     0.40572   0.29372   0.71434   0.00000  Uiso   1.00
H590   H     0.36004   0.25558   0.73039   0.00000  Uiso   1.00
H591   H     0.13977   0.24472   0.73033   0.00000  Uiso   1.00
H592   H     0.13802   0.18485   0.75364   0.00000  Uiso   1.00
H593   H     0.09407   0.20663   0.71417   0.00000  Uiso   1.00
H594   H     0.31157   0.12151   0.87206   0.00000  Uiso   1.00
H595   H     0.21476   0.37846   0.76476   0.00000  Uiso   1.00
H596   H     0.02882   0.28056   0.90703   0.00000  Uiso   1.00
H597   H     0.47131   0.21956   0.90709   0.00000  Uiso   1.00
H598   H     0.47118   0.28054   0.75962   0.00000  Uiso   1.00
H599   H     0.02869   0.21954   0.75959   0.00000  Uiso   1.00
H600   H     0.18658   0.03492   0.79464   0.00000  Uiso   1.00
N601   N     0.25000   0.12623   0.83333   0.00000  Uiso   1.00
N602   N     0.25000   0.37376   0.83333   0.00000  Uiso   1.00
O603   O     0.18453   0.28974   0.83334   0.00000  Uiso   1.00
O604   O     0.31547   0.21026   0.83333   0.00000  Uiso   1.00
O605   O     0.31547   0.28974   0.83333   0.00000  Uiso   1.00
O606   O     0.18453   0.21026   0.83334   0.00000  Uiso   1.00
O607   O     0.25000   0.28973   0.76178   0.00000  Uiso   1.00
O608   O     0.25000   0.21027   0.90489   0.00000  Uiso   1.00
O609   O     0.25000   0.28973   0.90489   0.00000  Uiso   1.00
O610   O     0.25000   0.21027   0.76178   0.00000  Uiso   1.00
Zn611  Zn    0.25000   0.30307   0.83333   0.00000  Uiso   1.00
Zn612  Zn    0.25000   0.19693   0.83333   0.00000  Uiso   1.00
C613   C     0.66412   0.25000   0.83331   0.00000  Uiso   1.00
C614   C     0.73004   0.44736   0.79422   0.00000  Uiso   1.00
C615   C     0.74999   0.25000   0.73953   0.00000  Uiso   1.00
C616   C     0.75002   0.25000   0.92714   0.00000  Uiso   1.00
C617   C     0.75000   0.02668   0.83333   0.00000  Uiso   1.00
C618   C     0.75000   0.47331   0.83333   0.00000  Uiso   1.00
C619   C     0.74999   0.25001   0.68846   0.00000  Uiso   1.00
C620   C     0.75001   0.25001   0.97821   0.00000  Uiso   1.00
C621   C     0.54712   0.26703   0.87511   0.00000  Uiso   1.00
C622   C     0.95295   0.23306   0.87516   0.00000  Uiso   1.00
C623   C     0.95288   0.26702   0.79155   0.00000  Uiso   1.00
C624   C     0.83588   0.25000   0.83336   0.00000  Uiso   1.00
C625   C     0.54705   0.23304   0.79151   0.00000  Uiso   1.00
C626   C     0.59344   0.26692   0.87574   0.00000  Uiso   1.00
C627   C     0.90663   0.23319   0.87582   0.00000  Uiso   1.00
C628   C     0.90656   0.26691   0.79092   0.00000  Uiso   1.00
C629   C     0.59337   0.23317   0.79085   0.00000  Uiso   1.00
C630   C     0.61633   0.25002   0.83330   0.00000  Uiso   1.00
C631   C     0.88367   0.25002   0.83336   0.00000  Uiso   1.00
C632   C     0.52415   0.25002   0.83333   0.00000  Uiso   1.00
C633   C     0.97585   0.25002   0.83334   0.00000  Uiso   1.00
C634   C     0.61778   0.28392   0.92189   0.00000  Uiso   1.00
C635   C     0.71561   0.10221   0.81167   0.00000  Uiso   1.00
C636   C     0.88238   0.21639   0.92206   0.00000  Uiso   1.00
C637   C     0.88222   0.28389   0.74477   0.00000  Uiso   1.00
C638   C     0.61762   0.21636   0.74462   0.00000  Uiso   1.00
C639   C     0.76971   0.39778   0.87163   0.00000  Uiso   1.00
C640   C     0.78439   0.10221   0.85500   0.00000  Uiso   1.00
C641   C     0.73029   0.39778   0.79503   0.00000  Uiso   1.00
C642   C     0.71489   0.05263   0.81138   0.00000  Uiso   1.00
C643   C     0.76997   0.44736   0.87245   0.00000  Uiso   1.00
C644   C     0.78511   0.05263   0.85529   0.00000  Uiso   1.00
H645   H     0.68843   0.12150   0.79461   0.00000  Uiso   1.00
H646   H     0.78520   0.46508   0.90400   0.00000  Uiso   1.00
H647   H     0.81343   0.03492   0.87202   0.00000  Uiso   1.00
H648   H     0.71481   0.46508   0.76267   0.00000  Uiso   1.00
H649   H     0.63816   0.31541   0.91270   0.00000  Uiso   1.00
H650   H     0.59428   0.29376   0.95231   0.00000  Uiso   1.00
H651   H     0.63996   0.25561   0.93628   0.00000  Uiso   1.00
H652   H     0.86023   0.24475   0.93634   0.00000  Uiso   1.00
H653   H     0.86198   0.18487   0.91305   0.00000  Uiso   1.00
H654   H     0.90593   0.20666   0.95251   0.00000  Uiso   1.00
H655   H     0.86184   0.31539   0.75394   0.00000  Uiso   1.00
H656   H     0.78524   0.37846   0.90191   0.00000  Uiso   1.00
H657   H     0.90572   0.29372   0.71434   0.00000  Uiso   1.00
H658   H     0.86004   0.25558   0.73039   0.00000  Uiso   1.00
H659   H     0.63977   0.24472   0.73033   0.00000  Uiso   1.00
H660   H     0.63802   0.18485   0.75364   0.00000  Uiso   1.00
H661   H     0.59407   0.20663   0.71417   0.00000  Uiso   1.00
H662   H     0.81157   0.12151   0.87206   0.00000  Uiso   1.00
H663   H     0.71476   0.37846   0.76476   0.00000  Uiso   1.00
H664   H     0.52882   0.28056   0.90703   0.00000  Uiso   1.00
H665   H     0.97131   0.21956   0.90709   0.00000  Uiso   1.00
H666   H     0.97118   0.28054   0.75962   0.00000  Uiso   1.00
H667   H     0.52869   0.21954   0.75959   0.00000  Uiso   1.00
H668   H     0.68658   0.03492   0.79464   0.00000  Uiso   1.00
N669   N     0.75000   0.12623   0.83333   0.00000  Uiso   1.00
N670   N     0.75000   0.37376   0.83333   0.00000  Uiso   1.00
O671   O     0.68453   0.28974   0.83334   0.00000  Uiso   1.00
O672   O     0.81547   0.21026   0.83333   0.00000  Uiso   1.00
O673   O     0.81547   0.28974   0.83333   0.00000  Uiso   1.00
O674   O     0.68453   0.21026   0.83334   0.00000  Uiso   1.00
O675   O     0.75000   0.28973   0.76178   0.00000  Uiso   1.00
O676   O     0.75000   0.21027   0.90489   0.00000  Uiso   1.00
O677   O     0.75000   0.28973   0.90489   0.00000  Uiso   1.00
O678   O     0.75000   0.21027   0.76178   0.00000  Uiso   1.00
Zn679  Zn    0.75000   0.30307   0.83333   0.00000  Uiso   1.00
Zn680  Zn    0.75000   0.19693   0.83333   0.00000  Uiso   1.00
C681   C     0.16412   0.75000   0.83331   0.00000  Uiso   1.00
C682   C     0.23004   0.94736   0.79422   0.00000  Uiso   1.00
C683   C     0.24999   0.75000   0.73953   0.00000  Uiso   1.00
C684   C     0.25002   0.75000   0.92714   0.00000  Uiso   1.00
C685   C     0.25000   0.52668   0.83333   0.00000  Uiso   1.00
C686   C     0.25000   0.97331   0.83333   0.00000  Uiso   1.00
C687   C     0.24999   0.75001   0.68846   0.00000  Uiso   1.00
C688   C     0.25001   0.75001   0.97821   0.00000  Uiso   1.00
C689   C     0.04712   0.76703   0.87511   0.00000  Uiso   1.00
C690   C     0.45295   0.73306   0.87516   0.00000  Uiso   1.00
C691   C     0.45288   0.76702   0.79155   0.00000  Uiso   1.00
C692   C     0.33588   0.75000   0.83336   0.00000  Uiso   1.00
C693   C     0.04705   0.73304   0.79151   0.00000  Uiso   1.00
C694   C     0.09344   0.76692   0.87574   0.00000  Uiso   1.00
C695   C     0.40663   0.73319   0.87582   0.00000  Uiso   1.00
C696   C     0.40656   0.76691   0.79092   0.00000  Uiso   1.00
C697   C     0.09337   0.73317   0.79085   0.00000  Uiso   1.00
C698   C     0.11633   0.75002   0.83330   0.00000  Uiso   1.00
C699   C     0.38367   0.75002   0.83336   0.00000  Uiso   1.00
C700   C     0.02415   0.75002   0.83333   0.00000  Uiso   1.00
C701   C     0.47585   0.75002   0.83334   0.00000  Uiso   1.00
C702   C     0.11778   0.78392   0.92189   0.00000  Uiso   1.00
C703   C     0.21561   0.60221   0.81167   0.00000  Uiso   1.00
C704   C     0.38238   0.71639   0.92206   0.00000  Uiso   1.00
C705   C     0.38222   0.78389   0.74477   0.00000  Uiso   1.00
C706   C     0.11762   0.71636   0.74462   0.00000  Uiso   1.00
C707   C     0.26971   0.89778   0.87163   0.00000  Uiso   1.00
C708   C     0.28439   0.60221   0.85500   0.00000  Uiso   1.00
C709   C     0.23029   0.89778   0.79503   0.00000  Uiso   1.00
C710   C     0.21489   0.55263   0.81138   0.00000  Uiso   1.00
C711   C     0.26997   0.94736   0.87245   0.00000  Uiso   1.00
C712   C     0.28511   0.55263   0.85529   0.00000  Uiso   1.00
H713   H     0.18843   0.62150   0.79461   0.00000  Uiso   1.00
H714   H     0.28520   0.96508   0.90400   0.00000  Uiso   1.00
H715   H     0.31343   0.53492   0.87202   0.00000  Uiso   1.00
H716   H     0.21481   0.96508   0.76267   0.00000  Uiso   1.00
H717   H     0.13816   0.81541   0.91270   0.00000  Uiso   1.00
H718   H     0.09428   0.79376   0.95231   0.00000  Uiso   1.00
H719   H     0.13996   0.75561   0.93628   0.00000  Uiso   1.00
H720   H     0.36023   0.74475   0.93634   0.00000  Uiso   1.00
H721   H     0.36198   0.68487   0.91305   0.00000  Uiso   1.00
H722   H     0.40593   0.70666   0.95251   0.00000  Uiso   1.00
H723   H     0.36184   0.81539   0.75394   0.00000  Uiso   1.00
H724   H     0.28524   0.87846   0.90191   0.00000  Uiso   1.00
H725   H     0.40572   0.79372   0.71434   0.00000  Uiso   1.00
H726   H     0.36004   0.75558   0.73039   0.00000  Uiso   1.00
H727   H     0.13977   0.74472   0.73033   0.00000  Uiso   1.00
H728   H     0.13802   0.68485   0.75364   0.00000  Uiso   1.00
H729   H     0.09407   0.70663   0.71417   0.00000  Uiso   1.00
H730   H     0.31157   0.62151   0.87206   0.00000  Uiso   1.00
H731   H     0.21476   0.87846   0.76476   0.00000  Uiso   1.00
H732   H     0.02882   0.78056   0.90703   0.00000  Uiso   1.00
H733   H     0.47131   0.71956   0.90709   0.00000  Uiso   1.00
H734   H     0.47118   0.78054   0.75962   0.00000  Uiso   1.00
H735   H     0.02869   0.71954   0.75959   0.00000  Uiso   1.00
H736   H     0.18658   0.53492   0.79464   0.00000  Uiso   1.00
N737   N     0.25000   0.62623   0.83333   0.00000  Uiso   1.00
N738   N     0.25000   0.87376   0.83333   0.00000  Uiso   1.00
O739   O     0.18453   0.78974   0.83334   0.00000  Uiso   1.00
O740   O     0.31547   0.71026   0.83333   0.00000  Uiso   1.00
O741   O     0.31547   0.78974   0.83333   0.00000  Uiso   1.00
O742   O     0.18453   0.71026   0.83334   0.00000  Uiso   1.00
O743   O     0.25000   0.78973   0.76178   0.00000  Uiso   1.00
O744   O     0.25000   0.71027   0.90489   0.00000  Uiso   1.00
O745   O     0.25000   0.78973   0.90489   0.00000  Uiso   1.00
O746   O     0.25000   0.71027   0.76178   0.00000  Uiso   1.00
Zn747  Zn    0.25000   0.80307   0.83333   0.00000  Uiso   1.00
Zn748  Zn    0.25000   0.69693   0.83333   0.00000  Uiso   1.00
C749   C     0.66412   0.75000   0.83331   0.00000  Uiso   1.00
C750   C     0.73004   0.94736   0.79422   0.00000  Uiso   1.00
C751   C     0.74999   0.75000   0.73953   0.00000  Uiso   1.00
C752   C     0.75002   0.75000   0.92714   0.00000  Uiso   1.00
C753   C     0.75000   0.52668   0.83333   0.00000  Uiso   1.00
C754   C     0.75000   0.97331   0.83333   0.00000  Uiso   1.00
C755   C     0.74999   0.75001   0.68846   0.00000  Uiso   1.00
C756   C     0.75001   0.75001   0.97821   0.00000  Uiso   1.00
C757   C     0.54712   0.76703   0.87511   0.00000  Uiso   1.00
C758   C     0.95295   0.73306   0.87516   0.00000  Uiso   1.00
C759   C     0.95288   0.76702   0.79155   0.00000  Uiso   1.00
C760   C     0.83588   0.75000   0.83336   0.00000  Uiso   1.00
C761   C     0.54705   0.73304   0.79151   0.00000  Uiso   1.00
C762   C     0.59344   0.76692   0.87574   0.00000  Uiso   1.00
C763   C     0.90663   0.73319   0.87582   0.00000  Uiso   1.00
C764   C     0.90656   0.76691   0.79092   0.00000  Uiso   1.00
C765   C     0.59337   0.73317   0.79085   0.00000  Uiso   1.00
C766   C     0.61633   0.75002   0.83330   0.00000  Uiso   1.00
C767   C     0.88367   0.75002   0.83336   0.00000  Uiso   1.00
C768   C     0.52415   0.75002   0.83333   0.00000  Uiso   1.00
C769   C     0.97585   0.75002   0.83334   0.00000  Uiso   1.00
C770   C     0.61778   0.78392   0.92189   0.00000  Uiso   1.00
C771   C     0.71561   0.60221   0.81167   0.00000  Uiso   1.00
C772   C     0.88238   0.71639   0.92206   0.00000  Uiso   1.00
C773   C     0.88222   0.78389   0.74477   0.00000  Uiso   1.00
C774   C     0.61762   0.71636   0.74462   0.00000  Uiso   1.00
C775   C     0.76971   0.89778   0.87163   0.00000  Uiso   1.00
C776   C     0.78439   0.60221   0.85500   0.00000  Uiso   1.00
C777   C     0.73029   0.89778   0.79503   0.00000  Uiso   1.00
C778   C     0.71489   0.55263   0.81138   0.00000  Uiso   1.00
C779   C     0.76997   0.94736   0.87245   0.00000  Uiso   1.00
C780   C     0.78511   0.55263   0.85529   0.00000  Uiso   1.00
H781   H     0.68843   0.62150   0.79461   0.00000  Uiso   1.00
H782   H     0.78520   0.96508   0.90400   0.00000  Uiso   1.00
H783   H     0.81343   0.53492   0.87202   0.00000  Uiso   1.00
H784   H     0.71481   0.96508   0.76267   0.00000  Uiso   1.00
H785   H     0.63816   0.81541   0.91270   0.00000  Uiso   1.00
H786   H     0.59428   0.79376   0.95231   0.00000  Uiso   1.00
H787   H     0.63996   0.75561   0.93628   0.00000  Uiso   1.00
H788   H     0.86023   0.74475   0.93634   0.00000  Uiso   1.00
H789   H     0.86198   0.68487   0.91305   0.00000  Uiso   1.00
H790   H     0.90593   0.70666   0.95251   0.00000  Uiso   1.00
H791   H     0.86184   0.81539   0.75394   0.00000  Uiso   1.00
H792   H     0.78524   0.87846   0.90191   0.00000  Uiso   1.00
H793   H     0.90572   0.79372   0.71434   0.00000  Uiso   1.00
H794   H     0.86004   0.75558   0.73039   0.00000  Uiso   1.00
H795   H     0.63977   0.74472   0.73033   0.00000  Uiso   1.00
H796   H     0.63802   0.68485   0.75364   0.00000  Uiso   1.00
H797   H     0.59407   0.70663   0.71417   0.00000  Uiso   1.00
H798   H     0.81157   0.62151   0.87206   0.00000  Uiso   1.00
H799   H     0.71476   0.87846   0.76476   0.00000  Uiso   1.00
H800   H     0.52882   0.78056   0.90703   0.00000  Uiso   1.00
H801   H     0.97131   0.71956   0.90709   0.00000  Uiso   1.00
H802   H     0.97118   0.78054   0.75962   0.00000  Uiso   1.00
H803   H     0.52869   0.71954   0.75959   0.00000  Uiso   1.00
H804   H     0.68658   0.53492   0.79464   0.00000  Uiso   1.00
N805   N     0.75000   0.62623   0.83333   0.00000  Uiso   1.00
N806   N     0.75000   0.87376   0.83333   0.00000  Uiso   1.00
O807   O     0.68453   0.78974   0.83334   0.00000  Uiso   1.00
O808   O     0.81547   0.71026   0.83333   0.00000  Uiso   1.00
O809   O     0.81547   0.78974   0.83333   0.00000  Uiso   1.00
O810   O     0.68453   0.71026   0.83334   0.00000  Uiso   1.00
O811   O     0.75000   0.78973   0.76178   0.00000  Uiso   1.00
O812   O     0.75000   0.71027   0.90489   0.00000  Uiso   1.00
O813   O     0.75000   0.78973   0.90489   0.00000  Uiso   1.00
O814   O     0.75000   0.71027   0.76178   0.00000  Uiso   1.00
Zn815  Zn    0.75000   0.80307   0.83333   0.00000  Uiso   1.00
Zn816  Zn    0.75000   0.69693   0.83333   0.00000  Uiso   1.00
loop_
_geom_bond_atom_site_label_1
_geom_bond_atom_site_label_2
_geom_bond_distance
_geom_bond_site_symmetry_2
_ccdc_geom_bond_type
C1     O62     1.283   .     A
C1     C18     1.430   .     S
C1     O59     1.283   .     A
C2     C6      1.411   .     A
C2     C29     1.408   .     A
C2     H36     1.082   .     S
C3     C7      1.364   .     S
C3     O63     1.275   .     A
C3     O66     1.275   .     A
C4     C8      1.364   .     S
C4     O64     1.275   .     A
C4     O65     1.275   .     A
C5     C32     1.411   .     A
C5     C30     1.411   .     A
C5     C142    1.515   1_545 S
C6     C31     1.411   .     A
C6     C141    1.515   .     S
C7     C552    1.164   1_554 S
C8     C279    1.164   .     S
C9     C14     1.387   .     A
C9     C20     1.397   .     A
C9     H52     1.084   .     S
C10    C15     1.387   .     A
C10    C21     1.397   .     A
C10    H53     1.084   .     S
C11    C16     1.387   .     A
C11    H54     1.084   .     S
C11    C21     1.397   .     A
C12    O61     1.283   .     A
C12    C19     1.430   .     S
C12    O60     1.283   .     A
C13    C17     1.387   .     A
C13    C20     1.397   .     A
C13    H55     1.084   .     S
C14    C18     1.409   .     A
C14    C22     1.510   .     S
C15    C19     1.409   .     A
C15    C24     1.510   .     S
C16    C19     1.409   .     A
C16    C25     1.510   .     S
C17    C26     1.510   .     S
C17    C18     1.409   .     A
C20    C89     1.446   1_455 S
C21    C88     1.446   .     S
C22    H39     1.111   .     S
C22    H38     1.111   .     S
C22    H37     1.110   .     S
C23    C30     1.408   .     A
C23    N57     1.363   .     A
C23    H33     1.081   .     S
C24    H41     1.109   .     S
C24    H42     1.111   .     S
C24    H40     1.111   .     S
C25    H46     1.111   .     S
C25    H43     1.110   .     S
C25    H45     1.111   .     S
C26    H48     1.109   .     S
C26    H47     1.111   .     S
C26    H49     1.111   .     S
C27    C31     1.408   .     A
C27    H44     1.082   .     S
C27    N58     1.363   .     A
C28    N57     1.363   .     A
C28    H50     1.081   .     S
C28    C32     1.408   .     A
C29    N58     1.363   .     A
C29    H51     1.082   .     S
C30    H56     1.082   .     S
C31    H34     1.082   .     S
C32    H35     1.082   .     S
N57    Zn68    2.007   .     S
N58    Zn67    2.007   .     S
O59    Zn67    1.996   .     S
O60    Zn68    1.996   .     S
O61    Zn67    1.996   .     S
O62    Zn68    1.996   .     S
O63    Zn67    1.948   .     S
O64    Zn68    1.948   .     S
O65    Zn67    1.948   .     S
O66    Zn68    1.948   .     S
C69    O130    1.283   .     A
C69    C86     1.430   .     S
C69    O127    1.283   .     A
C70    C74     1.411   .     A
C70    C97     1.408   .     A
C70    H104    1.082   .     S
C71    C75     1.364   .     S
C71    O131    1.275   .     A
C71    O134    1.275   .     A
C72    C76     1.364   .     S
C72    O132    1.275   .     A
C72    O133    1.275   .     A
C73    C100    1.411   .     A
C73    C98     1.411   .     A
C73    C210    1.515   1_545 S
C74    C99     1.411   .     A
C74    C209    1.515   .     S
C75    C620    1.164   1_554 S
C76    C347    1.164   .     S
C77    C82     1.387   .     A
C77    C88     1.397   .     A
C77    H120    1.084   .     S
C78    C83     1.387   .     A
C78    C89     1.397   .     A
C78    H121    1.084   .     S
C79    C84     1.387   .     A
C79    H122    1.084   .     S
C79    C89     1.397   .     A
C80    O129    1.283   .     A
C80    C87     1.430   .     S
C80    O128    1.283   .     A
C81    C85     1.387   .     A
C81    C88     1.397   .     A
C81    H123    1.084   .     S
C82    C86     1.409   .     A
C82    C90     1.510   .     S
C83    C87     1.409   .     A
C83    C92     1.510   .     S
C84    C87     1.409   .     A
C84    C93     1.510   .     S
C85    C94     1.510   .     S
C85    C86     1.409   .     A
C89    C20     1.446   1_655 S
C90    H107    1.111   .     S
C90    H106    1.111   .     S
C90    H105    1.110   .     S
C91    C98     1.408   .     A
C91    N125    1.363   .     A
C91    H101    1.081   .     S
C92    H109    1.109   .     S
C92    H110    1.111   .     S
C92    H108    1.111   .     S
C93    H114    1.111   .     S
C93    H111    1.110   .     S
C93    H113    1.111   .     S
C94    H116    1.109   .     S
C94    H115    1.111   .     S
C94    H117    1.111   .     S
C95    C99     1.408   .     A
C95    H112    1.082   .     S
C95    N126    1.363   .     A
C96    N125    1.363   .     A
C96    H118    1.081   .     S
C96    C100    1.408   .     A
C97    N126    1.363   .     A
C97    H119    1.082   .     S
C98    H124    1.082   .     S
C99    H102    1.082   .     S
C100   H103    1.082   .     S
N125   Zn136   2.007   .     S
N126   Zn135   2.007   .     S
O127   Zn135   1.996   .     S
O128   Zn136   1.996   .     S
O129   Zn135   1.996   .     S
O130   Zn136   1.996   .     S
O131   Zn135   1.948   .     S
O132   Zn136   1.948   .     S
O133   Zn135   1.948   .     S
O134   Zn136   1.948   .     S
C137   O198    1.283   .     A
C137   C154    1.430   .     S
C137   O195    1.283   .     A
C138   C142    1.411   .     A
C138   C165    1.408   .     A
C138   H172    1.082   .     S
C139   C143    1.364   .     S
C139   O199    1.275   .     A
C139   O202    1.275   .     A
C140   C144    1.364   .     S
C140   O200    1.275   .     A
C140   O201    1.275   .     A
C141   C168    1.411   .     A
C141   C166    1.411   .     A
C142   C167    1.411   .     A
C142   C5      1.515   1_565 S
C143   C688    1.164   1_554 S
C144   C415    1.164   .     S
C145   C150    1.387   .     A
C145   C156    1.397   .     A
C145   H188    1.084   .     S
C146   C151    1.387   .     A
C146   C157    1.397   .     A
C146   H189    1.084   .     S
C147   C152    1.387   .     A
C147   H190    1.084   .     S
C147   C157    1.397   .     A
C148   O197    1.283   .     A
C148   C155    1.430   .     S
C148   O196    1.283   .     A
C149   C153    1.387   .     A
C149   C156    1.397   .     A
C149   H191    1.084   .     S
C150   C154    1.409   .     A
C150   C158    1.510   .     S
C151   C155    1.409   .     A
C151   C160    1.510   .     S
C152   C155    1.409   .     A
C152   C161    1.510   .     S
C153   C162    1.510   .     S
C153   C154    1.409   .     A
C156   C225    1.446   1_455 S
C157   C224    1.446   .     S
C158   H175    1.111   .     S
C158   H174    1.111   .     S
C158   H173    1.110   .     S
C159   C166    1.408   .     A
C159   N193    1.363   .     A
C159   H169    1.081   .     S
C160   H177    1.109   .     S
C160   H178    1.111   .     S
C160   H176    1.111   .     S
C161   H182    1.111   .     S
C161   H179    1.110   .     S
C161   H181    1.111   .     S
C162   H184    1.109   .     S
C162   H183    1.111   .     S
C162   H185    1.111   .     S
C163   C167    1.408   .     A
C163   H180    1.082   .     S
C163   N194    1.363   .     A
C164   N193    1.363   .     A
C164   H186    1.081   .     S
C164   C168    1.408   .     A
C165   N194    1.363   .     A
C165   H187    1.082   .     S
C166   H192    1.082   .     S
C167   H170    1.082   .     S
C168   H171    1.082   .     S
N193   Zn204   2.007   .     S
N194   Zn203   2.007   .     S
O195   Zn203   1.996   .     S
O196   Zn204   1.996   .     S
O197   Zn203   1.996   .     S
O198   Zn204   1.996   .     S
O199   Zn203   1.948   .     S
O200   Zn204   1.948   .     S
O201   Zn203   1.948   .     S
O202   Zn204   1.948   .     S
C205   O266    1.283   .     A
C205   C222    1.430   .     S
C205   O263    1.283   .     A
C206   C210    1.411   .     A
C206   C233    1.408   .     A
C206   H240    1.082   .     S
C207   C211    1.364   .     S
C207   O267    1.275   .     A
C207   O270    1.275   .     A
C208   C212    1.364   .     S
C208   O268    1.275   .     A
C208   O269    1.275   .     A
C209   C236    1.411   .     A
C209   C234    1.411   .     A
C210   C235    1.411   .     A
C210   C73     1.515   1_565 S
C211   C756    1.164   1_554 S
C212   C483    1.164   .     S
C213   C218    1.387   .     A
C213   C224    1.397   .     A
C213   H256    1.084   .     S
C214   C219    1.387   .     A
C214   C225    1.397   .     A
C214   H257    1.084   .     S
C215   C220    1.387   .     A
C215   H258    1.084   .     S
C215   C225    1.397   .     A
C216   O265    1.283   .     A
C216   C223    1.430   .     S
C216   O264    1.283   .     A
C217   C221    1.387   .     A
C217   C224    1.397   .     A
C217   H259    1.084   .     S
C218   C222    1.409   .     A
C218   C226    1.510   .     S
C219   C223    1.409   .     A
C219   C228    1.510   .     S
C220   C223    1.409   .     A
C220   C229    1.510   .     S
C221   C230    1.510   .     S
C221   C222    1.409   .     A
C225   C156    1.446   1_655 S
C226   H243    1.111   .     S
C226   H242    1.111   .     S
C226   H241    1.110   .     S
C227   C234    1.408   .     A
C227   N261    1.363   .     A
C227   H237    1.081   .     S
C228   H245    1.109   .     S
C228   H246    1.111   .     S
C228   H244    1.111   .     S
C229   H250    1.111   .     S
C229   H247    1.110   .     S
C229   H249    1.111   .     S
C230   H252    1.109   .     S
C230   H251    1.111   .     S
C230   H253    1.111   .     S
C231   C235    1.408   .     A
C231   H248    1.082   .     S
C231   N262    1.363   .     A
C232   N261    1.363   .     A
C232   H254    1.081   .     S
C232   C236    1.408   .     A
C233   N262    1.363   .     A
C233   H255    1.082   .     S
C234   H260    1.082   .     S
C235   H238    1.082   .     S
C236   H239    1.082   .     S
N261   Zn272   2.007   .     S
N262   Zn271   2.007   .     S
O263   Zn271   1.996   .     S
O264   Zn272   1.996   .     S
O265   Zn271   1.996   .     S
O266   Zn272   1.996   .     S
O267   Zn271   1.948   .     S
O268   Zn272   1.948   .     S
O269   Zn271   1.948   .     S
O270   Zn272   1.948   .     S
C273   O334    1.283   .     A
C273   C290    1.430   .     S
C273   O331    1.283   .     A
C274   C278    1.411   .     A
C274   C301    1.408   .     A
C274   H308    1.082   .     S
C275   C279    1.364   .     S
C275   O335    1.275   .     A
C275   O338    1.275   .     A
C276   C280    1.364   .     S
C276   O336    1.275   .     A
C276   O337    1.275   .     A
C277   C304    1.411   .     A
C277   C302    1.411   .     A
C277   C414    1.515   1_545 S
C278   C303    1.411   .     A
C278   C413    1.515   .     S
C280   C551    1.164   .     S
C281   C286    1.387   .     A
C281   C292    1.397   .     A
C281   H324    1.084   .     S
C282   C287    1.387   .     A
C282   C293    1.397   .     A
C282   H325    1.084   .     S
C283   C288    1.387   .     A
C283   H326    1.084   .     S
C283   C293    1.397   .     A
C284   O333    1.283   .     A
C284   C291    1.430   .     S
C284   O332    1.283   .     A
C285   C289    1.387   .     A
C285   C292    1.397   .     A
C285   H327    1.084   .     S
C286   C290    1.409   .     A
C286   C294    1.510   .     S
C287   C291    1.409   .     A
C287   C296    1.510   .     S
C288   C291    1.409   .     A
C288   C297    1.510   .     S
C289   C298    1.510   .     S
C289   C290    1.409   .     A
C292   C361    1.446   1_455 S
C293   C360    1.446   .     S
C294   H311    1.111   .     S
C294   H310    1.111   .     S
C294   H309    1.110   .     S
C295   C302    1.408   .     A
C295   N329    1.363   .     A
C295   H305    1.081   .     S
C296   H313    1.109   .     S
C296   H314    1.111   .     S
C296   H312    1.111   .     S
C297   H318    1.111   .     S
C297   H315    1.110   .     S
C297   H317    1.111   .     S
C298   H320    1.109   .     S
C298   H319    1.111   .     S
C298   H321    1.111   .     S
C299   C303    1.408   .     A
C299   H316    1.082   .     S
C299   N330    1.363   .     A
C300   N329    1.363   .     A
C300   H322    1.081   .     S
C300   C304    1.408   .     A
C301   N330    1.363   .     A
C301   H323    1.082   .     S
C302   H328    1.082   .     S
C303   H306    1.082   .     S
C304   H307    1.082   .     S
N329   Zn340   2.007   .     S
N330   Zn339   2.007   .     S
O331   Zn339   1.996   .     S
O332   Zn340   1.996   .     S
O333   Zn339   1.996   .     S
O334   Zn340   1.996   .     S
O335   Zn339   1.948   .     S
O336   Zn340   1.948   .     S
O337   Zn339   1.948   .     S
O338   Zn340   1.948   .     S
C341   O402    1.283   .     A
C341   C358    1.430   .     S
C341   O399    1.283   .     A
C342   C346    1.411   .     A
C342   C369    1.408   .     A
C342   H376    1.082   .     S
C343   C347    1.364   .     S
C343   O403    1.275   .     A
C343   O406    1.275   .     A
C344   C348    1.364   .     S
C344   O404    1.275   .     A
C344   O405    1.275   .     A
C345   C372    1.411   .     A
C345   C370    1.411   .     A
C345   C482    1.515   1_545 S
C346   C371    1.411   .     A
C346   C481    1.515   .     S
C348   C619    1.164   .     S
C349   C354    1.387   .     A
C349   C360    1.397   .     A
C349   H392    1.084   .     S
C350   C355    1.387   .     A
C350   C361    1.397   .     A
C350   H393    1.084   .     S
C351   C356    1.387   .     A
C351   H394    1.084   .     S
C351   C361    1.397   .     A
C352   O401    1.283   .     A
C352   C359    1.430   .     S
C352   O400    1.283   .     A
C353   C357    1.387   .     A
C353   C360    1.397   .     A
C353   H395    1.084   .     S
C354   C358    1.409   .     A
C354   C362    1.510   .     S
C355   C359    1.409   .     A
C355   C364    1.510   .     S
C356   C359    1.409   .     A
C356   C365    1.510   .     S
C357   C366    1.510   .     S
C357   C358    1.409   .     A
C361   C292    1.446   1_655 S
C362   H379    1.111   .     S
C362   H378    1.111   .     S
C362   H377    1.110   .     S
C363   C370    1.408   .     A
C363   N397    1.363   .     A
C363   H373    1.081   .     S
C364   H381    1.109   .     S
C364   H382    1.111   .     S
C364   H380    1.111   .     S
C365   H386    1.111   .     S
C365   H383    1.110   .     S
C365   H385    1.111   .     S
C366   H388    1.109   .     S
C366   H387    1.111   .     S
C366   H389    1.111   .     S
C367   C371    1.408   .     A
C367   H384    1.082   .     S
C367   N398    1.363   .     A
C368   N397    1.363   .     A
C368   H390    1.081   .     S
C368   C372    1.408   .     A
C369   N398    1.363   .     A
C369   H391    1.082   .     S
C370   H396    1.082   .     S
C371   H374    1.082   .     S
C372   H375    1.082   .     S
N397   Zn408   2.007   .     S
N398   Zn407   2.007   .     S
O399   Zn407   1.996   .     S
O400   Zn408   1.996   .     S
O401   Zn407   1.996   .     S
O402   Zn408   1.996   .     S
O403   Zn407   1.948   .     S
O404   Zn408   1.948   .     S
O405   Zn407   1.948   .     S
O406   Zn408   1.948   .     S
C409   O470    1.283   .     A
C409   C426    1.430   .     S
C409   O467    1.283   .     A
C410   C414    1.411   .     A
C410   C437    1.408   .     A
C410   H444    1.082   .     S
C411   C415    1.364   .     S
C411   O471    1.275   .     A
C411   O474    1.275   .     A
C412   C416    1.364   .     S
C412   O472    1.275   .     A
C412   O473    1.275   .     A
C413   C440    1.411   .     A
C413   C438    1.411   .     A
C414   C439    1.411   .     A
C414   C277    1.515   1_565 S
C416   C687    1.164   .     S
C417   C422    1.387   .     A
C417   C428    1.397   .     A
C417   H460    1.084   .     S
C418   C423    1.387   .     A
C418   C429    1.397   .     A
C418   H461    1.084   .     S
C419   C424    1.387   .     A
C419   H462    1.084   .     S
C419   C429    1.397   .     A
C420   O469    1.283   .     A
C420   C427    1.430   .     S
C420   O468    1.283   .     A
C421   C425    1.387   .     A
C421   C428    1.397   .     A
C421   H463    1.084   .     S
C422   C426    1.409   .     A
C422   C430    1.510   .     S
C423   C427    1.409   .     A
C423   C432    1.510   .     S
C424   C427    1.409   .     A
C424   C433    1.510   .     S
C425   C434    1.510   .     S
C425   C426    1.409   .     A
C428   C497    1.446   1_455 S
C429   C496    1.446   .     S
C430   H447    1.111   .     S
C430   H446    1.111   .     S
C430   H445    1.110   .     S
C431   C438    1.408   .     A
C431   N465    1.363   .     A
C431   H441    1.081   .     S
C432   H449    1.109   .     S
C432   H450    1.111   .     S
C432   H448    1.111   .     S
C433   H454    1.111   .     S
C433   H451    1.110   .     S
C433   H453    1.111   .     S
C434   H456    1.109   .     S
C434   H455    1.111   .     S
C434   H457    1.111   .     S
C435   C439    1.408   .     A
C435   H452    1.082   .     S
C435   N466    1.363   .     A
C436   N465    1.363   .     A
C436   H458    1.081   .     S
C436   C440    1.408   .     A
C437   N466    1.363   .     A
C437   H459    1.082   .     S
C438   H464    1.082   .     S
C439   H442    1.082   .     S
C440   H443    1.082   .     S
N465   Zn476   2.007   .     S
N466   Zn475   2.007   .     S
O467   Zn475   1.996   .     S
O468   Zn476   1.996   .     S
O469   Zn475   1.996   .     S
O470   Zn476   1.996   .     S
O471   Zn475   1.948   .     S
O472   Zn476   1.948   .     S
O473   Zn475   1.948   .     S
O474   Zn476   1.948   .     S
C477   O538    1.283   .     A
C477   C494    1.430   .     S
C477   O535    1.283   .     A
C478   C482    1.411   .     A
C478   C505    1.408   .     A
C478   H512    1.082   .     S
C479   C483    1.364   .     S
C479   O539    1.275   .     A
C479   O542    1.275   .     A
C480   C484    1.364   .     S
C480   O540    1.275   .     A
C480   O541    1.275   .     A
C481   C508    1.411   .     A
C481   C506    1.411   .     A
C482   C507    1.411   .     A
C482   C345    1.515   1_565 S
C484   C755    1.164   .     S
C485   C490    1.387   .     A
C485   C496    1.397   .     A
C485   H528    1.084   .     S
C486   C491    1.387   .     A
C486   C497    1.397   .     A
C486   H529    1.084   .     S
C487   C492    1.387   .     A
C487   H530    1.084   .     S
C487   C497    1.397   .     A
C488   O537    1.283   .     A
C488   C495    1.430   .     S
C488   O536    1.283   .     A
C489   C493    1.387   .     A
C489   C496    1.397   .     A
C489   H531    1.084   .     S
C490   C494    1.409   .     A
C490   C498    1.510   .     S
C491   C495    1.409   .     A
C491   C500    1.510   .     S
C492   C495    1.409   .     A
C492   C501    1.510   .     S
C493   C502    1.510   .     S
C493   C494    1.409   .     A
C497   C428    1.446   1_655 S
C498   H515    1.111   .     S
C498   H514    1.111   .     S
C498   H513    1.110   .     S
C499   C506    1.408   .     A
C499   N533    1.363   .     A
C499   H509    1.081   .     S
C500   H517    1.109   .     S
C500   H518    1.111   .     S
C500   H516    1.111   .     S
C501   H522    1.111   .     S
C501   H519    1.110   .     S
C501   H521    1.111   .     S
C502   H524    1.109   .     S
C502   H523    1.111   .     S
C502   H525    1.111   .     S
C503   C507    1.408   .     A
C503   H520    1.082   .     S
C503   N534    1.363   .     A
C504   N533    1.363   .     A
C504   H526    1.081   .     S
C504   C508    1.408   .     A
C505   N534    1.363   .     A
C505   H527    1.082   .     S
C506   H532    1.082   .     S
C507   H510    1.082   .     S
C508   H511    1.082   .     S
N533   Zn544   2.007   .     S
N534   Zn543   2.007   .     S
O535   Zn543   1.996   .     S
O536   Zn544   1.996   .     S
O537   Zn543   1.996   .     S
O538   Zn544   1.996   .     S
O539   Zn543   1.948   .     S
O540   Zn544   1.948   .     S
O541   Zn543   1.948   .     S
O542   Zn544   1.948   .     S
C545   O606    1.283   .     A
C545   C562    1.430   .     S
C545   O603    1.283   .     A
C546   C550    1.411   .     A
C546   C573    1.408   .     A
C546   H580    1.082   .     S
C547   C551    1.364   .     S
C547   O607    1.275   .     A
C547   O610    1.275   .     A
C548   C552    1.364   .     S
C548   O608    1.275   .     A
C548   O609    1.275   .     A
C549   C576    1.411   .     A
C549   C574    1.411   .     A
C549   C686    1.515   1_545 S
C550   C575    1.411   .     A
C550   C685    1.515   .     S
C552   C7      1.164   1_556 S
C553   C558    1.387   .     A
C553   C564    1.397   .     A
C553   H596    1.084   .     S
C554   C559    1.387   .     A
C554   C565    1.397   .     A
C554   H597    1.084   .     S
C555   C560    1.387   .     A
C555   H598    1.084   .     S
C555   C565    1.397   .     A
C556   O605    1.283   .     A
C556   C563    1.430   .     S
C556   O604    1.283   .     A
C557   C561    1.387   .     A
C557   C564    1.397   .     A
C557   H599    1.084   .     S
C558   C562    1.409   .     A
C558   C566    1.510   .     S
C559   C563    1.409   .     A
C559   C568    1.510   .     S
C560   C563    1.409   .     A
C560   C569    1.510   .     S
C561   C570    1.510   .     S
C561   C562    1.409   .     A
C564   C633    1.446   1_455 S
C565   C632    1.446   .     S
C566   H583    1.111   .     S
C566   H582    1.111   .     S
C566   H581    1.110   .     S
C567   C574    1.408   .     A
C567   N601    1.363   .     A
C567   H577    1.081   .     S
C568   H585    1.109   .     S
C568   H586    1.111   .     S
C568   H584    1.111   .     S
C569   H590    1.111   .     S
C569   H587    1.110   .     S
C569   H589    1.111   .     S
C570   H592    1.109   .     S
C570   H591    1.111   .     S
C570   H593    1.111   .     S
C571   C575    1.408   .     A
C571   H588    1.082   .     S
C571   N602    1.363   .     A
C572   N601    1.363   .     A
C572   H594    1.081   .     S
C572   C576    1.408   .     A
C573   N602    1.363   .     A
C573   H595    1.082   .     S
C574   H600    1.082   .     S
C575   H578    1.082   .     S
C576   H579    1.082   .     S
N601   Zn612   2.007   .     S
N602   Zn611   2.007   .     S
O603   Zn611   1.996   .     S
O604   Zn612   1.996   .     S
O605   Zn611   1.996   .     S
O606   Zn612   1.996   .     S
O607   Zn611   1.948   .     S
O608   Zn612   1.948   .     S
O609   Zn611   1.948   .     S
O610   Zn612   1.948   .     S
C613   O674    1.283   .     A
C613   C630    1.430   .     S
C613   O671    1.283   .     A
C614   C618    1.411   .     A
C614   C641    1.408   .     A
C614   H648    1.082   .     S
C615   C619    1.364   .     S
C615   O675    1.275   .     A
C615   O678    1.275   .     A
C616   C620    1.364   .     S
C616   O676    1.275   .     A
C616   O677    1.275   .     A
C617   C644    1.411   .     A
C617   C642    1.411   .     A
C617   C754    1.515   1_545 S
C618   C643    1.411   .     A
C618   C753    1.515   .     S
C620   C75     1.164   1_556 S
C621   C626    1.387   .     A
C621   C632    1.397   .     A
C621   H664    1.084   .     S
C622   C627    1.387   .     A
C622   C633    1.397   .     A
C622   H665    1.084   .     S
C623   C628    1.387   .     A
C623   H666    1.084   .     S
C623   C633    1.397   .     A
C624   O673    1.283   .     A
C624   C631    1.430   .     S
C624   O672    1.283   .     A
C625   C629    1.387   .     A
C625   C632    1.397   .     A
C625   H667    1.084   .     S
C626   C630    1.409   .     A
C626   C634    1.510   .     S
C627   C631    1.409   .     A
C627   C636    1.510   .     S
C628   C631    1.409   .     A
C628   C637    1.510   .     S
C629   C638    1.510   .     S
C629   C630    1.409   .     A
C633   C564    1.446   1_655 S
C634   H651    1.111   .     S
C634   H650    1.111   .     S
C634   H649    1.110   .     S
C635   C642    1.408   .     A
C635   N669    1.363   .     A
C635   H645    1.081   .     S
C636   H653    1.109   .     S
C636   H654    1.111   .     S
C636   H652    1.111   .     S
C637   H658    1.111   .     S
C637   H655    1.110   .     S
C637   H657    1.111   .     S
C638   H660    1.109   .     S
C638   H659    1.111   .     S
C638   H661    1.111   .     S
C639   C643    1.408   .     A
C639   H656    1.082   .     S
C639   N670    1.363   .     A
C640   N669    1.363   .     A
C640   H662    1.081   .     S
C640   C644    1.408   .     A
C641   N670    1.363   .     A
C641   H663    1.082   .     S
C642   H668    1.082   .     S
C643   H646    1.082   .     S
C644   H647    1.082   .     S
N669   Zn680   2.007   .     S
N670   Zn679   2.007   .     S
O671   Zn679   1.996   .     S
O672   Zn680   1.996   .     S
O673   Zn679   1.996   .     S
O674   Zn680   1.996   .     S
O675   Zn679   1.948   .     S
O676   Zn680   1.948   .     S
O677   Zn679   1.948   .     S
O678   Zn680   1.948   .     S
C681   O742    1.283   .     A
C681   C698    1.430   .     S
C681   O739    1.283   .     A
C682   C686    1.411   .     A
C682   C709    1.408   .     A
C682   H716    1.082   .     S
C683   C687    1.364   .     S
C683   O743    1.275   .     A
C683   O746    1.275   .     A
C684   C688    1.364   .     S
C684   O744    1.275   .     A
C684   O745    1.275   .     A
C685   C712    1.411   .     A
C685   C710    1.411   .     A
C686   C711    1.411   .     A
C686   C549    1.515   1_565 S
C688   C143    1.164   1_556 S
C689   C694    1.387   .     A
C689   C700    1.397   .     A
C689   H732    1.084   .     S
C690   C695    1.387   .     A
C690   C701    1.397   .     A
C690   H733    1.084   .     S
C691   C696    1.387   .     A
C691   H734    1.084   .     S
C691   C701    1.397   .     A
C692   O741    1.283   .     A
C692   C699    1.430   .     S
C692   O740    1.283   .     A
C693   C697    1.387   .     A
C693   C700    1.397   .     A
C693   H735    1.084   .     S
C694   C698    1.409   .     A
C694   C702    1.510   .     S
C695   C699    1.409   .     A
C695   C704    1.510   .     S
C696   C699    1.409   .     A
C696   C705    1.510   .     S
C697   C706    1.510   .     S
C697   C698    1.409   .     A
C700   C769    1.446   1_455 S
C701   C768    1.446   .     S
C702   H719    1.111   .     S
C702   H718    1.111   .     S
C702   H717    1.110   .     S
C703   C710    1.408   .     A
C703   N737    1.363   .     A
C703   H713    1.081   .     S
C704   H721    1.109   .     S
C704   H722    1.111   .     S
C704   H720    1.111   .     S
C705   H726    1.111   .     S
C705   H723    1.110   .     S
C705   H725    1.111   .     S
C706   H728    1.109   .     S
C706   H727    1.111   .     S
C706   H729    1.111   .     S
C707   C711    1.408   .     A
C707   H724    1.082   .     S
C707   N738    1.363   .     A
C708   N737    1.363   .     A
C708   H730    1.081   .     S
C708   C712    1.408   .     A
C709   N738    1.363   .     A
C709   H731    1.082   .     S
C710   H736    1.082   .     S
C711   H714    1.082   .     S
C712   H715    1.082   .     S
N737   Zn748   2.007   .     S
N738   Zn747   2.007   .     S
O739   Zn747   1.996   .     S
O740   Zn748   1.996   .     S
O741   Zn747   1.996   .     S
O742   Zn748   1.996   .     S
O743   Zn747   1.948   .     S
O744   Zn748   1.948   .     S
O745   Zn747   1.948   .     S
O746   Zn748   1.948   .     S
C749   O810    1.283   .     A
C749   C766    1.430   .     S
C749   O807    1.283   .     A
C750   C754    1.411   .     A
C750   C777    1.408   .     A
C750   H784    1.082   .     S
C751   C755    1.364   .     S
C751   O811    1.275   .     A
C751   O814    1.275   .     A
C752   C756    1.364   .     S
C752   O812    1.275   .     A
C752   O813    1.275   .     A
C753   C780    1.411   .     A
C753   C778    1.411   .     A
C754   C779    1.411   .     A
C754   C617    1.515   1_565 S
C756   C211    1.164   1_556 S
C757   C762    1.387   .     A
C757   C768    1.397   .     A
C757   H800    1.084   .     S
C758   C763    1.387   .     A
C758   C769    1.397   .     A
C758   H801    1.084   .     S
C759   C764    1.387   .     A
C759   H802    1.084   .     S
C759   C769    1.397   .     A
C760   O809    1.283   .     A
C760   C767    1.430   .     S
C760   O808    1.283   .     A
C761   C765    1.387   .     A
C761   C768    1.397   .     A
C761   H803    1.084   .     S
C762   C766    1.409   .     A
C762   C770    1.510   .     S
C763   C767    1.409   .     A
C763   C772    1.510   .     S
C764   C767    1.409   .     A
C764   C773    1.510   .     S
C765   C774    1.510   .     S
C765   C766    1.409   .     A
C769   C700    1.446   1_655 S
C770   H787    1.111   .     S
C770   H786    1.111   .     S
C770   H785    1.110   .     S
C771   C778    1.408   .     A
C771   N805    1.363   .     A
C771   H781    1.081   .     S
C772   H789    1.109   .     S
C772   H790    1.111   .     S
C772   H788    1.111   .     S
C773   H794    1.111   .     S
C773   H791    1.110   .     S
C773   H793    1.111   .     S
C774   H796    1.109   .     S
C774   H795    1.111   .     S
C774   H797    1.111   .     S
C775   C779    1.408   .     A
C775   H792    1.082   .     S
C775   N806    1.363   .     A
C776   N805    1.363   .     A
C776   H798    1.081   .     S
C776   C780    1.408   .     A
C777   N806    1.363   .     A
C777   H799    1.082   .     S
C778   H804    1.082   .     S
C779   H782    1.082   .     S
C780   H783    1.082   .     S
N805   Zn816   2.007   .     S
N806   Zn815   2.007   .     S
O807   Zn815   1.996   .     S
O808   Zn816   1.996   .     S
O809   Zn815   1.996   .     S
O810   Zn816   1.996   .     S
O811   Zn815   1.948   .     S
O812   Zn816   1.948   .     S
O813   Zn815   1.948   .     S
O814   Zn816   1.948   .     S
