data_str_m3_o2_o10_pcu_sym.52
_audit_creation_date              2020-01-03
_audit_creation_method            'Materials Studio'
_symmetry_space_group_name_H-M    'P1'
_symmetry_Int_Tables_number       1
_symmetry_cell_setting            triclinic
loop_
_symmetry_equiv_pos_as_xyz
  x,y,z
_cell_length_a                    25.7348
_cell_length_b                    29.8650
_cell_length_c                    28.3512
_cell_angle_alpha                 89.6407
_cell_angle_beta                  98.7290
_cell_angle_gamma                 90.0656
loop_
_atom_site_label
_atom_site_type_symbol
_atom_site_fract_x
_atom_site_fract_y
_atom_site_fract_z
_atom_site_U_iso_or_equiv
_atom_site_adp_type
_atom_site_occupancy
C1     C     0.16622   0.16394   0.25010   0.00000  Uiso   1.00
C2     C     0.14304   0.21504   0.44433   0.00000  Uiso   1.00
C3     C     0.16659   0.24998   0.02667   0.00000  Uiso   1.00
C4     C     0.16657   0.25000   0.47330   0.00000  Uiso   1.00
C5     C     0.06700   0.24995   0.23751   0.00000  Uiso   1.00
C6     C     0.26634   0.24998   0.26248   0.00000  Uiso   1.00
C7     C     0.01195   0.24991   0.23077   0.00000  Uiso   1.00
C8     C     0.32139   0.24991   0.26921   0.00000  Uiso   1.00
C9     C     0.11739   0.04986   0.27290   0.00000  Uiso   1.00
C10    C     0.13440   0.45191   0.20316   0.00000  Uiso   1.00
C11    C     0.12453   0.09609   0.27455   0.00000  Uiso   1.00
C12    C     0.16578   0.33627   0.24970   0.00000  Uiso   1.00
C13    C     0.14067   0.40563   0.20524   0.00000  Uiso   1.00
C14    C     0.16140   0.11626   0.24978   0.00000  Uiso   1.00
C15    C     0.16050   0.38432   0.24836   0.00000  Uiso   1.00
C16    C     0.19236   0.09112   0.22370   0.00000  Uiso   1.00
C17    C     0.17397   0.40884   0.29010   0.00000  Uiso   1.00
C18    C     0.18700   0.04526   0.22277   0.00000  Uiso   1.00
C19    C     0.16836   0.45471   0.28870   0.00000  Uiso   1.00
C20    C     0.14907   0.02460   0.24610   0.00000  Uiso   1.00
C21    C     0.14815   0.47629   0.24592   0.00000  Uiso   1.00
C22    C     0.07716   0.02914   0.30070   0.00000  Uiso   1.00
C23    C     0.12517   0.23051   0.04706   0.00000  Uiso   1.00
C24    C     0.02908   0.01087   0.26783   0.00000  Uiso   1.00
C25    C     0.31933   0.49604   0.29609   0.00000  Uiso   1.00
C26    C     0.11556   0.47370   0.15492   0.00000  Uiso   1.00
C27    C     0.06094   0.49480   0.15225   0.00000  Uiso   1.00
C28    C     0.04070   0.01197   0.10201   0.00000  Uiso   1.00
C29    C     0.19011   0.28498   0.45039   0.00000  Uiso   1.00
C30    C     0.12607   0.23076   0.09680   0.00000  Uiso   1.00
C31    C     0.18985   0.28426   0.40075   0.00000  Uiso   1.00
C32    C     0.20721   0.26924   0.10766   0.00000  Uiso   1.00
C33    C     0.14339   0.21577   0.39475   0.00000  Uiso   1.00
C34    C     0.20804   0.26945   0.05816   0.00000  Uiso   1.00
H35    H     0.32459   0.24992   0.19433   0.00000  Uiso   1.00
H36    H     0.20803   0.31318   0.47044   0.00000  Uiso   1.00
H37    H     0.09403   0.21564   0.11187   0.00000  Uiso   1.00
H38    H     0.20815   0.31132   0.38376   0.00000  Uiso   1.00
H39    H     0.23925   0.28444   0.13127   0.00000  Uiso   1.00
H40    H     0.12510   0.18874   0.37303   0.00000  Uiso   1.00
H41    H     0.24143   0.28427   0.04490   0.00000  Uiso   1.00
H42    H     0.12506   0.18685   0.45977   0.00000  Uiso   1.00
H43    H     0.00106   0.46970   0.32247   0.00000  Uiso   1.00
H44    H     0.30513   0.02497   0.31502   0.00000  Uiso   1.00
H45    H     0.28565   0.48216   0.27133   0.00000  Uiso   1.00
H46    H     0.00876   0.24988   0.30565   0.00000  Uiso   1.00
H47    H     0.01281   0.03719   0.24184   0.00000  Uiso   1.00
H48    H     0.04073   0.48150   0.24812   0.00000  Uiso   1.00
H49    H     0.09543   0.00217   0.32468   0.00000  Uiso   1.00
H50    H     0.06340   0.05466   0.32442   0.00000  Uiso   1.00
H51    H     0.06795   0.03756   0.09106   0.00000  Uiso   1.00
H52    H     0.03691   0.48392   0.07617   0.00000  Uiso   1.00
H53    H     0.00143   0.02753   0.10140   0.00000  Uiso   1.00
H54    H     0.03278   0.46956   0.16241   0.00000  Uiso   1.00
H55    H     0.06273   0.02356   0.17696   0.00000  Uiso   1.00
H56    H     0.14417   0.49924   0.14663   0.00000  Uiso   1.00
H57    H     0.10075   0.11666   0.29435   0.00000  Uiso   1.00
H58    H     0.11378   0.44835   0.12614   0.00000  Uiso   1.00
H59    H     0.13002   0.38607   0.17315   0.00000  Uiso   1.00
H60    H     0.22133   0.10693   0.20502   0.00000  Uiso   1.00
H61    H     0.18982   0.39268   0.32351   0.00000  Uiso   1.00
H62    H     0.21294   0.02566   0.20425   0.00000  Uiso   1.00
H63    H     0.18118   0.47368   0.32085   0.00000  Uiso   1.00
H64    H     0.09176   0.21569   0.02482   0.00000  Uiso   1.00
N65    N     0.16667   0.24999   0.12623   0.00000  Uiso   1.00
N66    N     0.16667   0.25001   0.37377   0.00000  Uiso   1.00
O67    O     0.16667   0.18453   0.28974   0.00000  Uiso   1.00
O68    O     0.16666   0.31546   0.21026   0.00000  Uiso   1.00
O69    O     0.16667   0.18453   0.21026   0.00000  Uiso   1.00
O70    O     0.16666   0.31547   0.28974   0.00000  Uiso   1.00
O71    O     0.09058   0.25000   0.28045   0.00000  Uiso   1.00
O72    O     0.24275   0.25000   0.21955   0.00000  Uiso   1.00
O73    O     0.09058   0.24999   0.20097   0.00000  Uiso   1.00
O74    O     0.24275   0.25000   0.29903   0.00000  Uiso   1.00
Zn75   Zn    0.16667   0.25000   0.30307   0.00000  Uiso   1.00
Zn76   Zn    0.16667   0.24999   0.19693   0.00000  Uiso   1.00
C77    C     0.49955   0.16394   0.25010   0.00000  Uiso   1.00
C78    C     0.47637   0.21504   0.44433   0.00000  Uiso   1.00
C79    C     0.49993   0.24998   0.02667   0.00000  Uiso   1.00
C80    C     0.49990   0.25000   0.47330   0.00000  Uiso   1.00
C81    C     0.40033   0.24995   0.23751   0.00000  Uiso   1.00
C82    C     0.59967   0.24998   0.26248   0.00000  Uiso   1.00
C83    C     0.34528   0.24991   0.23077   0.00000  Uiso   1.00
C84    C     0.65472   0.24991   0.26921   0.00000  Uiso   1.00
C85    C     0.45072   0.04986   0.27290   0.00000  Uiso   1.00
C86    C     0.46773   0.45191   0.20316   0.00000  Uiso   1.00
C87    C     0.45787   0.09609   0.27455   0.00000  Uiso   1.00
C88    C     0.49912   0.33627   0.24970   0.00000  Uiso   1.00
C89    C     0.47401   0.40563   0.20524   0.00000  Uiso   1.00
C90    C     0.49473   0.11626   0.24978   0.00000  Uiso   1.00
C91    C     0.49383   0.38432   0.24836   0.00000  Uiso   1.00
C92    C     0.52569   0.09112   0.22370   0.00000  Uiso   1.00
C93    C     0.50730   0.40884   0.29010   0.00000  Uiso   1.00
C94    C     0.52033   0.04526   0.22277   0.00000  Uiso   1.00
C95    C     0.50170   0.45471   0.28870   0.00000  Uiso   1.00
C96    C     0.48240   0.02460   0.24610   0.00000  Uiso   1.00
C97    C     0.48148   0.47629   0.24592   0.00000  Uiso   1.00
C98    C     0.41049   0.02914   0.30070   0.00000  Uiso   1.00
C99    C     0.45851   0.23051   0.04706   0.00000  Uiso   1.00
C100   C     0.36241   0.01087   0.26783   0.00000  Uiso   1.00
C101   C     0.65266   0.49604   0.29609   0.00000  Uiso   1.00
C102   C     0.44889   0.47370   0.15492   0.00000  Uiso   1.00
C103   C     0.39427   0.49480   0.15225   0.00000  Uiso   1.00
C104   C     0.37404   0.01197   0.10201   0.00000  Uiso   1.00
C105   C     0.52344   0.28498   0.45039   0.00000  Uiso   1.00
C106   C     0.45940   0.23076   0.09680   0.00000  Uiso   1.00
C107   C     0.52319   0.28426   0.40075   0.00000  Uiso   1.00
C108   C     0.54054   0.26924   0.10766   0.00000  Uiso   1.00
C109   C     0.47672   0.21577   0.39475   0.00000  Uiso   1.00
C110   C     0.54138   0.26945   0.05816   0.00000  Uiso   1.00
H111   H     0.65792   0.24992   0.19433   0.00000  Uiso   1.00
H112   H     0.54136   0.31318   0.47044   0.00000  Uiso   1.00
H113   H     0.42737   0.21564   0.11187   0.00000  Uiso   1.00
H114   H     0.54149   0.31132   0.38376   0.00000  Uiso   1.00
H115   H     0.57259   0.28444   0.13127   0.00000  Uiso   1.00
H116   H     0.45843   0.18874   0.37303   0.00000  Uiso   1.00
H117   H     0.57476   0.28427   0.04490   0.00000  Uiso   1.00
H118   H     0.45840   0.18685   0.45977   0.00000  Uiso   1.00
H119   H     0.33440   0.46970   0.32247   0.00000  Uiso   1.00
H120   H     0.63846   0.02497   0.31502   0.00000  Uiso   1.00
H121   H     0.61899   0.48216   0.27133   0.00000  Uiso   1.00
H122   H     0.34209   0.24988   0.30565   0.00000  Uiso   1.00
H123   H     0.34614   0.03719   0.24184   0.00000  Uiso   1.00
H124   H     0.37406   0.48150   0.24812   0.00000  Uiso   1.00
H125   H     0.42877   0.00217   0.32468   0.00000  Uiso   1.00
H126   H     0.39673   0.05466   0.32442   0.00000  Uiso   1.00
H127   H     0.40129   0.03756   0.09106   0.00000  Uiso   1.00
H128   H     0.37025   0.48392   0.07617   0.00000  Uiso   1.00
H129   H     0.33476   0.02753   0.10140   0.00000  Uiso   1.00
H130   H     0.36611   0.46956   0.16241   0.00000  Uiso   1.00
H131   H     0.39606   0.02356   0.17696   0.00000  Uiso   1.00
H132   H     0.47750   0.49924   0.14663   0.00000  Uiso   1.00
H133   H     0.43409   0.11666   0.29435   0.00000  Uiso   1.00
H134   H     0.44711   0.44835   0.12614   0.00000  Uiso   1.00
H135   H     0.46335   0.38607   0.17315   0.00000  Uiso   1.00
H136   H     0.55466   0.10693   0.20502   0.00000  Uiso   1.00
H137   H     0.52315   0.39268   0.32351   0.00000  Uiso   1.00
H138   H     0.54627   0.02566   0.20425   0.00000  Uiso   1.00
H139   H     0.51451   0.47368   0.32085   0.00000  Uiso   1.00
H140   H     0.42510   0.21569   0.02482   0.00000  Uiso   1.00
N141   N     0.50000   0.24999   0.12623   0.00000  Uiso   1.00
N142   N     0.50000   0.25001   0.37377   0.00000  Uiso   1.00
O143   O     0.50000   0.18453   0.28974   0.00000  Uiso   1.00
O144   O     0.50000   0.31546   0.21026   0.00000  Uiso   1.00
O145   O     0.50000   0.18453   0.21026   0.00000  Uiso   1.00
O146   O     0.50000   0.31547   0.28974   0.00000  Uiso   1.00
O147   O     0.42392   0.25000   0.28045   0.00000  Uiso   1.00
O148   O     0.57608   0.25000   0.21955   0.00000  Uiso   1.00
O149   O     0.42392   0.24999   0.20097   0.00000  Uiso   1.00
O150   O     0.57608   0.25000   0.29903   0.00000  Uiso   1.00
Zn151  Zn    0.50000   0.25000   0.30307   0.00000  Uiso   1.00
Zn152  Zn    0.50000   0.24999   0.19693   0.00000  Uiso   1.00
C153   C     0.83288   0.16394   0.25010   0.00000  Uiso   1.00
C154   C     0.80970   0.21504   0.44433   0.00000  Uiso   1.00
C155   C     0.83326   0.24998   0.02667   0.00000  Uiso   1.00
C156   C     0.83323   0.25000   0.47330   0.00000  Uiso   1.00
C157   C     0.73366   0.24995   0.23751   0.00000  Uiso   1.00
C158   C     0.93300   0.24998   0.26248   0.00000  Uiso   1.00
C159   C     0.67861   0.24991   0.23077   0.00000  Uiso   1.00
C160   C     0.98805   0.24991   0.26921   0.00000  Uiso   1.00
C161   C     0.78405   0.04986   0.27290   0.00000  Uiso   1.00
C162   C     0.80107   0.45191   0.20316   0.00000  Uiso   1.00
C163   C     0.79120   0.09609   0.27455   0.00000  Uiso   1.00
C164   C     0.83245   0.33627   0.24970   0.00000  Uiso   1.00
C165   C     0.80734   0.40563   0.20524   0.00000  Uiso   1.00
C166   C     0.82807   0.11626   0.24978   0.00000  Uiso   1.00
C167   C     0.82716   0.38432   0.24836   0.00000  Uiso   1.00
C168   C     0.85903   0.09112   0.22370   0.00000  Uiso   1.00
C169   C     0.84064   0.40884   0.29010   0.00000  Uiso   1.00
C170   C     0.85366   0.04526   0.22277   0.00000  Uiso   1.00
C171   C     0.83503   0.45471   0.28870   0.00000  Uiso   1.00
C172   C     0.81573   0.02460   0.24610   0.00000  Uiso   1.00
C173   C     0.81481   0.47629   0.24592   0.00000  Uiso   1.00
C174   C     0.74382   0.02914   0.30070   0.00000  Uiso   1.00
C175   C     0.79184   0.23051   0.04706   0.00000  Uiso   1.00
C176   C     0.69574   0.01087   0.26783   0.00000  Uiso   1.00
C177   C     0.98599   0.49604   0.29609   0.00000  Uiso   1.00
C178   C     0.78222   0.47370   0.15492   0.00000  Uiso   1.00
C179   C     0.72760   0.49480   0.15225   0.00000  Uiso   1.00
C180   C     0.70737   0.01197   0.10201   0.00000  Uiso   1.00
C181   C     0.85677   0.28498   0.45039   0.00000  Uiso   1.00
C182   C     0.79274   0.23076   0.09680   0.00000  Uiso   1.00
C183   C     0.85652   0.28426   0.40075   0.00000  Uiso   1.00
C184   C     0.87387   0.26924   0.10766   0.00000  Uiso   1.00
C185   C     0.81005   0.21577   0.39475   0.00000  Uiso   1.00
C186   C     0.87471   0.26945   0.05816   0.00000  Uiso   1.00
H187   H     0.99125   0.24992   0.19433   0.00000  Uiso   1.00
H188   H     0.87470   0.31318   0.47044   0.00000  Uiso   1.00
H189   H     0.76070   0.21564   0.11187   0.00000  Uiso   1.00
H190   H     0.87482   0.31132   0.38376   0.00000  Uiso   1.00
H191   H     0.90592   0.28444   0.13127   0.00000  Uiso   1.00
H192   H     0.79176   0.18874   0.37303   0.00000  Uiso   1.00
H193   H     0.90809   0.28427   0.04490   0.00000  Uiso   1.00
H194   H     0.79173   0.18685   0.45977   0.00000  Uiso   1.00
H195   H     0.66773   0.46970   0.32247   0.00000  Uiso   1.00
H196   H     0.97180   0.02497   0.31502   0.00000  Uiso   1.00
H197   H     0.95232   0.48216   0.27133   0.00000  Uiso   1.00
H198   H     0.67542   0.24988   0.30565   0.00000  Uiso   1.00
H199   H     0.67947   0.03719   0.24184   0.00000  Uiso   1.00
H200   H     0.70739   0.48150   0.24812   0.00000  Uiso   1.00
H201   H     0.76210   0.00217   0.32468   0.00000  Uiso   1.00
H202   H     0.73006   0.05466   0.32442   0.00000  Uiso   1.00
H203   H     0.73462   0.03756   0.09106   0.00000  Uiso   1.00
H204   H     0.70358   0.48392   0.07617   0.00000  Uiso   1.00
H205   H     0.66810   0.02753   0.10140   0.00000  Uiso   1.00
H206   H     0.69945   0.46956   0.16241   0.00000  Uiso   1.00
H207   H     0.72940   0.02356   0.17696   0.00000  Uiso   1.00
H208   H     0.81083   0.49924   0.14663   0.00000  Uiso   1.00
H209   H     0.76742   0.11666   0.29435   0.00000  Uiso   1.00
H210   H     0.78044   0.44835   0.12614   0.00000  Uiso   1.00
H211   H     0.79669   0.38607   0.17315   0.00000  Uiso   1.00
H212   H     0.88799   0.10693   0.20502   0.00000  Uiso   1.00
H213   H     0.85648   0.39268   0.32351   0.00000  Uiso   1.00
H214   H     0.87960   0.02566   0.20425   0.00000  Uiso   1.00
H215   H     0.84785   0.47368   0.32085   0.00000  Uiso   1.00
H216   H     0.75843   0.21569   0.02482   0.00000  Uiso   1.00
N217   N     0.83333   0.24999   0.12623   0.00000  Uiso   1.00
N218   N     0.83333   0.25001   0.37377   0.00000  Uiso   1.00
O219   O     0.83334   0.18453   0.28974   0.00000  Uiso   1.00
O220   O     0.83333   0.31546   0.21026   0.00000  Uiso   1.00
O221   O     0.83334   0.18453   0.21026   0.00000  Uiso   1.00
O222   O     0.83333   0.31547   0.28974   0.00000  Uiso   1.00
O223   O     0.75725   0.25000   0.28045   0.00000  Uiso   1.00
O224   O     0.90942   0.25000   0.21955   0.00000  Uiso   1.00
O225   O     0.75725   0.24999   0.20097   0.00000  Uiso   1.00
O226   O     0.90942   0.25000   0.29903   0.00000  Uiso   1.00
Zn227  Zn    0.83333   0.25000   0.30307   0.00000  Uiso   1.00
Zn228  Zn    0.83333   0.24999   0.19693   0.00000  Uiso   1.00
C229   C     0.16622   0.66394   0.25010   0.00000  Uiso   1.00
C230   C     0.14304   0.71504   0.44433   0.00000  Uiso   1.00
C231   C     0.16659   0.74998   0.02667   0.00000  Uiso   1.00
C232   C     0.16657   0.75000   0.47330   0.00000  Uiso   1.00
C233   C     0.06700   0.74995   0.23751   0.00000  Uiso   1.00
C234   C     0.26634   0.74998   0.26248   0.00000  Uiso   1.00
C235   C     0.01195   0.74991   0.23077   0.00000  Uiso   1.00
C236   C     0.32139   0.74991   0.26921   0.00000  Uiso   1.00
C237   C     0.11739   0.54986   0.27290   0.00000  Uiso   1.00
C238   C     0.13440   0.95191   0.20316   0.00000  Uiso   1.00
C239   C     0.12453   0.59609   0.27455   0.00000  Uiso   1.00
C240   C     0.16578   0.83627   0.24970   0.00000  Uiso   1.00
C241   C     0.14067   0.90563   0.20524   0.00000  Uiso   1.00
C242   C     0.16140   0.61626   0.24978   0.00000  Uiso   1.00
C243   C     0.16050   0.88432   0.24836   0.00000  Uiso   1.00
C244   C     0.19236   0.59112   0.22370   0.00000  Uiso   1.00
C245   C     0.17397   0.90884   0.29010   0.00000  Uiso   1.00
C246   C     0.18700   0.54526   0.22277   0.00000  Uiso   1.00
C247   C     0.16836   0.95471   0.28870   0.00000  Uiso   1.00
C248   C     0.14907   0.52460   0.24610   0.00000  Uiso   1.00
C249   C     0.14815   0.97629   0.24592   0.00000  Uiso   1.00
C250   C     0.07716   0.52914   0.30070   0.00000  Uiso   1.00
C251   C     0.12517   0.73051   0.04706   0.00000  Uiso   1.00
C252   C     0.02908   0.51087   0.26783   0.00000  Uiso   1.00
C253   C     0.31933   0.99604   0.29609   0.00000  Uiso   1.00
C254   C     0.11556   0.97370   0.15492   0.00000  Uiso   1.00
C255   C     0.06094   0.99480   0.15225   0.00000  Uiso   1.00
C256   C     0.04070   0.51197   0.10201   0.00000  Uiso   1.00
C257   C     0.19011   0.78498   0.45039   0.00000  Uiso   1.00
C258   C     0.12607   0.73076   0.09680   0.00000  Uiso   1.00
C259   C     0.18985   0.78426   0.40075   0.00000  Uiso   1.00
C260   C     0.20721   0.76924   0.10766   0.00000  Uiso   1.00
C261   C     0.14339   0.71577   0.39475   0.00000  Uiso   1.00
C262   C     0.20804   0.76945   0.05816   0.00000  Uiso   1.00
H263   H     0.32459   0.74992   0.19433   0.00000  Uiso   1.00
H264   H     0.20803   0.81318   0.47044   0.00000  Uiso   1.00
H265   H     0.09403   0.71564   0.11187   0.00000  Uiso   1.00
H266   H     0.20815   0.81132   0.38376   0.00000  Uiso   1.00
H267   H     0.23925   0.78444   0.13127   0.00000  Uiso   1.00
H268   H     0.12510   0.68874   0.37303   0.00000  Uiso   1.00
H269   H     0.24143   0.78427   0.04490   0.00000  Uiso   1.00
H270   H     0.12506   0.68685   0.45977   0.00000  Uiso   1.00
H271   H     0.00106   0.96970   0.32247   0.00000  Uiso   1.00
H272   H     0.30513   0.52497   0.31502   0.00000  Uiso   1.00
H273   H     0.28565   0.98216   0.27133   0.00000  Uiso   1.00
H274   H     0.00876   0.74988   0.30565   0.00000  Uiso   1.00
H275   H     0.01281   0.53719   0.24184   0.00000  Uiso   1.00
H276   H     0.04073   0.98150   0.24812   0.00000  Uiso   1.00
H277   H     0.09543   0.50217   0.32468   0.00000  Uiso   1.00
H278   H     0.06340   0.55466   0.32442   0.00000  Uiso   1.00
H279   H     0.06795   0.53756   0.09106   0.00000  Uiso   1.00
H280   H     0.03691   0.98392   0.07617   0.00000  Uiso   1.00
H281   H     0.00143   0.52753   0.10140   0.00000  Uiso   1.00
H282   H     0.03278   0.96956   0.16241   0.00000  Uiso   1.00
H283   H     0.06273   0.52356   0.17696   0.00000  Uiso   1.00
H284   H     0.14417   0.99924   0.14663   0.00000  Uiso   1.00
H285   H     0.10075   0.61666   0.29435   0.00000  Uiso   1.00
H286   H     0.11378   0.94835   0.12614   0.00000  Uiso   1.00
H287   H     0.13002   0.88607   0.17315   0.00000  Uiso   1.00
H288   H     0.22133   0.60693   0.20502   0.00000  Uiso   1.00
H289   H     0.18982   0.89268   0.32351   0.00000  Uiso   1.00
H290   H     0.21294   0.52566   0.20425   0.00000  Uiso   1.00
H291   H     0.18118   0.97368   0.32085   0.00000  Uiso   1.00
H292   H     0.09176   0.71569   0.02482   0.00000  Uiso   1.00
N293   N     0.16667   0.74999   0.12623   0.00000  Uiso   1.00
N294   N     0.16667   0.75001   0.37377   0.00000  Uiso   1.00
O295   O     0.16667   0.68453   0.28974   0.00000  Uiso   1.00
O296   O     0.16666   0.81546   0.21026   0.00000  Uiso   1.00
O297   O     0.16667   0.68453   0.21026   0.00000  Uiso   1.00
O298   O     0.16666   0.81547   0.28974   0.00000  Uiso   1.00
O299   O     0.09058   0.75000   0.28045   0.00000  Uiso   1.00
O300   O     0.24275   0.75000   0.21955   0.00000  Uiso   1.00
O301   O     0.09058   0.74999   0.20097   0.00000  Uiso   1.00
O302   O     0.24275   0.75000   0.29903   0.00000  Uiso   1.00
Zn303  Zn    0.16667   0.75000   0.30307   0.00000  Uiso   1.00
Zn304  Zn    0.16667   0.74999   0.19693   0.00000  Uiso   1.00
C305   C     0.49955   0.66394   0.25010   0.00000  Uiso   1.00
C306   C     0.47637   0.71504   0.44433   0.00000  Uiso   1.00
C307   C     0.49993   0.74998   0.02667   0.00000  Uiso   1.00
C308   C     0.49990   0.75000   0.47330   0.00000  Uiso   1.00
C309   C     0.40033   0.74995   0.23751   0.00000  Uiso   1.00
C310   C     0.59967   0.74998   0.26248   0.00000  Uiso   1.00
C311   C     0.34528   0.74991   0.23077   0.00000  Uiso   1.00
C312   C     0.65472   0.74991   0.26921   0.00000  Uiso   1.00
C313   C     0.45072   0.54986   0.27290   0.00000  Uiso   1.00
C314   C     0.46773   0.95191   0.20316   0.00000  Uiso   1.00
C315   C     0.45787   0.59609   0.27455   0.00000  Uiso   1.00
C316   C     0.49912   0.83627   0.24970   0.00000  Uiso   1.00
C317   C     0.47401   0.90563   0.20524   0.00000  Uiso   1.00
C318   C     0.49473   0.61626   0.24978   0.00000  Uiso   1.00
C319   C     0.49383   0.88432   0.24836   0.00000  Uiso   1.00
C320   C     0.52569   0.59112   0.22370   0.00000  Uiso   1.00
C321   C     0.50730   0.90884   0.29010   0.00000  Uiso   1.00
C322   C     0.52033   0.54526   0.22277   0.00000  Uiso   1.00
C323   C     0.50170   0.95471   0.28870   0.00000  Uiso   1.00
C324   C     0.48240   0.52460   0.24610   0.00000  Uiso   1.00
C325   C     0.48148   0.97629   0.24592   0.00000  Uiso   1.00
C326   C     0.41049   0.52914   0.30070   0.00000  Uiso   1.00
C327   C     0.45851   0.73051   0.04706   0.00000  Uiso   1.00
C328   C     0.36241   0.51087   0.26783   0.00000  Uiso   1.00
C329   C     0.65266   0.99604   0.29609   0.00000  Uiso   1.00
C330   C     0.44889   0.97370   0.15492   0.00000  Uiso   1.00
C331   C     0.39427   0.99480   0.15225   0.00000  Uiso   1.00
C332   C     0.37404   0.51197   0.10201   0.00000  Uiso   1.00
C333   C     0.52344   0.78498   0.45039   0.00000  Uiso   1.00
C334   C     0.45940   0.73076   0.09680   0.00000  Uiso   1.00
C335   C     0.52319   0.78426   0.40075   0.00000  Uiso   1.00
C336   C     0.54054   0.76924   0.10766   0.00000  Uiso   1.00
C337   C     0.47672   0.71577   0.39475   0.00000  Uiso   1.00
C338   C     0.54138   0.76945   0.05816   0.00000  Uiso   1.00
H339   H     0.65792   0.74992   0.19433   0.00000  Uiso   1.00
H340   H     0.54136   0.81318   0.47044   0.00000  Uiso   1.00
H341   H     0.42737   0.71564   0.11187   0.00000  Uiso   1.00
H342   H     0.54149   0.81132   0.38376   0.00000  Uiso   1.00
H343   H     0.57259   0.78444   0.13127   0.00000  Uiso   1.00
H344   H     0.45843   0.68874   0.37303   0.00000  Uiso   1.00
H345   H     0.57476   0.78427   0.04490   0.00000  Uiso   1.00
H346   H     0.45840   0.68685   0.45977   0.00000  Uiso   1.00
H347   H     0.33440   0.96970   0.32247   0.00000  Uiso   1.00
H348   H     0.63846   0.52497   0.31502   0.00000  Uiso   1.00
H349   H     0.61899   0.98216   0.27133   0.00000  Uiso   1.00
H350   H     0.34209   0.74988   0.30565   0.00000  Uiso   1.00
H351   H     0.34614   0.53719   0.24184   0.00000  Uiso   1.00
H352   H     0.37406   0.98150   0.24812   0.00000  Uiso   1.00
H353   H     0.42877   0.50217   0.32468   0.00000  Uiso   1.00
H354   H     0.39673   0.55466   0.32442   0.00000  Uiso   1.00
H355   H     0.40129   0.53756   0.09106   0.00000  Uiso   1.00
H356   H     0.37025   0.98392   0.07617   0.00000  Uiso   1.00
H357   H     0.33476   0.52753   0.10140   0.00000  Uiso   1.00
H358   H     0.36611   0.96956   0.16241   0.00000  Uiso   1.00
H359   H     0.39606   0.52356   0.17696   0.00000  Uiso   1.00
H360   H     0.47750   0.99924   0.14663   0.00000  Uiso   1.00
H361   H     0.43409   0.61666   0.29435   0.00000  Uiso   1.00
H362   H     0.44711   0.94835   0.12614   0.00000  Uiso   1.00
H363   H     0.46335   0.88607   0.17315   0.00000  Uiso   1.00
H364   H     0.55466   0.60693   0.20502   0.00000  Uiso   1.00
H365   H     0.52315   0.89268   0.32351   0.00000  Uiso   1.00
H366   H     0.54627   0.52566   0.20425   0.00000  Uiso   1.00
H367   H     0.51451   0.97368   0.32085   0.00000  Uiso   1.00
H368   H     0.42510   0.71569   0.02482   0.00000  Uiso   1.00
N369   N     0.50000   0.74999   0.12623   0.00000  Uiso   1.00
N370   N     0.50000   0.75001   0.37377   0.00000  Uiso   1.00
O371   O     0.50000   0.68453   0.28974   0.00000  Uiso   1.00
O372   O     0.50000   0.81546   0.21026   0.00000  Uiso   1.00
O373   O     0.50000   0.68453   0.21026   0.00000  Uiso   1.00
O374   O     0.50000   0.81547   0.28974   0.00000  Uiso   1.00
O375   O     0.42392   0.75000   0.28045   0.00000  Uiso   1.00
O376   O     0.57608   0.75000   0.21955   0.00000  Uiso   1.00
O377   O     0.42392   0.74999   0.20097   0.00000  Uiso   1.00
O378   O     0.57608   0.75000   0.29903   0.00000  Uiso   1.00
Zn379  Zn    0.50000   0.75000   0.30307   0.00000  Uiso   1.00
Zn380  Zn    0.50000   0.74999   0.19693   0.00000  Uiso   1.00
C381   C     0.83288   0.66394   0.25010   0.00000  Uiso   1.00
C382   C     0.80970   0.71504   0.44433   0.00000  Uiso   1.00
C383   C     0.83326   0.74998   0.02667   0.00000  Uiso   1.00
C384   C     0.83323   0.75000   0.47330   0.00000  Uiso   1.00
C385   C     0.73366   0.74995   0.23751   0.00000  Uiso   1.00
C386   C     0.93300   0.74998   0.26248   0.00000  Uiso   1.00
C387   C     0.67861   0.74991   0.23077   0.00000  Uiso   1.00
C388   C     0.98805   0.74991   0.26921   0.00000  Uiso   1.00
C389   C     0.78405   0.54986   0.27290   0.00000  Uiso   1.00
C390   C     0.80107   0.95191   0.20316   0.00000  Uiso   1.00
C391   C     0.79120   0.59609   0.27455   0.00000  Uiso   1.00
C392   C     0.83245   0.83627   0.24970   0.00000  Uiso   1.00
C393   C     0.80734   0.90563   0.20524   0.00000  Uiso   1.00
C394   C     0.82807   0.61626   0.24978   0.00000  Uiso   1.00
C395   C     0.82716   0.88432   0.24836   0.00000  Uiso   1.00
C396   C     0.85903   0.59112   0.22370   0.00000  Uiso   1.00
C397   C     0.84064   0.90884   0.29010   0.00000  Uiso   1.00
C398   C     0.85366   0.54526   0.22277   0.00000  Uiso   1.00
C399   C     0.83503   0.95471   0.28870   0.00000  Uiso   1.00
C400   C     0.81573   0.52460   0.24610   0.00000  Uiso   1.00
C401   C     0.81481   0.97629   0.24592   0.00000  Uiso   1.00
C402   C     0.74382   0.52914   0.30070   0.00000  Uiso   1.00
C403   C     0.79184   0.73051   0.04706   0.00000  Uiso   1.00
C404   C     0.69574   0.51087   0.26783   0.00000  Uiso   1.00
C405   C     0.98599   0.99604   0.29609   0.00000  Uiso   1.00
C406   C     0.78222   0.97370   0.15492   0.00000  Uiso   1.00
C407   C     0.72760   0.99480   0.15225   0.00000  Uiso   1.00
C408   C     0.70737   0.51197   0.10201   0.00000  Uiso   1.00
C409   C     0.85677   0.78498   0.45039   0.00000  Uiso   1.00
C410   C     0.79274   0.73076   0.09680   0.00000  Uiso   1.00
C411   C     0.85652   0.78426   0.40075   0.00000  Uiso   1.00
C412   C     0.87387   0.76924   0.10766   0.00000  Uiso   1.00
C413   C     0.81005   0.71577   0.39475   0.00000  Uiso   1.00
C414   C     0.87471   0.76945   0.05816   0.00000  Uiso   1.00
H415   H     0.99125   0.74992   0.19433   0.00000  Uiso   1.00
H416   H     0.87470   0.81318   0.47044   0.00000  Uiso   1.00
H417   H     0.76070   0.71564   0.11187   0.00000  Uiso   1.00
H418   H     0.87482   0.81132   0.38376   0.00000  Uiso   1.00
H419   H     0.90592   0.78444   0.13127   0.00000  Uiso   1.00
H420   H     0.79176   0.68874   0.37303   0.00000  Uiso   1.00
H421   H     0.90809   0.78427   0.04490   0.00000  Uiso   1.00
H422   H     0.79173   0.68685   0.45977   0.00000  Uiso   1.00
H423   H     0.66773   0.96970   0.32247   0.00000  Uiso   1.00
H424   H     0.97180   0.52497   0.31502   0.00000  Uiso   1.00
H425   H     0.95232   0.98216   0.27133   0.00000  Uiso   1.00
H426   H     0.67542   0.74988   0.30565   0.00000  Uiso   1.00
H427   H     0.67947   0.53719   0.24184   0.00000  Uiso   1.00
H428   H     0.70739   0.98150   0.24812   0.00000  Uiso   1.00
H429   H     0.76210   0.50217   0.32468   0.00000  Uiso   1.00
H430   H     0.73006   0.55466   0.32442   0.00000  Uiso   1.00
H431   H     0.73462   0.53756   0.09106   0.00000  Uiso   1.00
H432   H     0.70358   0.98392   0.07617   0.00000  Uiso   1.00
H433   H     0.66810   0.52753   0.10140   0.00000  Uiso   1.00
H434   H     0.69945   0.96956   0.16241   0.00000  Uiso   1.00
H435   H     0.72940   0.52356   0.17696   0.00000  Uiso   1.00
H436   H     0.81083   0.99924   0.14663   0.00000  Uiso   1.00
H437   H     0.76742   0.61666   0.29435   0.00000  Uiso   1.00
H438   H     0.78044   0.94835   0.12614   0.00000  Uiso   1.00
H439   H     0.79669   0.88607   0.17315   0.00000  Uiso   1.00
H440   H     0.88799   0.60693   0.20502   0.00000  Uiso   1.00
H441   H     0.85648   0.89268   0.32351   0.00000  Uiso   1.00
H442   H     0.87960   0.52566   0.20425   0.00000  Uiso   1.00
H443   H     0.84785   0.97368   0.32085   0.00000  Uiso   1.00
H444   H     0.75843   0.71569   0.02482   0.00000  Uiso   1.00
N445   N     0.83333   0.74999   0.12623   0.00000  Uiso   1.00
N446   N     0.83333   0.75001   0.37377   0.00000  Uiso   1.00
O447   O     0.83334   0.68453   0.28974   0.00000  Uiso   1.00
O448   O     0.83333   0.81546   0.21026   0.00000  Uiso   1.00
O449   O     0.83334   0.68453   0.21026   0.00000  Uiso   1.00
O450   O     0.83333   0.81547   0.28974   0.00000  Uiso   1.00
O451   O     0.75725   0.75000   0.28045   0.00000  Uiso   1.00
O452   O     0.90942   0.75000   0.21955   0.00000  Uiso   1.00
O453   O     0.75725   0.74999   0.20097   0.00000  Uiso   1.00
O454   O     0.90942   0.75000   0.29903   0.00000  Uiso   1.00
Zn455  Zn    0.83333   0.75000   0.30307   0.00000  Uiso   1.00
Zn456  Zn    0.83333   0.74999   0.19693   0.00000  Uiso   1.00
C457   C     0.16622   0.16394   0.75010   0.00000  Uiso   1.00
C458   C     0.14304   0.21504   0.94433   0.00000  Uiso   1.00
C459   C     0.16659   0.24998   0.52667   0.00000  Uiso   1.00
C460   C     0.16657   0.25000   0.97330   0.00000  Uiso   1.00
C461   C     0.06700   0.24995   0.73751   0.00000  Uiso   1.00
C462   C     0.26634   0.24998   0.76248   0.00000  Uiso   1.00
C463   C     0.01195   0.24991   0.73077   0.00000  Uiso   1.00
C464   C     0.32139   0.24991   0.76921   0.00000  Uiso   1.00
C465   C     0.11739   0.04986   0.77290   0.00000  Uiso   1.00
C466   C     0.13440   0.45191   0.70316   0.00000  Uiso   1.00
C467   C     0.12453   0.09609   0.77455   0.00000  Uiso   1.00
C468   C     0.16578   0.33627   0.74970   0.00000  Uiso   1.00
C469   C     0.14067   0.40563   0.70524   0.00000  Uiso   1.00
C470   C     0.16140   0.11626   0.74978   0.00000  Uiso   1.00
C471   C     0.16050   0.38432   0.74836   0.00000  Uiso   1.00
C472   C     0.19236   0.09112   0.72370   0.00000  Uiso   1.00
C473   C     0.17397   0.40884   0.79010   0.00000  Uiso   1.00
C474   C     0.18700   0.04526   0.72277   0.00000  Uiso   1.00
C475   C     0.16836   0.45471   0.78870   0.00000  Uiso   1.00
C476   C     0.14907   0.02460   0.74610   0.00000  Uiso   1.00
C477   C     0.14815   0.47629   0.74592   0.00000  Uiso   1.00
C478   C     0.07716   0.02914   0.80070   0.00000  Uiso   1.00
C479   C     0.12517   0.23051   0.54706   0.00000  Uiso   1.00
C480   C     0.02908   0.01087   0.76783   0.00000  Uiso   1.00
C481   C     0.31933   0.49604   0.79609   0.00000  Uiso   1.00
C482   C     0.11556   0.47370   0.65492   0.00000  Uiso   1.00
C483   C     0.06094   0.49480   0.65225   0.00000  Uiso   1.00
C484   C     0.04070   0.01197   0.60201   0.00000  Uiso   1.00
C485   C     0.19011   0.28498   0.95039   0.00000  Uiso   1.00
C486   C     0.12607   0.23076   0.59680   0.00000  Uiso   1.00
C487   C     0.18985   0.28426   0.90075   0.00000  Uiso   1.00
C488   C     0.20721   0.26924   0.60766   0.00000  Uiso   1.00
C489   C     0.14339   0.21577   0.89475   0.00000  Uiso   1.00
C490   C     0.20804   0.26945   0.55816   0.00000  Uiso   1.00
H491   H     0.32459   0.24992   0.69433   0.00000  Uiso   1.00
H492   H     0.20803   0.31318   0.97044   0.00000  Uiso   1.00
H493   H     0.09403   0.21564   0.61187   0.00000  Uiso   1.00
H494   H     0.20815   0.31132   0.88376   0.00000  Uiso   1.00
H495   H     0.23925   0.28444   0.63127   0.00000  Uiso   1.00
H496   H     0.12510   0.18874   0.87303   0.00000  Uiso   1.00
H497   H     0.24143   0.28427   0.54490   0.00000  Uiso   1.00
H498   H     0.12506   0.18685   0.95977   0.00000  Uiso   1.00
H499   H     0.00106   0.46970   0.82247   0.00000  Uiso   1.00
H500   H     0.30513   0.02497   0.81502   0.00000  Uiso   1.00
H501   H     0.28565   0.48216   0.77133   0.00000  Uiso   1.00
H502   H     0.00876   0.24988   0.80565   0.00000  Uiso   1.00
H503   H     0.01281   0.03719   0.74184   0.00000  Uiso   1.00
H504   H     0.04073   0.48150   0.74812   0.00000  Uiso   1.00
H505   H     0.09543   0.00217   0.82468   0.00000  Uiso   1.00
H506   H     0.06340   0.05466   0.82442   0.00000  Uiso   1.00
H507   H     0.06795   0.03756   0.59106   0.00000  Uiso   1.00
H508   H     0.03691   0.48392   0.57617   0.00000  Uiso   1.00
H509   H     0.00143   0.02753   0.60140   0.00000  Uiso   1.00
H510   H     0.03278   0.46956   0.66241   0.00000  Uiso   1.00
H511   H     0.06273   0.02356   0.67696   0.00000  Uiso   1.00
H512   H     0.14417   0.49924   0.64663   0.00000  Uiso   1.00
H513   H     0.10075   0.11666   0.79435   0.00000  Uiso   1.00
H514   H     0.11378   0.44835   0.62614   0.00000  Uiso   1.00
H515   H     0.13002   0.38607   0.67315   0.00000  Uiso   1.00
H516   H     0.22133   0.10693   0.70502   0.00000  Uiso   1.00
H517   H     0.18982   0.39268   0.82351   0.00000  Uiso   1.00
H518   H     0.21294   0.02566   0.70425   0.00000  Uiso   1.00
H519   H     0.18118   0.47368   0.82085   0.00000  Uiso   1.00
H520   H     0.09176   0.21569   0.52482   0.00000  Uiso   1.00
N521   N     0.16667   0.24999   0.62623   0.00000  Uiso   1.00
N522   N     0.16667   0.25001   0.87377   0.00000  Uiso   1.00
O523   O     0.16667   0.18453   0.78974   0.00000  Uiso   1.00
O524   O     0.16666   0.31546   0.71026   0.00000  Uiso   1.00
O525   O     0.16667   0.18453   0.71026   0.00000  Uiso   1.00
O526   O     0.16666   0.31547   0.78974   0.00000  Uiso   1.00
O527   O     0.09058   0.25000   0.78045   0.00000  Uiso   1.00
O528   O     0.24275   0.25000   0.71955   0.00000  Uiso   1.00
O529   O     0.09058   0.24999   0.70097   0.00000  Uiso   1.00
O530   O     0.24275   0.25000   0.79903   0.00000  Uiso   1.00
Zn531  Zn    0.16667   0.25000   0.80307   0.00000  Uiso   1.00
Zn532  Zn    0.16667   0.24999   0.69693   0.00000  Uiso   1.00
C533   C     0.49955   0.16394   0.75010   0.00000  Uiso   1.00
C534   C     0.47637   0.21504   0.94433   0.00000  Uiso   1.00
C535   C     0.49993   0.24998   0.52667   0.00000  Uiso   1.00
C536   C     0.49990   0.25000   0.97330   0.00000  Uiso   1.00
C537   C     0.40033   0.24995   0.73751   0.00000  Uiso   1.00
C538   C     0.59967   0.24998   0.76248   0.00000  Uiso   1.00
C539   C     0.34528   0.24991   0.73077   0.00000  Uiso   1.00
C540   C     0.65472   0.24991   0.76921   0.00000  Uiso   1.00
C541   C     0.45072   0.04986   0.77290   0.00000  Uiso   1.00
C542   C     0.46773   0.45191   0.70316   0.00000  Uiso   1.00
C543   C     0.45787   0.09609   0.77455   0.00000  Uiso   1.00
C544   C     0.49912   0.33627   0.74970   0.00000  Uiso   1.00
C545   C     0.47401   0.40563   0.70524   0.00000  Uiso   1.00
C546   C     0.49473   0.11626   0.74978   0.00000  Uiso   1.00
C547   C     0.49383   0.38432   0.74836   0.00000  Uiso   1.00
C548   C     0.52569   0.09112   0.72370   0.00000  Uiso   1.00
C549   C     0.50730   0.40884   0.79010   0.00000  Uiso   1.00
C550   C     0.52033   0.04526   0.72277   0.00000  Uiso   1.00
C551   C     0.50170   0.45471   0.78870   0.00000  Uiso   1.00
C552   C     0.48240   0.02460   0.74610   0.00000  Uiso   1.00
C553   C     0.48148   0.47629   0.74592   0.00000  Uiso   1.00
C554   C     0.41049   0.02914   0.80070   0.00000  Uiso   1.00
C555   C     0.45851   0.23051   0.54706   0.00000  Uiso   1.00
C556   C     0.36241   0.01087   0.76783   0.00000  Uiso   1.00
C557   C     0.65266   0.49604   0.79609   0.00000  Uiso   1.00
C558   C     0.44889   0.47370   0.65492   0.00000  Uiso   1.00
C559   C     0.39427   0.49480   0.65225   0.00000  Uiso   1.00
C560   C     0.37404   0.01197   0.60201   0.00000  Uiso   1.00
C561   C     0.52344   0.28498   0.95039   0.00000  Uiso   1.00
C562   C     0.45940   0.23076   0.59680   0.00000  Uiso   1.00
C563   C     0.52319   0.28426   0.90075   0.00000  Uiso   1.00
C564   C     0.54054   0.26924   0.60766   0.00000  Uiso   1.00
C565   C     0.47672   0.21577   0.89475   0.00000  Uiso   1.00
C566   C     0.54138   0.26945   0.55816   0.00000  Uiso   1.00
H567   H     0.65792   0.24992   0.69433   0.00000  Uiso   1.00
H568   H     0.54136   0.31318   0.97044   0.00000  Uiso   1.00
H569   H     0.42737   0.21564   0.61187   0.00000  Uiso   1.00
H570   H     0.54149   0.31132   0.88376   0.00000  Uiso   1.00
H571   H     0.57259   0.28444   0.63127   0.00000  Uiso   1.00
H572   H     0.45843   0.18874   0.87303   0.00000  Uiso   1.00
H573   H     0.57476   0.28427   0.54490   0.00000  Uiso   1.00
H574   H     0.45840   0.18685   0.95977   0.00000  Uiso   1.00
H575   H     0.33440   0.46970   0.82247   0.00000  Uiso   1.00
H576   H     0.63846   0.02497   0.81502   0.00000  Uiso   1.00
H577   H     0.61899   0.48216   0.77133   0.00000  Uiso   1.00
H578   H     0.34209   0.24988   0.80565   0.00000  Uiso   1.00
H579   H     0.34614   0.03719   0.74184   0.00000  Uiso   1.00
H580   H     0.37406   0.48150   0.74812   0.00000  Uiso   1.00
H581   H     0.42877   0.00217   0.82468   0.00000  Uiso   1.00
H582   H     0.39673   0.05466   0.82442   0.00000  Uiso   1.00
H583   H     0.40129   0.03756   0.59106   0.00000  Uiso   1.00
H584   H     0.37025   0.48392   0.57617   0.00000  Uiso   1.00
H585   H     0.33476   0.02753   0.60140   0.00000  Uiso   1.00
H586   H     0.36611   0.46956   0.66241   0.00000  Uiso   1.00
H587   H     0.39606   0.02356   0.67696   0.00000  Uiso   1.00
H588   H     0.47750   0.49924   0.64663   0.00000  Uiso   1.00
H589   H     0.43409   0.11666   0.79435   0.00000  Uiso   1.00
H590   H     0.44711   0.44835   0.62614   0.00000  Uiso   1.00
H591   H     0.46335   0.38607   0.67315   0.00000  Uiso   1.00
H592   H     0.55466   0.10693   0.70502   0.00000  Uiso   1.00
H593   H     0.52315   0.39268   0.82351   0.00000  Uiso   1.00
H594   H     0.54627   0.02566   0.70425   0.00000  Uiso   1.00
H595   H     0.51451   0.47368   0.82085   0.00000  Uiso   1.00
H596   H     0.42510   0.21569   0.52482   0.00000  Uiso   1.00
N597   N     0.50000   0.24999   0.62623   0.00000  Uiso   1.00
N598   N     0.50000   0.25001   0.87377   0.00000  Uiso   1.00
O599   O     0.50000   0.18453   0.78974   0.00000  Uiso   1.00
O600   O     0.50000   0.31546   0.71026   0.00000  Uiso   1.00
O601   O     0.50000   0.18453   0.71026   0.00000  Uiso   1.00
O602   O     0.50000   0.31547   0.78974   0.00000  Uiso   1.00
O603   O     0.42392   0.25000   0.78045   0.00000  Uiso   1.00
O604   O     0.57608   0.25000   0.71955   0.00000  Uiso   1.00
O605   O     0.42392   0.24999   0.70097   0.00000  Uiso   1.00
O606   O     0.57608   0.25000   0.79903   0.00000  Uiso   1.00
Zn607  Zn    0.50000   0.25000   0.80307   0.00000  Uiso   1.00
Zn608  Zn    0.50000   0.24999   0.69693   0.00000  Uiso   1.00
C609   C     0.83288   0.16394   0.75010   0.00000  Uiso   1.00
C610   C     0.80970   0.21504   0.94433   0.00000  Uiso   1.00
C611   C     0.83326   0.24998   0.52667   0.00000  Uiso   1.00
C612   C     0.83323   0.25000   0.97330   0.00000  Uiso   1.00
C613   C     0.73366   0.24995   0.73751   0.00000  Uiso   1.00
C614   C     0.93300   0.24998   0.76248   0.00000  Uiso   1.00
C615   C     0.67861   0.24991   0.73077   0.00000  Uiso   1.00
C616   C     0.98805   0.24991   0.76921   0.00000  Uiso   1.00
C617   C     0.78405   0.04986   0.77290   0.00000  Uiso   1.00
C618   C     0.80107   0.45191   0.70316   0.00000  Uiso   1.00
C619   C     0.79120   0.09609   0.77455   0.00000  Uiso   1.00
C620   C     0.83245   0.33627   0.74970   0.00000  Uiso   1.00
C621   C     0.80734   0.40563   0.70524   0.00000  Uiso   1.00
C622   C     0.82807   0.11626   0.74978   0.00000  Uiso   1.00
C623   C     0.82716   0.38432   0.74836   0.00000  Uiso   1.00
C624   C     0.85903   0.09112   0.72370   0.00000  Uiso   1.00
C625   C     0.84064   0.40884   0.79010   0.00000  Uiso   1.00
C626   C     0.85366   0.04526   0.72277   0.00000  Uiso   1.00
C627   C     0.83503   0.45471   0.78870   0.00000  Uiso   1.00
C628   C     0.81573   0.02460   0.74610   0.00000  Uiso   1.00
C629   C     0.81481   0.47629   0.74592   0.00000  Uiso   1.00
C630   C     0.74382   0.02914   0.80070   0.00000  Uiso   1.00
C631   C     0.79184   0.23051   0.54706   0.00000  Uiso   1.00
C632   C     0.69574   0.01087   0.76783   0.00000  Uiso   1.00
C633   C     0.98599   0.49604   0.79609   0.00000  Uiso   1.00
C634   C     0.78222   0.47370   0.65492   0.00000  Uiso   1.00
C635   C     0.72760   0.49480   0.65225   0.00000  Uiso   1.00
C636   C     0.70737   0.01197   0.60201   0.00000  Uiso   1.00
C637   C     0.85677   0.28498   0.95039   0.00000  Uiso   1.00
C638   C     0.79274   0.23076   0.59680   0.00000  Uiso   1.00
C639   C     0.85652   0.28426   0.90075   0.00000  Uiso   1.00
C640   C     0.87387   0.26924   0.60766   0.00000  Uiso   1.00
C641   C     0.81005   0.21577   0.89475   0.00000  Uiso   1.00
C642   C     0.87471   0.26945   0.55816   0.00000  Uiso   1.00
H643   H     0.99125   0.24992   0.69433   0.00000  Uiso   1.00
H644   H     0.87470   0.31318   0.97044   0.00000  Uiso   1.00
H645   H     0.76070   0.21564   0.61187   0.00000  Uiso   1.00
H646   H     0.87482   0.31132   0.88376   0.00000  Uiso   1.00
H647   H     0.90592   0.28444   0.63127   0.00000  Uiso   1.00
H648   H     0.79176   0.18874   0.87303   0.00000  Uiso   1.00
H649   H     0.90809   0.28427   0.54490   0.00000  Uiso   1.00
H650   H     0.79173   0.18685   0.95977   0.00000  Uiso   1.00
H651   H     0.66773   0.46970   0.82247   0.00000  Uiso   1.00
H652   H     0.97180   0.02497   0.81502   0.00000  Uiso   1.00
H653   H     0.95232   0.48216   0.77133   0.00000  Uiso   1.00
H654   H     0.67542   0.24988   0.80565   0.00000  Uiso   1.00
H655   H     0.67947   0.03719   0.74184   0.00000  Uiso   1.00
H656   H     0.70739   0.48150   0.74812   0.00000  Uiso   1.00
H657   H     0.76210   0.00217   0.82468   0.00000  Uiso   1.00
H658   H     0.73006   0.05466   0.82442   0.00000  Uiso   1.00
H659   H     0.73462   0.03756   0.59106   0.00000  Uiso   1.00
H660   H     0.70358   0.48392   0.57617   0.00000  Uiso   1.00
H661   H     0.66810   0.02753   0.60140   0.00000  Uiso   1.00
H662   H     0.69945   0.46956   0.66241   0.00000  Uiso   1.00
H663   H     0.72940   0.02356   0.67696   0.00000  Uiso   1.00
H664   H     0.81083   0.49924   0.64663   0.00000  Uiso   1.00
H665   H     0.76742   0.11666   0.79435   0.00000  Uiso   1.00
H666   H     0.78044   0.44835   0.62614   0.00000  Uiso   1.00
H667   H     0.79669   0.38607   0.67315   0.00000  Uiso   1.00
H668   H     0.88799   0.10693   0.70502   0.00000  Uiso   1.00
H669   H     0.85648   0.39268   0.82351   0.00000  Uiso   1.00
H670   H     0.87960   0.02566   0.70425   0.00000  Uiso   1.00
H671   H     0.84785   0.47368   0.82085   0.00000  Uiso   1.00
H672   H     0.75843   0.21569   0.52482   0.00000  Uiso   1.00
N673   N     0.83333   0.24999   0.62623   0.00000  Uiso   1.00
N674   N     0.83333   0.25001   0.87377   0.00000  Uiso   1.00
O675   O     0.83334   0.18453   0.78974   0.00000  Uiso   1.00
O676   O     0.83333   0.31546   0.71026   0.00000  Uiso   1.00
O677   O     0.83334   0.18453   0.71026   0.00000  Uiso   1.00
O678   O     0.83333   0.31547   0.78974   0.00000  Uiso   1.00
O679   O     0.75725   0.25000   0.78045   0.00000  Uiso   1.00
O680   O     0.90942   0.25000   0.71955   0.00000  Uiso   1.00
O681   O     0.75725   0.24999   0.70097   0.00000  Uiso   1.00
O682   O     0.90942   0.25000   0.79903   0.00000  Uiso   1.00
Zn683  Zn    0.83333   0.25000   0.80307   0.00000  Uiso   1.00
Zn684  Zn    0.83333   0.24999   0.69693   0.00000  Uiso   1.00
C685   C     0.16622   0.66394   0.75010   0.00000  Uiso   1.00
C686   C     0.14304   0.71504   0.94433   0.00000  Uiso   1.00
C687   C     0.16659   0.74998   0.52667   0.00000  Uiso   1.00
C688   C     0.16657   0.75000   0.97330   0.00000  Uiso   1.00
C689   C     0.06700   0.74995   0.73751   0.00000  Uiso   1.00
C690   C     0.26634   0.74998   0.76248   0.00000  Uiso   1.00
C691   C     0.01195   0.74991   0.73077   0.00000  Uiso   1.00
C692   C     0.32139   0.74991   0.76921   0.00000  Uiso   1.00
C693   C     0.11739   0.54986   0.77290   0.00000  Uiso   1.00
C694   C     0.13440   0.95191   0.70316   0.00000  Uiso   1.00
C695   C     0.12453   0.59609   0.77455   0.00000  Uiso   1.00
C696   C     0.16578   0.83627   0.74970   0.00000  Uiso   1.00
C697   C     0.14067   0.90563   0.70524   0.00000  Uiso   1.00
C698   C     0.16140   0.61626   0.74978   0.00000  Uiso   1.00
C699   C     0.16050   0.88432   0.74836   0.00000  Uiso   1.00
C700   C     0.19236   0.59112   0.72370   0.00000  Uiso   1.00
C701   C     0.17397   0.90884   0.79010   0.00000  Uiso   1.00
C702   C     0.18700   0.54526   0.72277   0.00000  Uiso   1.00
C703   C     0.16836   0.95471   0.78870   0.00000  Uiso   1.00
C704   C     0.14907   0.52460   0.74610   0.00000  Uiso   1.00
C705   C     0.14815   0.97629   0.74592   0.00000  Uiso   1.00
C706   C     0.07716   0.52914   0.80070   0.00000  Uiso   1.00
C707   C     0.12517   0.73051   0.54706   0.00000  Uiso   1.00
C708   C     0.02908   0.51087   0.76783   0.00000  Uiso   1.00
C709   C     0.31933   0.99604   0.79609   0.00000  Uiso   1.00
C710   C     0.11556   0.97370   0.65492   0.00000  Uiso   1.00
C711   C     0.06094   0.99480   0.65225   0.00000  Uiso   1.00
C712   C     0.04070   0.51197   0.60201   0.00000  Uiso   1.00
C713   C     0.19011   0.78498   0.95039   0.00000  Uiso   1.00
C714   C     0.12607   0.73076   0.59680   0.00000  Uiso   1.00
C715   C     0.18985   0.78426   0.90075   0.00000  Uiso   1.00
C716   C     0.20721   0.76924   0.60766   0.00000  Uiso   1.00
C717   C     0.14339   0.71577   0.89475   0.00000  Uiso   1.00
C718   C     0.20804   0.76945   0.55816   0.00000  Uiso   1.00
H719   H     0.32459   0.74992   0.69433   0.00000  Uiso   1.00
H720   H     0.20803   0.81318   0.97044   0.00000  Uiso   1.00
H721   H     0.09403   0.71564   0.61187   0.00000  Uiso   1.00
H722   H     0.20815   0.81132   0.88376   0.00000  Uiso   1.00
H723   H     0.23925   0.78444   0.63127   0.00000  Uiso   1.00
H724   H     0.12510   0.68874   0.87303   0.00000  Uiso   1.00
H725   H     0.24143   0.78427   0.54490   0.00000  Uiso   1.00
H726   H     0.12506   0.68685   0.95977   0.00000  Uiso   1.00
H727   H     0.00106   0.96970   0.82247   0.00000  Uiso   1.00
H728   H     0.30513   0.52497   0.81502   0.00000  Uiso   1.00
H729   H     0.28565   0.98216   0.77133   0.00000  Uiso   1.00
H730   H     0.00876   0.74988   0.80565   0.00000  Uiso   1.00
H731   H     0.01281   0.53719   0.74184   0.00000  Uiso   1.00
H732   H     0.04073   0.98150   0.74812   0.00000  Uiso   1.00
H733   H     0.09543   0.50217   0.82468   0.00000  Uiso   1.00
H734   H     0.06340   0.55466   0.82442   0.00000  Uiso   1.00
H735   H     0.06795   0.53756   0.59106   0.00000  Uiso   1.00
H736   H     0.03691   0.98392   0.57617   0.00000  Uiso   1.00
H737   H     0.00143   0.52753   0.60140   0.00000  Uiso   1.00
H738   H     0.03278   0.96956   0.66241   0.00000  Uiso   1.00
H739   H     0.06273   0.52356   0.67696   0.00000  Uiso   1.00
H740   H     0.14417   0.99924   0.64663   0.00000  Uiso   1.00
H741   H     0.10075   0.61666   0.79435   0.00000  Uiso   1.00
H742   H     0.11378   0.94835   0.62614   0.00000  Uiso   1.00
H743   H     0.13002   0.88607   0.67315   0.00000  Uiso   1.00
H744   H     0.22133   0.60693   0.70502   0.00000  Uiso   1.00
H745   H     0.18982   0.89268   0.82351   0.00000  Uiso   1.00
H746   H     0.21294   0.52566   0.70425   0.00000  Uiso   1.00
H747   H     0.18118   0.97368   0.82085   0.00000  Uiso   1.00
H748   H     0.09176   0.71569   0.52482   0.00000  Uiso   1.00
N749   N     0.16667   0.74999   0.62623   0.00000  Uiso   1.00
N750   N     0.16667   0.75001   0.87377   0.00000  Uiso   1.00
O751   O     0.16667   0.68453   0.78974   0.00000  Uiso   1.00
O752   O     0.16666   0.81546   0.71026   0.00000  Uiso   1.00
O753   O     0.16667   0.68453   0.71026   0.00000  Uiso   1.00
O754   O     0.16666   0.81547   0.78974   0.00000  Uiso   1.00
O755   O     0.09058   0.75000   0.78045   0.00000  Uiso   1.00
O756   O     0.24275   0.75000   0.71955   0.00000  Uiso   1.00
O757   O     0.09058   0.74999   0.70097   0.00000  Uiso   1.00
O758   O     0.24275   0.75000   0.79903   0.00000  Uiso   1.00
Zn759  Zn    0.16667   0.75000   0.80307   0.00000  Uiso   1.00
Zn760  Zn    0.16667   0.74999   0.69693   0.00000  Uiso   1.00
C761   C     0.49955   0.66394   0.75010   0.00000  Uiso   1.00
C762   C     0.47637   0.71504   0.94433   0.00000  Uiso   1.00
C763   C     0.49993   0.74998   0.52667   0.00000  Uiso   1.00
C764   C     0.49990   0.75000   0.97330   0.00000  Uiso   1.00
C765   C     0.40033   0.74995   0.73751   0.00000  Uiso   1.00
C766   C     0.59967   0.74998   0.76248   0.00000  Uiso   1.00
C767   C     0.34528   0.74991   0.73077   0.00000  Uiso   1.00
C768   C     0.65472   0.74991   0.76921   0.00000  Uiso   1.00
C769   C     0.45072   0.54986   0.77290   0.00000  Uiso   1.00
C770   C     0.46773   0.95191   0.70316   0.00000  Uiso   1.00
C771   C     0.45787   0.59609   0.77455   0.00000  Uiso   1.00
C772   C     0.49912   0.83627   0.74970   0.00000  Uiso   1.00
C773   C     0.47401   0.90563   0.70524   0.00000  Uiso   1.00
C774   C     0.49473   0.61626   0.74978   0.00000  Uiso   1.00
C775   C     0.49383   0.88432   0.74836   0.00000  Uiso   1.00
C776   C     0.52569   0.59112   0.72370   0.00000  Uiso   1.00
C777   C     0.50730   0.90884   0.79010   0.00000  Uiso   1.00
C778   C     0.52033   0.54526   0.72277   0.00000  Uiso   1.00
C779   C     0.50170   0.95471   0.78870   0.00000  Uiso   1.00
C780   C     0.48240   0.52460   0.74610   0.00000  Uiso   1.00
C781   C     0.48148   0.97629   0.74592   0.00000  Uiso   1.00
C782   C     0.41049   0.52914   0.80070   0.00000  Uiso   1.00
C783   C     0.45851   0.73051   0.54706   0.00000  Uiso   1.00
C784   C     0.36241   0.51087   0.76783   0.00000  Uiso   1.00
C785   C     0.65266   0.99604   0.79609   0.00000  Uiso   1.00
C786   C     0.44889   0.97370   0.65492   0.00000  Uiso   1.00
C787   C     0.39427   0.99480   0.65225   0.00000  Uiso   1.00
C788   C     0.37404   0.51197   0.60201   0.00000  Uiso   1.00
C789   C     0.52344   0.78498   0.95039   0.00000  Uiso   1.00
C790   C     0.45940   0.73076   0.59680   0.00000  Uiso   1.00
C791   C     0.52319   0.78426   0.90075   0.00000  Uiso   1.00
C792   C     0.54054   0.76924   0.60766   0.00000  Uiso   1.00
C793   C     0.47672   0.71577   0.89475   0.00000  Uiso   1.00
C794   C     0.54138   0.76945   0.55816   0.00000  Uiso   1.00
H795   H     0.65792   0.74992   0.69433   0.00000  Uiso   1.00
H796   H     0.54136   0.81318   0.97044   0.00000  Uiso   1.00
H797   H     0.42737   0.71564   0.61187   0.00000  Uiso   1.00
H798   H     0.54149   0.81132   0.88376   0.00000  Uiso   1.00
H799   H     0.57259   0.78444   0.63127   0.00000  Uiso   1.00
H800   H     0.45843   0.68874   0.87303   0.00000  Uiso   1.00
H801   H     0.57476   0.78427   0.54490   0.00000  Uiso   1.00
H802   H     0.45840   0.68685   0.95977   0.00000  Uiso   1.00
H803   H     0.33440   0.96970   0.82247   0.00000  Uiso   1.00
H804   H     0.63846   0.52497   0.81502   0.00000  Uiso   1.00
H805   H     0.61899   0.98216   0.77133   0.00000  Uiso   1.00
H806   H     0.34209   0.74988   0.80565   0.00000  Uiso   1.00
H807   H     0.34614   0.53719   0.74184   0.00000  Uiso   1.00
H808   H     0.37406   0.98150   0.74812   0.00000  Uiso   1.00
H809   H     0.42877   0.50217   0.82468   0.00000  Uiso   1.00
H810   H     0.39673   0.55466   0.82442   0.00000  Uiso   1.00
H811   H     0.40129   0.53756   0.59106   0.00000  Uiso   1.00
H812   H     0.37025   0.98392   0.57617   0.00000  Uiso   1.00
H813   H     0.33476   0.52753   0.60140   0.00000  Uiso   1.00
H814   H     0.36611   0.96956   0.66241   0.00000  Uiso   1.00
H815   H     0.39606   0.52356   0.67696   0.00000  Uiso   1.00
H816   H     0.47750   0.99924   0.64663   0.00000  Uiso   1.00
H817   H     0.43409   0.61666   0.79435   0.00000  Uiso   1.00
H818   H     0.44711   0.94835   0.62614   0.00000  Uiso   1.00
H819   H     0.46335   0.88607   0.67315   0.00000  Uiso   1.00
H820   H     0.55466   0.60693   0.70502   0.00000  Uiso   1.00
H821   H     0.52315   0.89268   0.82351   0.00000  Uiso   1.00
H822   H     0.54627   0.52566   0.70425   0.00000  Uiso   1.00
H823   H     0.51451   0.97368   0.82085   0.00000  Uiso   1.00
H824   H     0.42510   0.71569   0.52482   0.00000  Uiso   1.00
N825   N     0.50000   0.74999   0.62623   0.00000  Uiso   1.00
N826   N     0.50000   0.75001   0.87377   0.00000  Uiso   1.00
O827   O     0.50000   0.68453   0.78974   0.00000  Uiso   1.00
O828   O     0.50000   0.81546   0.71026   0.00000  Uiso   1.00
O829   O     0.50000   0.68453   0.71026   0.00000  Uiso   1.00
O830   O     0.50000   0.81547   0.78974   0.00000  Uiso   1.00
O831   O     0.42392   0.75000   0.78045   0.00000  Uiso   1.00
O832   O     0.57608   0.75000   0.71955   0.00000  Uiso   1.00
O833   O     0.42392   0.74999   0.70097   0.00000  Uiso   1.00
O834   O     0.57608   0.75000   0.79903   0.00000  Uiso   1.00
Zn835  Zn    0.50000   0.75000   0.80307   0.00000  Uiso   1.00
Zn836  Zn    0.50000   0.74999   0.69693   0.00000  Uiso   1.00
C837   C     0.83288   0.66394   0.75010   0.00000  Uiso   1.00
C838   C     0.80970   0.71504   0.94433   0.00000  Uiso   1.00
C839   C     0.83326   0.74998   0.52667   0.00000  Uiso   1.00
C840   C     0.83323   0.75000   0.97330   0.00000  Uiso   1.00
C841   C     0.73366   0.74995   0.73751   0.00000  Uiso   1.00
C842   C     0.93300   0.74998   0.76248   0.00000  Uiso   1.00
C843   C     0.67861   0.74991   0.73077   0.00000  Uiso   1.00
C844   C     0.98805   0.74991   0.76921   0.00000  Uiso   1.00
C845   C     0.78405   0.54986   0.77290   0.00000  Uiso   1.00
C846   C     0.80107   0.95191   0.70316   0.00000  Uiso   1.00
C847   C     0.79120   0.59609   0.77455   0.00000  Uiso   1.00
C848   C     0.83245   0.83627   0.74970   0.00000  Uiso   1.00
C849   C     0.80734   0.90563   0.70524   0.00000  Uiso   1.00
C850   C     0.82807   0.61626   0.74978   0.00000  Uiso   1.00
C851   C     0.82716   0.88432   0.74836   0.00000  Uiso   1.00
C852   C     0.85903   0.59112   0.72370   0.00000  Uiso   1.00
C853   C     0.84064   0.90884   0.79010   0.00000  Uiso   1.00
C854   C     0.85366   0.54526   0.72277   0.00000  Uiso   1.00
C855   C     0.83503   0.95471   0.78870   0.00000  Uiso   1.00
C856   C     0.81573   0.52460   0.74610   0.00000  Uiso   1.00
C857   C     0.81481   0.97629   0.74592   0.00000  Uiso   1.00
C858   C     0.74382   0.52914   0.80070   0.00000  Uiso   1.00
C859   C     0.79184   0.73051   0.54706   0.00000  Uiso   1.00
C860   C     0.69574   0.51087   0.76783   0.00000  Uiso   1.00
C861   C     0.98599   0.99604   0.79609   0.00000  Uiso   1.00
C862   C     0.78222   0.97370   0.65492   0.00000  Uiso   1.00
C863   C     0.72760   0.99480   0.65225   0.00000  Uiso   1.00
C864   C     0.70737   0.51197   0.60201   0.00000  Uiso   1.00
C865   C     0.85677   0.78498   0.95039   0.00000  Uiso   1.00
C866   C     0.79274   0.73076   0.59680   0.00000  Uiso   1.00
C867   C     0.85652   0.78426   0.90075   0.00000  Uiso   1.00
C868   C     0.87387   0.76924   0.60766   0.00000  Uiso   1.00
C869   C     0.81005   0.71577   0.89475   0.00000  Uiso   1.00
C870   C     0.87471   0.76945   0.55816   0.00000  Uiso   1.00
H871   H     0.99125   0.74992   0.69433   0.00000  Uiso   1.00
H872   H     0.87470   0.81318   0.97044   0.00000  Uiso   1.00
H873   H     0.76070   0.71564   0.61187   0.00000  Uiso   1.00
H874   H     0.87482   0.81132   0.88376   0.00000  Uiso   1.00
H875   H     0.90592   0.78444   0.63127   0.00000  Uiso   1.00
H876   H     0.79176   0.68874   0.87303   0.00000  Uiso   1.00
H877   H     0.90809   0.78427   0.54490   0.00000  Uiso   1.00
H878   H     0.79173   0.68685   0.95977   0.00000  Uiso   1.00
H879   H     0.66773   0.96970   0.82247   0.00000  Uiso   1.00
H880   H     0.97180   0.52497   0.81502   0.00000  Uiso   1.00
H881   H     0.95232   0.98216   0.77133   0.00000  Uiso   1.00
H882   H     0.67542   0.74988   0.80565   0.00000  Uiso   1.00
H883   H     0.67947   0.53719   0.74184   0.00000  Uiso   1.00
H884   H     0.70739   0.98150   0.74812   0.00000  Uiso   1.00
H885   H     0.76210   0.50217   0.82468   0.00000  Uiso   1.00
H886   H     0.73006   0.55466   0.82442   0.00000  Uiso   1.00
H887   H     0.73462   0.53756   0.59106   0.00000  Uiso   1.00
H888   H     0.70358   0.98392   0.57617   0.00000  Uiso   1.00
H889   H     0.66810   0.52753   0.60140   0.00000  Uiso   1.00
H890   H     0.69945   0.96956   0.66241   0.00000  Uiso   1.00
H891   H     0.72940   0.52356   0.67696   0.00000  Uiso   1.00
H892   H     0.81083   0.99924   0.64663   0.00000  Uiso   1.00
H893   H     0.76742   0.61666   0.79435   0.00000  Uiso   1.00
H894   H     0.78044   0.94835   0.62614   0.00000  Uiso   1.00
H895   H     0.79669   0.88607   0.67315   0.00000  Uiso   1.00
H896   H     0.88799   0.60693   0.70502   0.00000  Uiso   1.00
H897   H     0.85648   0.89268   0.82351   0.00000  Uiso   1.00
H898   H     0.87960   0.52566   0.70425   0.00000  Uiso   1.00
H899   H     0.84785   0.97368   0.82085   0.00000  Uiso   1.00
H900   H     0.75843   0.71569   0.52482   0.00000  Uiso   1.00
N901   N     0.83333   0.74999   0.62623   0.00000  Uiso   1.00
N902   N     0.83333   0.75001   0.87377   0.00000  Uiso   1.00
O903   O     0.83334   0.68453   0.78974   0.00000  Uiso   1.00
O904   O     0.83333   0.81546   0.71026   0.00000  Uiso   1.00
O905   O     0.83334   0.68453   0.71026   0.00000  Uiso   1.00
O906   O     0.83333   0.81547   0.78974   0.00000  Uiso   1.00
O907   O     0.75725   0.75000   0.78045   0.00000  Uiso   1.00
O908   O     0.90942   0.75000   0.71955   0.00000  Uiso   1.00
O909   O     0.75725   0.74999   0.70097   0.00000  Uiso   1.00
O910   O     0.90942   0.75000   0.79903   0.00000  Uiso   1.00
Zn911  Zn    0.83333   0.75000   0.80307   0.00000  Uiso   1.00
Zn912  Zn    0.83333   0.74999   0.69693   0.00000  Uiso   1.00
loop_
_geom_bond_atom_site_label_1
_geom_bond_atom_site_label_2
_geom_bond_distance
_geom_bond_site_symmetry_2
_ccdc_geom_bond_type
C1     C14     1.429   .     S
C1     O69     1.284   .     A
C1     O67     1.283   .     A
C2     C4      1.411   .     A
C2     H42     1.082   .     S
C2     C33     1.407   .     A
C3     C23     1.411   .     A
C3     C34     1.410   .     A
C3     C460    1.513   1_554 S
C4     C29     1.411   .     A
C4     C459    1.513   .     S
C5     O71     1.275   .     A
C5     O73     1.278   .     A
C5     C7      1.400   .     S
C6     O72     1.275   .     A
C6     O74     1.278   .     A
C6     C8      1.400   .     S
C7     C160    1.330   1_455 S
C7     H187    1.088   1_455 S
C8     C83     1.330   .     S
C8     H122    1.088   .     S
C9     C20     1.417   .     A
C9     C11     1.393   .     A
C9     C22     1.522   .     S
C10    C26     1.522   .     S
C10    C21     1.416   .     A
C10    C13     1.392   .     A
C11    C14     1.397   .     A
C11    H57     1.085   .     S
C12    C15     1.441   .     S
C12    O68     1.286   .     A
C12    O70     1.288   .     A
C13    H59     1.084   .     S
C13    C15     1.400   .     A
C14    C16     1.390   .     A
C15    C17     1.394   .     A
C16    C18     1.376   .     A
C16    H60     1.084   .     S
C17    C19     1.377   .     A
C17    H61     1.084   .     S
C18    C20     1.400   .     A
C18    H62     1.084   .     S
C19    H63     1.084   .     S
C19    C21     1.399   .     A
C20    C249    1.443   1_545 S
C21    C248    1.443   .     S
C22    H50     1.113   .     S
C22    C24     1.534   .     S
C22    H49     1.108   .     S
C23    H64     1.082   .     S
C23    C30     1.407   .     A
C24    H47     1.112   .     S
C24    C405    1.527   1_445 S
C24    H276    1.109   1_545 S
C25    H45     1.111   .     S
C25    C328    1.527   .     S
C25    H119    1.111   .     S
C25    H272    1.111   .     S
C26    C27     1.532   .     S
C26    H58     1.113   .     S
C26    H56     1.108   .     S
C27    H54     1.112   .     S
C27    C256    1.526   .     S
C27    H283    1.108   .     S
C28    H53     1.111   .     S
C28    H51     1.111   .     S
C28    C255    1.526   1_545 S
C28    H280    1.111   1_545 S
C29    C31     1.407   .     A
C29    H36     1.082   .     S
C30    N65     1.363   .     A
C30    H37     1.082   .     S
C31    N66     1.363   .     A
C31    H38     1.082   .     S
C32    H39     1.081   .     S
C32    C34     1.407   .     A
C32    N65     1.363   .     A
C33    N66     1.363   .     A
C33    H40     1.082   .     S
C34    H41     1.082   .     S
H35    C83     1.088   .     S
H43    C177    1.111   1_455 S
H44    C253    1.111   1_545 S
H46    C160    1.088   1_455 S
H48    C252    1.109   .     S
H52    C256    1.111   .     S
H55    C255    1.108   1_545 S
N65    Zn76    2.004   .     S
N66    Zn75    2.004   .     S
O67    Zn75    1.994   .     S
O68    Zn76    1.994   .     S
O69    Zn76    1.989   .     S
O70    Zn75    1.989   .     S
O71    Zn75    1.966   .     S
O72    Zn76    1.966   .     S
O73    Zn76    1.979   .     S
O74    Zn75    1.979   .     S
C77    C90     1.429   .     S
C77    O145    1.284   .     A
C77    O143    1.283   .     A
C78    C80     1.411   .     A
C78    H118    1.082   .     S
C78    C109    1.407   .     A
C79    C99     1.411   .     A
C79    C110    1.410   .     A
C79    C536    1.513   1_554 S
C80    C105    1.411   .     A
C80    C535    1.513   .     S
C81    O147    1.275   .     A
C81    O149    1.278   .     A
C81    C83     1.400   .     S
C82    O148    1.275   .     A
C82    O150    1.278   .     A
C82    C84     1.400   .     S
C84    C159    1.330   .     S
C84    H198    1.088   .     S
C85    C96     1.417   .     A
C85    C87     1.393   .     A
C85    C98     1.522   .     S
C86    C102    1.522   .     S
C86    C97     1.416   .     A
C86    C89     1.392   .     A
C87    C90     1.397   .     A
C87    H133    1.085   .     S
C88    C91     1.441   .     S
C88    O144    1.286   .     A
C88    O146    1.288   .     A
C89    H135    1.084   .     S
C89    C91     1.400   .     A
C90    C92     1.390   .     A
C91    C93     1.394   .     A
C92    C94     1.376   .     A
C92    H136    1.084   .     S
C93    C95     1.377   .     A
C93    H137    1.084   .     S
C94    C96     1.400   .     A
C94    H138    1.084   .     S
C95    H139    1.084   .     S
C95    C97     1.399   .     A
C96    C325    1.443   1_545 S
C97    C324    1.443   .     S
C98    H126    1.113   .     S
C98    C100    1.534   .     S
C98    H125    1.108   .     S
C99    H140    1.082   .     S
C99    C106    1.407   .     A
C100   H123    1.112   .     S
C100   C253    1.527   1_545 S
C100   H352    1.109   1_545 S
C101   H121    1.111   .     S
C101   C404    1.527   .     S
C101   H195    1.111   .     S
C101   H348    1.111   .     S
C102   C103    1.532   .     S
C102   H134    1.113   .     S
C102   H132    1.108   .     S
C103   H130    1.112   .     S
C103   C332    1.526   .     S
C103   H359    1.108   .     S
C104   H129    1.111   .     S
C104   H127    1.111   .     S
C104   C331    1.526   1_545 S
C104   H356    1.111   1_545 S
C105   C107    1.407   .     A
C105   H112    1.082   .     S
C106   N141    1.363   .     A
C106   H113    1.082   .     S
C107   N142    1.363   .     A
C107   H114    1.082   .     S
C108   H115    1.081   .     S
C108   C110    1.407   .     A
C108   N141    1.363   .     A
C109   N142    1.363   .     A
C109   H116    1.082   .     S
C110   H117    1.082   .     S
H111   C159    1.088   .     S
H120   C329    1.111   1_545 S
H124   C328    1.109   .     S
H128   C332    1.111   .     S
H131   C331    1.108   1_545 S
N141   Zn152   2.004   .     S
N142   Zn151   2.004   .     S
O143   Zn151   1.994   .     S
O144   Zn152   1.994   .     S
O145   Zn152   1.989   .     S
O146   Zn151   1.989   .     S
O147   Zn151   1.966   .     S
O148   Zn152   1.966   .     S
O149   Zn152   1.979   .     S
O150   Zn151   1.979   .     S
C153   C166    1.429   .     S
C153   O221    1.284   .     A
C153   O219    1.283   .     A
C154   C156    1.411   .     A
C154   H194    1.082   .     S
C154   C185    1.407   .     A
C155   C175    1.411   .     A
C155   C186    1.410   .     A
C155   C612    1.513   1_554 S
C156   C181    1.411   .     A
C156   C611    1.513   .     S
C157   O223    1.275   .     A
C157   O225    1.278   .     A
C157   C159    1.400   .     S
C158   O224    1.275   .     A
C158   O226    1.278   .     A
C158   C160    1.400   .     S
C160   C7      1.330   1_655 S
C160   H46     1.088   1_655 S
C161   C172    1.417   .     A
C161   C163    1.393   .     A
C161   C174    1.522   .     S
C162   C178    1.522   .     S
C162   C173    1.416   .     A
C162   C165    1.392   .     A
C163   C166    1.397   .     A
C163   H209    1.085   .     S
C164   C167    1.441   .     S
C164   O220    1.286   .     A
C164   O222    1.288   .     A
C165   H211    1.084   .     S
C165   C167    1.400   .     A
C166   C168    1.390   .     A
C167   C169    1.394   .     A
C168   C170    1.376   .     A
C168   H212    1.084   .     S
C169   C171    1.377   .     A
C169   H213    1.084   .     S
C170   C172    1.400   .     A
C170   H214    1.084   .     S
C171   H215    1.084   .     S
C171   C173    1.399   .     A
C172   C401    1.443   1_545 S
C173   C400    1.443   .     S
C174   H202    1.113   .     S
C174   C176    1.534   .     S
C174   H201    1.108   .     S
C175   H216    1.082   .     S
C175   C182    1.407   .     A
C176   H199    1.112   .     S
C176   C329    1.527   1_545 S
C176   H428    1.109   1_545 S
C177   H197    1.111   .     S
C177   C252    1.527   1_655 S
C177   H43     1.111   1_655 S
C177   H424    1.111   .     S
C178   C179    1.532   .     S
C178   H210    1.113   .     S
C178   H208    1.108   .     S
C179   H206    1.112   .     S
C179   C408    1.526   .     S
C179   H435    1.108   .     S
C180   H205    1.111   .     S
C180   H203    1.111   .     S
C180   C407    1.526   1_545 S
C180   H432    1.111   1_545 S
C181   C183    1.407   .     A
C181   H188    1.082   .     S
C182   N217    1.363   .     A
C182   H189    1.082   .     S
C183   N218    1.363   .     A
C183   H190    1.082   .     S
C184   H191    1.081   .     S
C184   C186    1.407   .     A
C184   N217    1.363   .     A
C185   N218    1.363   .     A
C185   H192    1.082   .     S
C186   H193    1.082   .     S
H187   C7      1.088   1_655 S
H196   C405    1.111   1_545 S
H200   C404    1.109   .     S
H204   C408    1.111   .     S
H207   C407    1.108   1_545 S
N217   Zn228   2.004   .     S
N218   Zn227   2.004   .     S
O219   Zn227   1.994   .     S
O220   Zn228   1.994   .     S
O221   Zn228   1.989   .     S
O222   Zn227   1.989   .     S
O223   Zn227   1.966   .     S
O224   Zn228   1.966   .     S
O225   Zn228   1.979   .     S
O226   Zn227   1.979   .     S
C229   C242    1.429   .     S
C229   O297    1.284   .     A
C229   O295    1.283   .     A
C230   C232    1.411   .     A
C230   H270    1.082   .     S
C230   C261    1.407   .     A
C231   C251    1.411   .     A
C231   C262    1.410   .     A
C231   C688    1.513   1_554 S
C232   C257    1.411   .     A
C232   C687    1.513   .     S
C233   O299    1.275   .     A
C233   O301    1.278   .     A
C233   C235    1.400   .     S
C234   O300    1.275   .     A
C234   O302    1.278   .     A
C234   C236    1.400   .     S
C235   C388    1.330   1_455 S
C235   H415    1.088   1_455 S
C236   C311    1.330   .     S
C236   H350    1.088   .     S
C237   C248    1.417   .     A
C237   C239    1.393   .     A
C237   C250    1.522   .     S
C238   C254    1.522   .     S
C238   C249    1.416   .     A
C238   C241    1.392   .     A
C239   C242    1.397   .     A
C239   H285    1.085   .     S
C240   C243    1.441   .     S
C240   O296    1.286   .     A
C240   O298    1.288   .     A
C241   H287    1.084   .     S
C241   C243    1.400   .     A
C242   C244    1.390   .     A
C243   C245    1.394   .     A
C244   C246    1.376   .     A
C244   H288    1.084   .     S
C245   C247    1.377   .     A
C245   H289    1.084   .     S
C246   C248    1.400   .     A
C246   H290    1.084   .     S
C247   H291    1.084   .     S
C247   C249    1.399   .     A
C249   C20     1.443   1_565 S
C250   H278    1.113   .     S
C250   C252    1.534   .     S
C250   H277    1.108   .     S
C251   H292    1.082   .     S
C251   C258    1.407   .     A
C252   H275    1.112   .     S
C252   C177    1.527   1_455 S
C253   H273    1.111   .     S
C253   C100    1.527   1_565 S
C253   H347    1.111   .     S
C253   H44     1.111   1_565 S
C254   C255    1.532   .     S
C254   H286    1.113   .     S
C254   H284    1.108   .     S
C255   H282    1.112   .     S
C255   C28     1.526   1_565 S
C255   H55     1.108   1_565 S
C256   H281    1.111   .     S
C256   H279    1.111   .     S
C257   C259    1.407   .     A
C257   H264    1.082   .     S
C258   N293    1.363   .     A
C258   H265    1.082   .     S
C259   N294    1.363   .     A
C259   H266    1.082   .     S
C260   H267    1.081   .     S
C260   C262    1.407   .     A
C260   N293    1.363   .     A
C261   N294    1.363   .     A
C261   H268    1.082   .     S
C262   H269    1.082   .     S
H263   C311    1.088   .     S
H271   C405    1.111   1_455 S
H274   C388    1.088   1_455 S
H276   C24     1.109   1_565 S
H280   C28     1.111   1_565 S
N293   Zn304   2.004   .     S
N294   Zn303   2.004   .     S
O295   Zn303   1.994   .     S
O296   Zn304   1.994   .     S
O297   Zn304   1.989   .     S
O298   Zn303   1.989   .     S
O299   Zn303   1.966   .     S
O300   Zn304   1.966   .     S
O301   Zn304   1.979   .     S
O302   Zn303   1.979   .     S
C305   C318    1.429   .     S
C305   O373    1.284   .     A
C305   O371    1.283   .     A
C306   C308    1.411   .     A
C306   H346    1.082   .     S
C306   C337    1.407   .     A
C307   C327    1.411   .     A
C307   C338    1.410   .     A
C307   C764    1.513   1_554 S
C308   C333    1.411   .     A
C308   C763    1.513   .     S
C309   O375    1.275   .     A
C309   O377    1.278   .     A
C309   C311    1.400   .     S
C310   O376    1.275   .     A
C310   O378    1.278   .     A
C310   C312    1.400   .     S
C312   C387    1.330   .     S
C312   H426    1.088   .     S
C313   C324    1.417   .     A
C313   C315    1.393   .     A
C313   C326    1.522   .     S
C314   C330    1.522   .     S
C314   C325    1.416   .     A
C314   C317    1.392   .     A
C315   C318    1.397   .     A
C315   H361    1.085   .     S
C316   C319    1.441   .     S
C316   O372    1.286   .     A
C316   O374    1.288   .     A
C317   H363    1.084   .     S
C317   C319    1.400   .     A
C318   C320    1.390   .     A
C319   C321    1.394   .     A
C320   C322    1.376   .     A
C320   H364    1.084   .     S
C321   C323    1.377   .     A
C321   H365    1.084   .     S
C322   C324    1.400   .     A
C322   H366    1.084   .     S
C323   H367    1.084   .     S
C323   C325    1.399   .     A
C325   C96     1.443   1_565 S
C326   H354    1.113   .     S
C326   C328    1.534   .     S
C326   H353    1.108   .     S
C327   H368    1.082   .     S
C327   C334    1.407   .     A
C328   H351    1.112   .     S
C329   H349    1.111   .     S
C329   C176    1.527   1_565 S
C329   H423    1.111   .     S
C329   H120    1.111   1_565 S
C330   C331    1.532   .     S
C330   H362    1.113   .     S
C330   H360    1.108   .     S
C331   H358    1.112   .     S
C331   C104    1.526   1_565 S
C331   H131    1.108   1_565 S
C332   H357    1.111   .     S
C332   H355    1.111   .     S
C333   C335    1.407   .     A
C333   H340    1.082   .     S
C334   N369    1.363   .     A
C334   H341    1.082   .     S
C335   N370    1.363   .     A
C335   H342    1.082   .     S
C336   H343    1.081   .     S
C336   C338    1.407   .     A
C336   N369    1.363   .     A
C337   N370    1.363   .     A
C337   H344    1.082   .     S
C338   H345    1.082   .     S
H339   C387    1.088   .     S
H352   C100    1.109   1_565 S
H356   C104    1.111   1_565 S
N369   Zn380   2.004   .     S
N370   Zn379   2.004   .     S
O371   Zn379   1.994   .     S
O372   Zn380   1.994   .     S
O373   Zn380   1.989   .     S
O374   Zn379   1.989   .     S
O375   Zn379   1.966   .     S
O376   Zn380   1.966   .     S
O377   Zn380   1.979   .     S
O378   Zn379   1.979   .     S
C381   C394    1.429   .     S
C381   O449    1.284   .     A
C381   O447    1.283   .     A
C382   C384    1.411   .     A
C382   H422    1.082   .     S
C382   C413    1.407   .     A
C383   C403    1.411   .     A
C383   C414    1.410   .     A
C383   C840    1.513   1_554 S
C384   C409    1.411   .     A
C384   C839    1.513   .     S
C385   O451    1.275   .     A
C385   O453    1.278   .     A
C385   C387    1.400   .     S
C386   O452    1.275   .     A
C386   O454    1.278   .     A
C386   C388    1.400   .     S
C388   C235    1.330   1_655 S
C388   H274    1.088   1_655 S
C389   C400    1.417   .     A
C389   C391    1.393   .     A
C389   C402    1.522   .     S
C390   C406    1.522   .     S
C390   C401    1.416   .     A
C390   C393    1.392   .     A
C391   C394    1.397   .     A
C391   H437    1.085   .     S
C392   C395    1.441   .     S
C392   O448    1.286   .     A
C392   O450    1.288   .     A
C393   H439    1.084   .     S
C393   C395    1.400   .     A
C394   C396    1.390   .     A
C395   C397    1.394   .     A
C396   C398    1.376   .     A
C396   H440    1.084   .     S
C397   C399    1.377   .     A
C397   H441    1.084   .     S
C398   C400    1.400   .     A
C398   H442    1.084   .     S
C399   H443    1.084   .     S
C399   C401    1.399   .     A
C401   C172    1.443   1_565 S
C402   H430    1.113   .     S
C402   C404    1.534   .     S
C402   H429    1.108   .     S
C403   H444    1.082   .     S
C403   C410    1.407   .     A
C404   H427    1.112   .     S
C405   H425    1.111   .     S
C405   C24     1.527   1_665 S
C405   H271    1.111   1_655 S
C405   H196    1.111   1_565 S
C406   C407    1.532   .     S
C406   H438    1.113   .     S
C406   H436    1.108   .     S
C407   H434    1.112   .     S
C407   C180    1.526   1_565 S
C407   H207    1.108   1_565 S
C408   H433    1.111   .     S
C408   H431    1.111   .     S
C409   C411    1.407   .     A
C409   H416    1.082   .     S
C410   N445    1.363   .     A
C410   H417    1.082   .     S
C411   N446    1.363   .     A
C411   H418    1.082   .     S
C412   H419    1.081   .     S
C412   C414    1.407   .     A
C412   N445    1.363   .     A
C413   N446    1.363   .     A
C413   H420    1.082   .     S
C414   H421    1.082   .     S
H415   C235    1.088   1_655 S
H428   C176    1.109   1_565 S
H432   C180    1.111   1_565 S
N445   Zn456   2.004   .     S
N446   Zn455   2.004   .     S
O447   Zn455   1.994   .     S
O448   Zn456   1.994   .     S
O449   Zn456   1.989   .     S
O450   Zn455   1.989   .     S
O451   Zn455   1.966   .     S
O452   Zn456   1.966   .     S
O453   Zn456   1.979   .     S
O454   Zn455   1.979   .     S
C457   C470    1.429   .     S
C457   O525    1.284   .     A
C457   O523    1.283   .     A
C458   C460    1.411   .     A
C458   H498    1.082   .     S
C458   C489    1.407   .     A
C459   C479    1.411   .     A
C459   C490    1.410   .     A
C460   C485    1.411   .     A
C460   C3      1.513   1_556 S
C461   O527    1.275   .     A
C461   O529    1.278   .     A
C461   C463    1.400   .     S
C462   O528    1.275   .     A
C462   O530    1.278   .     A
C462   C464    1.400   .     S
C463   C616    1.330   1_455 S
C463   H643    1.088   1_455 S
C464   C539    1.330   .     S
C464   H578    1.088   .     S
C465   C476    1.417   .     A
C465   C467    1.393   .     A
C465   C478    1.522   .     S
C466   C482    1.522   .     S
C466   C477    1.416   .     A
C466   C469    1.392   .     A
C467   C470    1.397   .     A
C467   H513    1.085   .     S
C468   C471    1.441   .     S
C468   O524    1.286   .     A
C468   O526    1.288   .     A
C469   H515    1.084   .     S
C469   C471    1.400   .     A
C470   C472    1.390   .     A
C471   C473    1.394   .     A
C472   C474    1.376   .     A
C472   H516    1.084   .     S
C473   C475    1.377   .     A
C473   H517    1.084   .     S
C474   C476    1.400   .     A
C474   H518    1.084   .     S
C475   H519    1.084   .     S
C475   C477    1.399   .     A
C476   C705    1.443   1_545 S
C477   C704    1.443   .     S
C478   H506    1.113   .     S
C478   C480    1.534   .     S
C478   H505    1.108   .     S
C479   H520    1.082   .     S
C479   C486    1.407   .     A
C480   H503    1.112   .     S
C480   C861    1.527   1_445 S
C480   H732    1.109   1_545 S
C481   H501    1.111   .     S
C481   C784    1.527   .     S
C481   H575    1.111   .     S
C481   H728    1.111   .     S
C482   C483    1.532   .     S
C482   H514    1.113   .     S
C482   H512    1.108   .     S
C483   H510    1.112   .     S
C483   C712    1.526   .     S
C483   H739    1.108   .     S
C484   H509    1.111   .     S
C484   H507    1.111   .     S
C484   C711    1.526   1_545 S
C484   H736    1.111   1_545 S
C485   C487    1.407   .     A
C485   H492    1.082   .     S
C486   N521    1.363   .     A
C486   H493    1.082   .     S
C487   N522    1.363   .     A
C487   H494    1.082   .     S
C488   H495    1.081   .     S
C488   C490    1.407   .     A
C488   N521    1.363   .     A
C489   N522    1.363   .     A
C489   H496    1.082   .     S
C490   H497    1.082   .     S
H491   C539    1.088   .     S
H499   C633    1.111   1_455 S
H500   C709    1.111   1_545 S
H502   C616    1.088   1_455 S
H504   C708    1.109   .     S
H508   C712    1.111   .     S
H511   C711    1.108   1_545 S
N521   Zn532   2.004   .     S
N522   Zn531   2.004   .     S
O523   Zn531   1.994   .     S
O524   Zn532   1.994   .     S
O525   Zn532   1.989   .     S
O526   Zn531   1.989   .     S
O527   Zn531   1.966   .     S
O528   Zn532   1.966   .     S
O529   Zn532   1.979   .     S
O530   Zn531   1.979   .     S
C533   C546    1.429   .     S
C533   O601    1.284   .     A
C533   O599    1.283   .     A
C534   C536    1.411   .     A
C534   H574    1.082   .     S
C534   C565    1.407   .     A
C535   C555    1.411   .     A
C535   C566    1.410   .     A
C536   C561    1.411   .     A
C536   C79     1.513   1_556 S
C537   O603    1.275   .     A
C537   O605    1.278   .     A
C537   C539    1.400   .     S
C538   O604    1.275   .     A
C538   O606    1.278   .     A
C538   C540    1.400   .     S
C540   C615    1.330   .     S
C540   H654    1.088   .     S
C541   C552    1.417   .     A
C541   C543    1.393   .     A
C541   C554    1.522   .     S
C542   C558    1.522   .     S
C542   C553    1.416   .     A
C542   C545    1.392   .     A
C543   C546    1.397   .     A
C543   H589    1.085   .     S
C544   C547    1.441   .     S
C544   O600    1.286   .     A
C544   O602    1.288   .     A
C545   H591    1.084   .     S
C545   C547    1.400   .     A
C546   C548    1.390   .     A
C547   C549    1.394   .     A
C548   C550    1.376   .     A
C548   H592    1.084   .     S
C549   C551    1.377   .     A
C549   H593    1.084   .     S
C550   C552    1.400   .     A
C550   H594    1.084   .     S
C551   H595    1.084   .     S
C551   C553    1.399   .     A
C552   C781    1.443   1_545 S
C553   C780    1.443   .     S
C554   H582    1.113   .     S
C554   C556    1.534   .     S
C554   H581    1.108   .     S
C555   H596    1.082   .     S
C555   C562    1.407   .     A
C556   H579    1.112   .     S
C556   C709    1.527   1_545 S
C556   H808    1.109   1_545 S
C557   H577    1.111   .     S
C557   C860    1.527   .     S
C557   H651    1.111   .     S
C557   H804    1.111   .     S
C558   C559    1.532   .     S
C558   H590    1.113   .     S
C558   H588    1.108   .     S
C559   H586    1.112   .     S
C559   C788    1.526   .     S
C559   H815    1.108   .     S
C560   H585    1.111   .     S
C560   H583    1.111   .     S
C560   C787    1.526   1_545 S
C560   H812    1.111   1_545 S
C561   C563    1.407   .     A
C561   H568    1.082   .     S
C562   N597    1.363   .     A
C562   H569    1.082   .     S
C563   N598    1.363   .     A
C563   H570    1.082   .     S
C564   H571    1.081   .     S
C564   C566    1.407   .     A
C564   N597    1.363   .     A
C565   N598    1.363   .     A
C565   H572    1.082   .     S
C566   H573    1.082   .     S
H567   C615    1.088   .     S
H576   C785    1.111   1_545 S
H580   C784    1.109   .     S
H584   C788    1.111   .     S
H587   C787    1.108   1_545 S
N597   Zn608   2.004   .     S
N598   Zn607   2.004   .     S
O599   Zn607   1.994   .     S
O600   Zn608   1.994   .     S
O601   Zn608   1.989   .     S
O602   Zn607   1.989   .     S
O603   Zn607   1.966   .     S
O604   Zn608   1.966   .     S
O605   Zn608   1.979   .     S
O606   Zn607   1.979   .     S
C609   C622    1.429   .     S
C609   O677    1.284   .     A
C609   O675    1.283   .     A
C610   C612    1.411   .     A
C610   H650    1.082   .     S
C610   C641    1.407   .     A
C611   C631    1.411   .     A
C611   C642    1.410   .     A
C612   C637    1.411   .     A
C612   C155    1.513   1_556 S
C613   O679    1.275   .     A
C613   O681    1.278   .     A
C613   C615    1.400   .     S
C614   O680    1.275   .     A
C614   O682    1.278   .     A
C614   C616    1.400   .     S
C616   C463    1.330   1_655 S
C616   H502    1.088   1_655 S
C617   C628    1.417   .     A
C617   C619    1.393   .     A
C617   C630    1.522   .     S
C618   C634    1.522   .     S
C618   C629    1.416   .     A
C618   C621    1.392   .     A
C619   C622    1.397   .     A
C619   H665    1.085   .     S
C620   C623    1.441   .     S
C620   O676    1.286   .     A
C620   O678    1.288   .     A
C621   H667    1.084   .     S
C621   C623    1.400   .     A
C622   C624    1.390   .     A
C623   C625    1.394   .     A
C624   C626    1.376   .     A
C624   H668    1.084   .     S
C625   C627    1.377   .     A
C625   H669    1.084   .     S
C626   C628    1.400   .     A
C626   H670    1.084   .     S
C627   H671    1.084   .     S
C627   C629    1.399   .     A
C628   C857    1.443   1_545 S
C629   C856    1.443   .     S
C630   H658    1.113   .     S
C630   C632    1.534   .     S
C630   H657    1.108   .     S
C631   H672    1.082   .     S
C631   C638    1.407   .     A
C632   H655    1.112   .     S
C632   C785    1.527   1_545 S
C632   H884    1.109   1_545 S
C633   H653    1.111   .     S
C633   C708    1.527   1_655 S
C633   H499    1.111   1_655 S
C633   H880    1.111   .     S
C634   C635    1.532   .     S
C634   H666    1.113   .     S
C634   H664    1.108   .     S
C635   H662    1.112   .     S
C635   C864    1.526   .     S
C635   H891    1.108   .     S
C636   H661    1.111   .     S
C636   H659    1.111   .     S
C636   C863    1.526   1_545 S
C636   H888    1.111   1_545 S
C637   C639    1.407   .     A
C637   H644    1.082   .     S
C638   N673    1.363   .     A
C638   H645    1.082   .     S
C639   N674    1.363   .     A
C639   H646    1.082   .     S
C640   H647    1.081   .     S
C640   C642    1.407   .     A
C640   N673    1.363   .     A
C641   N674    1.363   .     A
C641   H648    1.082   .     S
C642   H649    1.082   .     S
H643   C463    1.088   1_655 S
H652   C861    1.111   1_545 S
H656   C860    1.109   .     S
H660   C864    1.111   .     S
H663   C863    1.108   1_545 S
N673   Zn684   2.004   .     S
N674   Zn683   2.004   .     S
O675   Zn683   1.994   .     S
O676   Zn684   1.994   .     S
O677   Zn684   1.989   .     S
O678   Zn683   1.989   .     S
O679   Zn683   1.966   .     S
O680   Zn684   1.966   .     S
O681   Zn684   1.979   .     S
O682   Zn683   1.979   .     S
C685   C698    1.429   .     S
C685   O753    1.284   .     A
C685   O751    1.283   .     A
C686   C688    1.411   .     A
C686   H726    1.082   .     S
C686   C717    1.407   .     A
C687   C707    1.411   .     A
C687   C718    1.410   .     A
C688   C713    1.411   .     A
C688   C231    1.513   1_556 S
C689   O755    1.275   .     A
C689   O757    1.278   .     A
C689   C691    1.400   .     S
C690   O756    1.275   .     A
C690   O758    1.278   .     A
C690   C692    1.400   .     S
C691   C844    1.330   1_455 S
C691   H871    1.088   1_455 S
C692   C767    1.330   .     S
C692   H806    1.088   .     S
C693   C704    1.417   .     A
C693   C695    1.393   .     A
C693   C706    1.522   .     S
C694   C710    1.522   .     S
C694   C705    1.416   .     A
C694   C697    1.392   .     A
C695   C698    1.397   .     A
C695   H741    1.085   .     S
C696   C699    1.441   .     S
C696   O752    1.286   .     A
C696   O754    1.288   .     A
C697   H743    1.084   .     S
C697   C699    1.400   .     A
C698   C700    1.390   .     A
C699   C701    1.394   .     A
C700   C702    1.376   .     A
C700   H744    1.084   .     S
C701   C703    1.377   .     A
C701   H745    1.084   .     S
C702   C704    1.400   .     A
C702   H746    1.084   .     S
C703   H747    1.084   .     S
C703   C705    1.399   .     A
C705   C476    1.443   1_565 S
C706   H734    1.113   .     S
C706   C708    1.534   .     S
C706   H733    1.108   .     S
C707   H748    1.082   .     S
C707   C714    1.407   .     A
C708   H731    1.112   .     S
C708   C633    1.527   1_455 S
C709   H729    1.111   .     S
C709   C556    1.527   1_565 S
C709   H803    1.111   .     S
C709   H500    1.111   1_565 S
C710   C711    1.532   .     S
C710   H742    1.113   .     S
C710   H740    1.108   .     S
C711   H738    1.112   .     S
C711   C484    1.526   1_565 S
C711   H511    1.108   1_565 S
C712   H737    1.111   .     S
C712   H735    1.111   .     S
C713   C715    1.407   .     A
C713   H720    1.082   .     S
C714   N749    1.363   .     A
C714   H721    1.082   .     S
C715   N750    1.363   .     A
C715   H722    1.082   .     S
C716   H723    1.081   .     S
C716   C718    1.407   .     A
C716   N749    1.363   .     A
C717   N750    1.363   .     A
C717   H724    1.082   .     S
C718   H725    1.082   .     S
H719   C767    1.088   .     S
H727   C861    1.111   1_455 S
H730   C844    1.088   1_455 S
H732   C480    1.109   1_565 S
H736   C484    1.111   1_565 S
N749   Zn760   2.004   .     S
N750   Zn759   2.004   .     S
O751   Zn759   1.994   .     S
O752   Zn760   1.994   .     S
O753   Zn760   1.989   .     S
O754   Zn759   1.989   .     S
O755   Zn759   1.966   .     S
O756   Zn760   1.966   .     S
O757   Zn760   1.979   .     S
O758   Zn759   1.979   .     S
C761   C774    1.429   .     S
C761   O829    1.284   .     A
C761   O827    1.283   .     A
C762   C764    1.411   .     A
C762   H802    1.082   .     S
C762   C793    1.407   .     A
C763   C783    1.411   .     A
C763   C794    1.410   .     A
C764   C789    1.411   .     A
C764   C307    1.513   1_556 S
C765   O831    1.275   .     A
C765   O833    1.278   .     A
C765   C767    1.400   .     S
C766   O832    1.275   .     A
C766   O834    1.278   .     A
C766   C768    1.400   .     S
C768   C843    1.330   .     S
C768   H882    1.088   .     S
C769   C780    1.417   .     A
C769   C771    1.393   .     A
C769   C782    1.522   .     S
C770   C786    1.522   .     S
C770   C781    1.416   .     A
C770   C773    1.392   .     A
C771   C774    1.397   .     A
C771   H817    1.085   .     S
C772   C775    1.441   .     S
C772   O828    1.286   .     A
C772   O830    1.288   .     A
C773   H819    1.084   .     S
C773   C775    1.400   .     A
C774   C776    1.390   .     A
C775   C777    1.394   .     A
C776   C778    1.376   .     A
C776   H820    1.084   .     S
C777   C779    1.377   .     A
C777   H821    1.084   .     S
C778   C780    1.400   .     A
C778   H822    1.084   .     S
C779   H823    1.084   .     S
C779   C781    1.399   .     A
C781   C552    1.443   1_565 S
C782   H810    1.113   .     S
C782   C784    1.534   .     S
C782   H809    1.108   .     S
C783   H824    1.082   .     S
C783   C790    1.407   .     A
C784   H807    1.112   .     S
C785   H805    1.111   .     S
C785   C632    1.527   1_565 S
C785   H879    1.111   .     S
C785   H576    1.111   1_565 S
C786   C787    1.532   .     S
C786   H818    1.113   .     S
C786   H816    1.108   .     S
C787   H814    1.112   .     S
C787   C560    1.526   1_565 S
C787   H587    1.108   1_565 S
C788   H813    1.111   .     S
C788   H811    1.111   .     S
C789   C791    1.407   .     A
C789   H796    1.082   .     S
C790   N825    1.363   .     A
C790   H797    1.082   .     S
C791   N826    1.363   .     A
C791   H798    1.082   .     S
C792   H799    1.081   .     S
C792   C794    1.407   .     A
C792   N825    1.363   .     A
C793   N826    1.363   .     A
C793   H800    1.082   .     S
C794   H801    1.082   .     S
H795   C843    1.088   .     S
H808   C556    1.109   1_565 S
H812   C560    1.111   1_565 S
N825   Zn836   2.004   .     S
N826   Zn835   2.004   .     S
O827   Zn835   1.994   .     S
O828   Zn836   1.994   .     S
O829   Zn836   1.989   .     S
O830   Zn835   1.989   .     S
O831   Zn835   1.966   .     S
O832   Zn836   1.966   .     S
O833   Zn836   1.979   .     S
O834   Zn835   1.979   .     S
C837   C850    1.429   .     S
C837   O905    1.284   .     A
C837   O903    1.283   .     A
C838   C840    1.411   .     A
C838   H878    1.082   .     S
C838   C869    1.407   .     A
C839   C859    1.411   .     A
C839   C870    1.410   .     A
C840   C865    1.411   .     A
C840   C383    1.513   1_556 S
C841   O907    1.275   .     A
C841   O909    1.278   .     A
C841   C843    1.400   .     S
C842   O908    1.275   .     A
C842   O910    1.278   .     A
C842   C844    1.400   .     S
C844   C691    1.330   1_655 S
C844   H730    1.088   1_655 S
C845   C856    1.417   .     A
C845   C847    1.393   .     A
C845   C858    1.522   .     S
C846   C862    1.522   .     S
C846   C857    1.416   .     A
C846   C849    1.392   .     A
C847   C850    1.397   .     A
C847   H893    1.085   .     S
C848   C851    1.441   .     S
C848   O904    1.286   .     A
C848   O906    1.288   .     A
C849   H895    1.084   .     S
C849   C851    1.400   .     A
C850   C852    1.390   .     A
C851   C853    1.394   .     A
C852   C854    1.376   .     A
C852   H896    1.084   .     S
C853   C855    1.377   .     A
C853   H897    1.084   .     S
C854   C856    1.400   .     A
C854   H898    1.084   .     S
C855   H899    1.084   .     S
C855   C857    1.399   .     A
C857   C628    1.443   1_565 S
C858   H886    1.113   .     S
C858   C860    1.534   .     S
C858   H885    1.108   .     S
C859   H900    1.082   .     S
C859   C866    1.407   .     A
C860   H883    1.112   .     S
C861   H881    1.111   .     S
C861   C480    1.527   1_665 S
C861   H727    1.111   1_655 S
C861   H652    1.111   1_565 S
C862   C863    1.532   .     S
C862   H894    1.113   .     S
C862   H892    1.108   .     S
C863   H890    1.112   .     S
C863   C636    1.526   1_565 S
C863   H663    1.108   1_565 S
C864   H889    1.111   .     S
C864   H887    1.111   .     S
C865   C867    1.407   .     A
C865   H872    1.082   .     S
C866   N901    1.363   .     A
C866   H873    1.082   .     S
C867   N902    1.363   .     A
C867   H874    1.082   .     S
C868   H875    1.081   .     S
C868   C870    1.407   .     A
C868   N901    1.363   .     A
C869   N902    1.363   .     A
C869   H876    1.082   .     S
C870   H877    1.082   .     S
H871   C691    1.088   1_655 S
H884   C632    1.109   1_565 S
H888   C636    1.111   1_565 S
N901   Zn912   2.004   .     S
N902   Zn911   2.004   .     S
O903   Zn911   1.994   .     S
O904   Zn912   1.994   .     S
O905   Zn912   1.989   .     S
O906   Zn911   1.989   .     S
O907   Zn911   1.966   .     S
O908   Zn912   1.966   .     S
O909   Zn912   1.979   .     S
O910   Zn911   1.979   .     S
