data_str_m3_o10_o17_pcu_sym.216
_audit_creation_date              2020-01-03
_audit_creation_method            'Materials Studio'
_symmetry_space_group_name_H-M    'P1'
_symmetry_Int_Tables_number       1
_symmetry_cell_setting            triclinic
loop_
_symmetry_equiv_pos_as_xyz
  x,y,z
_cell_length_a                    23.2694
_cell_length_b                    26.0256
_cell_length_c                    29.8737
_cell_angle_alpha                 91.3709
_cell_angle_beta                  85.5934
_cell_angle_gamma                 93.7873
loop_
_atom_site_label
_atom_site_type_symbol
_atom_site_fract_x
_atom_site_fract_y
_atom_site_fract_z
_atom_site_U_iso_or_equiv
_atom_site_adp_type
_atom_site_occupancy
O1     O     0.12975   0.24619   0.25298   0.00000  Uiso   1.00
O2     O     0.20358   0.08714   0.24702   0.00000  Uiso   1.00
O3     O     0.22613   0.23721   0.24519   0.00000  Uiso   1.00
O4     O     0.10720   0.09613   0.25482   0.00000  Uiso   1.00
C5     C     0.18175   0.26468   0.24832   0.00000  Uiso   1.00
C6     C     0.15158   0.06866   0.25168   0.00000  Uiso   1.00
O7     O     0.11847   0.17117   0.31997   0.00000  Uiso   1.00
O8     O     0.21486   0.16216   0.18003   0.00000  Uiso   1.00
O9     O     0.21485   0.16219   0.31218   0.00000  Uiso   1.00
O10    O     0.11848   0.17115   0.18782   0.00000  Uiso   1.00
C11    C     0.16716   0.16621   0.33654   0.00000  Uiso   1.00
C12    C     0.16617   0.16713   0.16346   0.00000  Uiso   1.00
Zn13   Zn    0.10231   0.17266   0.25521   0.00000  Uiso   1.00
Zn14   Zn    0.23102   0.16067   0.24479   0.00000  Uiso   1.00
C15    C     0.11699   0.14794   0.09544   0.00000  Uiso   1.00
C16    C     0.21634   0.18540   0.40456   0.00000  Uiso   1.00
C17    C     0.16544   0.16849   0.11574   0.00000  Uiso   1.00
C18    C     0.16789   0.16484   0.38427   0.00000  Uiso   1.00
C19    C     0.21408   0.18933   0.09064   0.00000  Uiso   1.00
C20    C     0.11926   0.14400   0.40936   0.00000  Uiso   1.00
C21    C     0.21525   0.18939   0.04415   0.00000  Uiso   1.00
C22    C     0.11808   0.14395   0.45585   0.00000  Uiso   1.00
C23    C     0.16651   0.16737   0.02331   0.00000  Uiso   1.00
C24    C     0.16683   0.16596   0.47669   0.00000  Uiso   1.00
C25    C     0.11738   0.14669   0.04914   0.00000  Uiso   1.00
C26    C     0.21596   0.18665   0.45086   0.00000  Uiso   1.00
C27    C     0.26373   0.21048   0.01800   0.00000  Uiso   1.00
C28    C     0.06960   0.12286   0.48200   0.00000  Uiso   1.00
C29    C     0.26371   0.20882   0.47151   0.00000  Uiso   1.00
C30    C     0.06963   0.12452   0.02849   0.00000  Uiso   1.00
H31    H     0.07975   0.13170   0.11567   0.00000  Uiso   1.00
H32    H     0.25358   0.20163   0.38433   0.00000  Uiso   1.00
H33    H     0.25060   0.20546   0.10782   0.00000  Uiso   1.00
H34    H     0.08273   0.12787   0.39218   0.00000  Uiso   1.00
H35    H     0.30113   0.22489   0.45146   0.00000  Uiso   1.00
H36    H     0.03220   0.10845   0.04854   0.00000  Uiso   1.00
C37    C     0.18982   0.31868   0.25059   0.00000  Uiso   1.00
C38    C     0.14352   0.01466   0.24941   0.00000  Uiso   1.00
N39    N     0.31678   0.15265   0.23783   0.00000  Uiso   1.00
N40    N     0.01656   0.18068   0.26217   0.00000  Uiso   1.00
H41    H     0.00475   0.12760   0.21626   0.00000  Uiso   1.00
H42    H     0.32859   0.20574   0.28374   0.00000  Uiso   1.00
Br43   Br    0.33094   0.24262   0.04340   0.00000  Uiso   1.00
Br44   Br    0.00239   0.09072   0.45660   0.00000  Uiso   1.00
N45    N     0.24724   0.00584   0.25795   0.00000  Uiso   1.00
O46    O     0.28616   0.00977   0.22435   0.00000  Uiso   1.00
O47    O     0.26081   0.01897   0.29828   0.00000  Uiso   1.00
N48    N     0.08609   0.32749   0.24205   0.00000  Uiso   1.00
O49    O     0.04718   0.32357   0.27565   0.00000  Uiso   1.00
O50    O     0.07253   0.31436   0.20172   0.00000  Uiso   1.00
O51    O     0.46308   0.24619   0.25298   0.00000  Uiso   1.00
O52    O     0.53692   0.08714   0.24702   0.00000  Uiso   1.00
O53    O     0.55946   0.23721   0.24519   0.00000  Uiso   1.00
O54    O     0.44054   0.09613   0.25482   0.00000  Uiso   1.00
C55    C     0.51508   0.26468   0.24832   0.00000  Uiso   1.00
C56    C     0.48492   0.06866   0.25168   0.00000  Uiso   1.00
O57    O     0.45181   0.17117   0.31997   0.00000  Uiso   1.00
O58    O     0.54819   0.16216   0.18003   0.00000  Uiso   1.00
O59    O     0.54819   0.16219   0.31218   0.00000  Uiso   1.00
O60    O     0.45181   0.17115   0.18782   0.00000  Uiso   1.00
C61    C     0.50049   0.16621   0.33654   0.00000  Uiso   1.00
C62    C     0.49951   0.16713   0.16346   0.00000  Uiso   1.00
Zn63   Zn    0.43565   0.17266   0.25521   0.00000  Uiso   1.00
Zn64   Zn    0.56435   0.16067   0.24479   0.00000  Uiso   1.00
C65    C     0.45033   0.14794   0.09544   0.00000  Uiso   1.00
C66    C     0.54967   0.18540   0.40456   0.00000  Uiso   1.00
C67    C     0.49878   0.16849   0.11574   0.00000  Uiso   1.00
C68    C     0.50122   0.16484   0.38427   0.00000  Uiso   1.00
C69    C     0.54741   0.18933   0.09064   0.00000  Uiso   1.00
C70    C     0.45259   0.14400   0.40936   0.00000  Uiso   1.00
C71    C     0.54858   0.18939   0.04415   0.00000  Uiso   1.00
C72    C     0.45142   0.14395   0.45585   0.00000  Uiso   1.00
C73    C     0.49984   0.16737   0.02331   0.00000  Uiso   1.00
C74    C     0.50016   0.16596   0.47669   0.00000  Uiso   1.00
C75    C     0.45071   0.14669   0.04914   0.00000  Uiso   1.00
C76    C     0.54929   0.18665   0.45086   0.00000  Uiso   1.00
C77    C     0.59706   0.21048   0.01800   0.00000  Uiso   1.00
C78    C     0.40294   0.12286   0.48200   0.00000  Uiso   1.00
C79    C     0.59704   0.20882   0.47151   0.00000  Uiso   1.00
C80    C     0.40296   0.12452   0.02849   0.00000  Uiso   1.00
H81    H     0.41309   0.13170   0.11567   0.00000  Uiso   1.00
H82    H     0.58691   0.20163   0.38433   0.00000  Uiso   1.00
H83    H     0.58393   0.20546   0.10782   0.00000  Uiso   1.00
H84    H     0.41607   0.12787   0.39218   0.00000  Uiso   1.00
H85    H     0.63447   0.22489   0.45146   0.00000  Uiso   1.00
H86    H     0.36554   0.10845   0.04854   0.00000  Uiso   1.00
C87    C     0.52315   0.31868   0.25059   0.00000  Uiso   1.00
C88    C     0.47685   0.01466   0.24941   0.00000  Uiso   1.00
N89    N     0.65011   0.15265   0.23783   0.00000  Uiso   1.00
N90    N     0.34989   0.18068   0.26217   0.00000  Uiso   1.00
H91    H     0.33808   0.12760   0.21626   0.00000  Uiso   1.00
H92    H     0.66192   0.20574   0.28374   0.00000  Uiso   1.00
Br93   Br    0.66427   0.24262   0.04340   0.00000  Uiso   1.00
Br94   Br    0.33573   0.09072   0.45660   0.00000  Uiso   1.00
N95    N     0.58057   0.00584   0.25795   0.00000  Uiso   1.00
O96    O     0.61949   0.00977   0.22435   0.00000  Uiso   1.00
O97    O     0.59414   0.01897   0.29828   0.00000  Uiso   1.00
N98    N     0.41943   0.32749   0.24205   0.00000  Uiso   1.00
O99    O     0.38051   0.32357   0.27565   0.00000  Uiso   1.00
O100   O     0.40586   0.31436   0.20172   0.00000  Uiso   1.00
O101   O     0.79642   0.24619   0.25298   0.00000  Uiso   1.00
O102   O     0.87025   0.08714   0.24702   0.00000  Uiso   1.00
O103   O     0.89280   0.23721   0.24519   0.00000  Uiso   1.00
O104   O     0.77387   0.09613   0.25482   0.00000  Uiso   1.00
C105   C     0.84842   0.26468   0.24832   0.00000  Uiso   1.00
C106   C     0.81825   0.06866   0.25168   0.00000  Uiso   1.00
O107   O     0.78514   0.17117   0.31997   0.00000  Uiso   1.00
O108   O     0.88153   0.16216   0.18003   0.00000  Uiso   1.00
O109   O     0.88152   0.16219   0.31218   0.00000  Uiso   1.00
O110   O     0.78515   0.17115   0.18782   0.00000  Uiso   1.00
C111   C     0.83383   0.16621   0.33654   0.00000  Uiso   1.00
C112   C     0.83284   0.16713   0.16346   0.00000  Uiso   1.00
Zn113  Zn    0.76898   0.17266   0.25521   0.00000  Uiso   1.00
Zn114  Zn    0.89769   0.16067   0.24479   0.00000  Uiso   1.00
C115   C     0.78366   0.14794   0.09544   0.00000  Uiso   1.00
C116   C     0.88301   0.18540   0.40456   0.00000  Uiso   1.00
C117   C     0.83211   0.16849   0.11574   0.00000  Uiso   1.00
C118   C     0.83456   0.16484   0.38427   0.00000  Uiso   1.00
C119   C     0.88074   0.18933   0.09064   0.00000  Uiso   1.00
C120   C     0.78592   0.14400   0.40936   0.00000  Uiso   1.00
C121   C     0.88192   0.18939   0.04415   0.00000  Uiso   1.00
C122   C     0.78475   0.14395   0.45585   0.00000  Uiso   1.00
C123   C     0.83317   0.16737   0.02331   0.00000  Uiso   1.00
C124   C     0.83349   0.16596   0.47669   0.00000  Uiso   1.00
C125   C     0.78404   0.14669   0.04914   0.00000  Uiso   1.00
C126   C     0.88262   0.18665   0.45086   0.00000  Uiso   1.00
C127   C     0.93040   0.21048   0.01800   0.00000  Uiso   1.00
C128   C     0.73627   0.12286   0.48200   0.00000  Uiso   1.00
C129   C     0.93037   0.20882   0.47151   0.00000  Uiso   1.00
C130   C     0.73629   0.12452   0.02849   0.00000  Uiso   1.00
H131   H     0.74642   0.13170   0.11567   0.00000  Uiso   1.00
H132   H     0.92025   0.20163   0.38433   0.00000  Uiso   1.00
H133   H     0.91727   0.20546   0.10782   0.00000  Uiso   1.00
H134   H     0.74940   0.12787   0.39218   0.00000  Uiso   1.00
H135   H     0.96780   0.22489   0.45146   0.00000  Uiso   1.00
H136   H     0.69887   0.10845   0.04854   0.00000  Uiso   1.00
C137   C     0.85648   0.31868   0.25059   0.00000  Uiso   1.00
C138   C     0.81018   0.01466   0.24941   0.00000  Uiso   1.00
N139   N     0.98344   0.15265   0.23783   0.00000  Uiso   1.00
N140   N     0.68322   0.18068   0.26217   0.00000  Uiso   1.00
H141   H     0.67141   0.12760   0.21626   0.00000  Uiso   1.00
H142   H     0.99525   0.20574   0.28374   0.00000  Uiso   1.00
Br143  Br    0.99761   0.24262   0.04340   0.00000  Uiso   1.00
Br144  Br    0.66906   0.09072   0.45660   0.00000  Uiso   1.00
N145   N     0.91391   0.00584   0.25795   0.00000  Uiso   1.00
O146   O     0.95282   0.00977   0.22435   0.00000  Uiso   1.00
O147   O     0.92747   0.01897   0.29828   0.00000  Uiso   1.00
N148   N     0.75276   0.32749   0.24205   0.00000  Uiso   1.00
O149   O     0.71384   0.32357   0.27565   0.00000  Uiso   1.00
O150   O     0.73920   0.31436   0.20172   0.00000  Uiso   1.00
O151   O     0.12975   0.57952   0.25298   0.00000  Uiso   1.00
O152   O     0.20358   0.42048   0.24702   0.00000  Uiso   1.00
O153   O     0.22613   0.57054   0.24519   0.00000  Uiso   1.00
O154   O     0.10720   0.42946   0.25482   0.00000  Uiso   1.00
C155   C     0.18175   0.59801   0.24832   0.00000  Uiso   1.00
C156   C     0.15158   0.40199   0.25168   0.00000  Uiso   1.00
O157   O     0.11847   0.50450   0.31997   0.00000  Uiso   1.00
O158   O     0.21486   0.49550   0.18003   0.00000  Uiso   1.00
O159   O     0.21485   0.49552   0.31218   0.00000  Uiso   1.00
O160   O     0.11848   0.50448   0.18782   0.00000  Uiso   1.00
C161   C     0.16716   0.49954   0.33654   0.00000  Uiso   1.00
C162   C     0.16617   0.50046   0.16346   0.00000  Uiso   1.00
Zn163  Zn    0.10231   0.50600   0.25521   0.00000  Uiso   1.00
Zn164  Zn    0.23102   0.49400   0.24479   0.00000  Uiso   1.00
C165   C     0.11699   0.48127   0.09544   0.00000  Uiso   1.00
C166   C     0.21634   0.51873   0.40456   0.00000  Uiso   1.00
C167   C     0.16544   0.50182   0.11574   0.00000  Uiso   1.00
C168   C     0.16789   0.49818   0.38427   0.00000  Uiso   1.00
C169   C     0.21408   0.52267   0.09064   0.00000  Uiso   1.00
C170   C     0.11926   0.47733   0.40936   0.00000  Uiso   1.00
C171   C     0.21525   0.52272   0.04415   0.00000  Uiso   1.00
C172   C     0.11808   0.47728   0.45585   0.00000  Uiso   1.00
C173   C     0.16651   0.50071   0.02331   0.00000  Uiso   1.00
C174   C     0.16683   0.49929   0.47669   0.00000  Uiso   1.00
C175   C     0.11738   0.48002   0.04914   0.00000  Uiso   1.00
C176   C     0.21596   0.51998   0.45086   0.00000  Uiso   1.00
C177   C     0.26373   0.54381   0.01800   0.00000  Uiso   1.00
C178   C     0.06960   0.45619   0.48200   0.00000  Uiso   1.00
C179   C     0.26371   0.54215   0.47151   0.00000  Uiso   1.00
C180   C     0.06963   0.45785   0.02849   0.00000  Uiso   1.00
H181   H     0.07975   0.46504   0.11567   0.00000  Uiso   1.00
H182   H     0.25358   0.53496   0.38433   0.00000  Uiso   1.00
H183   H     0.25060   0.53879   0.10782   0.00000  Uiso   1.00
H184   H     0.08273   0.46121   0.39218   0.00000  Uiso   1.00
H185   H     0.30113   0.55822   0.45146   0.00000  Uiso   1.00
H186   H     0.03220   0.44178   0.04854   0.00000  Uiso   1.00
C187   C     0.18982   0.65201   0.25059   0.00000  Uiso   1.00
C188   C     0.14352   0.34799   0.24941   0.00000  Uiso   1.00
N189   N     0.31678   0.48598   0.23783   0.00000  Uiso   1.00
N190   N     0.01656   0.51402   0.26217   0.00000  Uiso   1.00
H191   H     0.00475   0.46093   0.21626   0.00000  Uiso   1.00
H192   H     0.32859   0.53907   0.28374   0.00000  Uiso   1.00
Br193  Br    0.33094   0.57595   0.04340   0.00000  Uiso   1.00
Br194  Br    0.00239   0.42405   0.45660   0.00000  Uiso   1.00
N195   N     0.24724   0.33918   0.25795   0.00000  Uiso   1.00
O196   O     0.28616   0.34310   0.22435   0.00000  Uiso   1.00
O197   O     0.26081   0.35231   0.29828   0.00000  Uiso   1.00
N198   N     0.08609   0.66082   0.24205   0.00000  Uiso   1.00
O199   O     0.04718   0.65690   0.27565   0.00000  Uiso   1.00
O200   O     0.07253   0.64769   0.20172   0.00000  Uiso   1.00
O201   O     0.46308   0.57952   0.25298   0.00000  Uiso   1.00
O202   O     0.53692   0.42048   0.24702   0.00000  Uiso   1.00
O203   O     0.55946   0.57054   0.24519   0.00000  Uiso   1.00
O204   O     0.44054   0.42946   0.25482   0.00000  Uiso   1.00
C205   C     0.51508   0.59801   0.24832   0.00000  Uiso   1.00
C206   C     0.48492   0.40199   0.25168   0.00000  Uiso   1.00
O207   O     0.45181   0.50450   0.31997   0.00000  Uiso   1.00
O208   O     0.54819   0.49550   0.18003   0.00000  Uiso   1.00
O209   O     0.54819   0.49552   0.31218   0.00000  Uiso   1.00
O210   O     0.45181   0.50448   0.18782   0.00000  Uiso   1.00
C211   C     0.50049   0.49954   0.33654   0.00000  Uiso   1.00
C212   C     0.49951   0.50046   0.16346   0.00000  Uiso   1.00
Zn213  Zn    0.43565   0.50600   0.25521   0.00000  Uiso   1.00
Zn214  Zn    0.56435   0.49400   0.24479   0.00000  Uiso   1.00
C215   C     0.45033   0.48127   0.09544   0.00000  Uiso   1.00
C216   C     0.54967   0.51873   0.40456   0.00000  Uiso   1.00
C217   C     0.49878   0.50182   0.11574   0.00000  Uiso   1.00
C218   C     0.50122   0.49818   0.38427   0.00000  Uiso   1.00
C219   C     0.54741   0.52267   0.09064   0.00000  Uiso   1.00
C220   C     0.45259   0.47733   0.40936   0.00000  Uiso   1.00
C221   C     0.54858   0.52272   0.04415   0.00000  Uiso   1.00
C222   C     0.45142   0.47728   0.45585   0.00000  Uiso   1.00
C223   C     0.49984   0.50071   0.02331   0.00000  Uiso   1.00
C224   C     0.50016   0.49929   0.47669   0.00000  Uiso   1.00
C225   C     0.45071   0.48002   0.04914   0.00000  Uiso   1.00
C226   C     0.54929   0.51998   0.45086   0.00000  Uiso   1.00
C227   C     0.59706   0.54381   0.01800   0.00000  Uiso   1.00
C228   C     0.40294   0.45619   0.48200   0.00000  Uiso   1.00
C229   C     0.59704   0.54215   0.47151   0.00000  Uiso   1.00
C230   C     0.40296   0.45785   0.02849   0.00000  Uiso   1.00
H231   H     0.41309   0.46504   0.11567   0.00000  Uiso   1.00
H232   H     0.58691   0.53496   0.38433   0.00000  Uiso   1.00
H233   H     0.58393   0.53879   0.10782   0.00000  Uiso   1.00
H234   H     0.41607   0.46121   0.39218   0.00000  Uiso   1.00
H235   H     0.63447   0.55822   0.45146   0.00000  Uiso   1.00
H236   H     0.36554   0.44178   0.04854   0.00000  Uiso   1.00
C237   C     0.52315   0.65201   0.25059   0.00000  Uiso   1.00
C238   C     0.47685   0.34799   0.24941   0.00000  Uiso   1.00
N239   N     0.65011   0.48598   0.23783   0.00000  Uiso   1.00
N240   N     0.34989   0.51402   0.26217   0.00000  Uiso   1.00
H241   H     0.33808   0.46093   0.21626   0.00000  Uiso   1.00
H242   H     0.66192   0.53907   0.28374   0.00000  Uiso   1.00
Br243  Br    0.66427   0.57595   0.04340   0.00000  Uiso   1.00
Br244  Br    0.33573   0.42405   0.45660   0.00000  Uiso   1.00
N245   N     0.58057   0.33918   0.25795   0.00000  Uiso   1.00
O246   O     0.61949   0.34310   0.22435   0.00000  Uiso   1.00
O247   O     0.59414   0.35231   0.29828   0.00000  Uiso   1.00
N248   N     0.41943   0.66082   0.24205   0.00000  Uiso   1.00
O249   O     0.38051   0.65690   0.27565   0.00000  Uiso   1.00
O250   O     0.40586   0.64769   0.20172   0.00000  Uiso   1.00
O251   O     0.79642   0.57952   0.25298   0.00000  Uiso   1.00
O252   O     0.87025   0.42048   0.24702   0.00000  Uiso   1.00
O253   O     0.89280   0.57054   0.24519   0.00000  Uiso   1.00
O254   O     0.77387   0.42946   0.25482   0.00000  Uiso   1.00
C255   C     0.84842   0.59801   0.24832   0.00000  Uiso   1.00
C256   C     0.81825   0.40199   0.25168   0.00000  Uiso   1.00
O257   O     0.78514   0.50450   0.31997   0.00000  Uiso   1.00
O258   O     0.88153   0.49550   0.18003   0.00000  Uiso   1.00
O259   O     0.88152   0.49552   0.31218   0.00000  Uiso   1.00
O260   O     0.78515   0.50448   0.18782   0.00000  Uiso   1.00
C261   C     0.83383   0.49954   0.33654   0.00000  Uiso   1.00
C262   C     0.83284   0.50046   0.16346   0.00000  Uiso   1.00
Zn263  Zn    0.76898   0.50600   0.25521   0.00000  Uiso   1.00
Zn264  Zn    0.89769   0.49400   0.24479   0.00000  Uiso   1.00
C265   C     0.78366   0.48127   0.09544   0.00000  Uiso   1.00
C266   C     0.88301   0.51873   0.40456   0.00000  Uiso   1.00
C267   C     0.83211   0.50182   0.11574   0.00000  Uiso   1.00
C268   C     0.83456   0.49818   0.38427   0.00000  Uiso   1.00
C269   C     0.88074   0.52267   0.09064   0.00000  Uiso   1.00
C270   C     0.78592   0.47733   0.40936   0.00000  Uiso   1.00
C271   C     0.88192   0.52272   0.04415   0.00000  Uiso   1.00
C272   C     0.78475   0.47728   0.45585   0.00000  Uiso   1.00
C273   C     0.83317   0.50071   0.02331   0.00000  Uiso   1.00
C274   C     0.83349   0.49929   0.47669   0.00000  Uiso   1.00
C275   C     0.78404   0.48002   0.04914   0.00000  Uiso   1.00
C276   C     0.88262   0.51998   0.45086   0.00000  Uiso   1.00
C277   C     0.93040   0.54381   0.01800   0.00000  Uiso   1.00
C278   C     0.73627   0.45619   0.48200   0.00000  Uiso   1.00
C279   C     0.93037   0.54215   0.47151   0.00000  Uiso   1.00
C280   C     0.73629   0.45785   0.02849   0.00000  Uiso   1.00
H281   H     0.74642   0.46504   0.11567   0.00000  Uiso   1.00
H282   H     0.92025   0.53496   0.38433   0.00000  Uiso   1.00
H283   H     0.91727   0.53879   0.10782   0.00000  Uiso   1.00
H284   H     0.74940   0.46121   0.39218   0.00000  Uiso   1.00
H285   H     0.96780   0.55822   0.45146   0.00000  Uiso   1.00
H286   H     0.69887   0.44178   0.04854   0.00000  Uiso   1.00
C287   C     0.85648   0.65201   0.25059   0.00000  Uiso   1.00
C288   C     0.81018   0.34799   0.24941   0.00000  Uiso   1.00
N289   N     0.98344   0.48598   0.23783   0.00000  Uiso   1.00
N290   N     0.68322   0.51402   0.26217   0.00000  Uiso   1.00
H291   H     0.67141   0.46093   0.21626   0.00000  Uiso   1.00
H292   H     0.99525   0.53907   0.28374   0.00000  Uiso   1.00
Br293  Br    0.99761   0.57595   0.04340   0.00000  Uiso   1.00
Br294  Br    0.66906   0.42405   0.45660   0.00000  Uiso   1.00
N295   N     0.91391   0.33918   0.25795   0.00000  Uiso   1.00
O296   O     0.95282   0.34310   0.22435   0.00000  Uiso   1.00
O297   O     0.92747   0.35231   0.29828   0.00000  Uiso   1.00
N298   N     0.75276   0.66082   0.24205   0.00000  Uiso   1.00
O299   O     0.71384   0.65690   0.27565   0.00000  Uiso   1.00
O300   O     0.73920   0.64769   0.20172   0.00000  Uiso   1.00
O301   O     0.12975   0.91286   0.25298   0.00000  Uiso   1.00
O302   O     0.20358   0.75381   0.24702   0.00000  Uiso   1.00
O303   O     0.22613   0.90387   0.24519   0.00000  Uiso   1.00
O304   O     0.10720   0.76279   0.25482   0.00000  Uiso   1.00
C305   C     0.18175   0.93134   0.24832   0.00000  Uiso   1.00
C306   C     0.15158   0.73532   0.25168   0.00000  Uiso   1.00
O307   O     0.11847   0.83784   0.31997   0.00000  Uiso   1.00
O308   O     0.21486   0.82883   0.18003   0.00000  Uiso   1.00
O309   O     0.21485   0.82885   0.31218   0.00000  Uiso   1.00
O310   O     0.11848   0.83781   0.18782   0.00000  Uiso   1.00
C311   C     0.16716   0.83287   0.33654   0.00000  Uiso   1.00
C312   C     0.16617   0.83379   0.16346   0.00000  Uiso   1.00
Zn313  Zn    0.10231   0.83933   0.25521   0.00000  Uiso   1.00
Zn314  Zn    0.23102   0.82734   0.24479   0.00000  Uiso   1.00
C315   C     0.11699   0.81460   0.09544   0.00000  Uiso   1.00
C316   C     0.21634   0.85206   0.40456   0.00000  Uiso   1.00
C317   C     0.16544   0.83516   0.11574   0.00000  Uiso   1.00
C318   C     0.16789   0.83151   0.38427   0.00000  Uiso   1.00
C319   C     0.21408   0.85600   0.09064   0.00000  Uiso   1.00
C320   C     0.11926   0.81067   0.40936   0.00000  Uiso   1.00
C321   C     0.21525   0.85605   0.04415   0.00000  Uiso   1.00
C322   C     0.11808   0.81061   0.45585   0.00000  Uiso   1.00
C323   C     0.16651   0.83404   0.02331   0.00000  Uiso   1.00
C324   C     0.16683   0.83263   0.47669   0.00000  Uiso   1.00
C325   C     0.11738   0.81335   0.04914   0.00000  Uiso   1.00
C326   C     0.21596   0.85331   0.45086   0.00000  Uiso   1.00
C327   C     0.26373   0.87715   0.01800   0.00000  Uiso   1.00
C328   C     0.06960   0.78952   0.48200   0.00000  Uiso   1.00
C329   C     0.26371   0.87548   0.47151   0.00000  Uiso   1.00
C330   C     0.06963   0.79118   0.02849   0.00000  Uiso   1.00
H331   H     0.07975   0.79837   0.11567   0.00000  Uiso   1.00
H332   H     0.25358   0.86830   0.38433   0.00000  Uiso   1.00
H333   H     0.25060   0.87213   0.10782   0.00000  Uiso   1.00
H334   H     0.08273   0.79454   0.39218   0.00000  Uiso   1.00
H335   H     0.30113   0.89155   0.45146   0.00000  Uiso   1.00
H336   H     0.03220   0.77511   0.04854   0.00000  Uiso   1.00
C337   C     0.18982   0.98534   0.25059   0.00000  Uiso   1.00
C338   C     0.14352   0.68132   0.24941   0.00000  Uiso   1.00
N339   N     0.31678   0.81932   0.23783   0.00000  Uiso   1.00
N340   N     0.01656   0.84735   0.26217   0.00000  Uiso   1.00
H341   H     0.00475   0.79426   0.21626   0.00000  Uiso   1.00
H342   H     0.32859   0.87240   0.28374   0.00000  Uiso   1.00
Br343  Br    0.33094   0.90928   0.04340   0.00000  Uiso   1.00
Br344  Br    0.00239   0.75738   0.45660   0.00000  Uiso   1.00
N345   N     0.24724   0.67251   0.25795   0.00000  Uiso   1.00
O346   O     0.28616   0.67644   0.22435   0.00000  Uiso   1.00
O347   O     0.26081   0.68564   0.29828   0.00000  Uiso   1.00
N348   N     0.08609   0.99416   0.24205   0.00000  Uiso   1.00
O349   O     0.04718   0.99023   0.27565   0.00000  Uiso   1.00
O350   O     0.07253   0.98103   0.20172   0.00000  Uiso   1.00
O351   O     0.46308   0.91286   0.25298   0.00000  Uiso   1.00
O352   O     0.53692   0.75381   0.24702   0.00000  Uiso   1.00
O353   O     0.55946   0.90387   0.24519   0.00000  Uiso   1.00
O354   O     0.44054   0.76279   0.25482   0.00000  Uiso   1.00
C355   C     0.51508   0.93134   0.24832   0.00000  Uiso   1.00
C356   C     0.48492   0.73532   0.25168   0.00000  Uiso   1.00
O357   O     0.45181   0.83784   0.31997   0.00000  Uiso   1.00
O358   O     0.54819   0.82883   0.18003   0.00000  Uiso   1.00
O359   O     0.54819   0.82885   0.31218   0.00000  Uiso   1.00
O360   O     0.45181   0.83781   0.18782   0.00000  Uiso   1.00
C361   C     0.50049   0.83287   0.33654   0.00000  Uiso   1.00
C362   C     0.49951   0.83379   0.16346   0.00000  Uiso   1.00
Zn363  Zn    0.43565   0.83933   0.25521   0.00000  Uiso   1.00
Zn364  Zn    0.56435   0.82734   0.24479   0.00000  Uiso   1.00
C365   C     0.45033   0.81460   0.09544   0.00000  Uiso   1.00
C366   C     0.54967   0.85206   0.40456   0.00000  Uiso   1.00
C367   C     0.49878   0.83516   0.11574   0.00000  Uiso   1.00
C368   C     0.50122   0.83151   0.38427   0.00000  Uiso   1.00
C369   C     0.54741   0.85600   0.09064   0.00000  Uiso   1.00
C370   C     0.45259   0.81067   0.40936   0.00000  Uiso   1.00
C371   C     0.54858   0.85605   0.04415   0.00000  Uiso   1.00
C372   C     0.45142   0.81061   0.45585   0.00000  Uiso   1.00
C373   C     0.49984   0.83404   0.02331   0.00000  Uiso   1.00
C374   C     0.50016   0.83263   0.47669   0.00000  Uiso   1.00
C375   C     0.45071   0.81335   0.04914   0.00000  Uiso   1.00
C376   C     0.54929   0.85331   0.45086   0.00000  Uiso   1.00
C377   C     0.59706   0.87715   0.01800   0.00000  Uiso   1.00
C378   C     0.40294   0.78952   0.48200   0.00000  Uiso   1.00
C379   C     0.59704   0.87548   0.47151   0.00000  Uiso   1.00
C380   C     0.40296   0.79118   0.02849   0.00000  Uiso   1.00
H381   H     0.41309   0.79837   0.11567   0.00000  Uiso   1.00
H382   H     0.58691   0.86830   0.38433   0.00000  Uiso   1.00
H383   H     0.58393   0.87213   0.10782   0.00000  Uiso   1.00
H384   H     0.41607   0.79454   0.39218   0.00000  Uiso   1.00
H385   H     0.63447   0.89155   0.45146   0.00000  Uiso   1.00
H386   H     0.36554   0.77511   0.04854   0.00000  Uiso   1.00
C387   C     0.52315   0.98534   0.25059   0.00000  Uiso   1.00
C388   C     0.47685   0.68132   0.24941   0.00000  Uiso   1.00
N389   N     0.65011   0.81932   0.23783   0.00000  Uiso   1.00
N390   N     0.34989   0.84735   0.26217   0.00000  Uiso   1.00
H391   H     0.33808   0.79426   0.21626   0.00000  Uiso   1.00
H392   H     0.66192   0.87240   0.28374   0.00000  Uiso   1.00
Br393  Br    0.66427   0.90928   0.04340   0.00000  Uiso   1.00
Br394  Br    0.33573   0.75738   0.45660   0.00000  Uiso   1.00
N395   N     0.58057   0.67251   0.25795   0.00000  Uiso   1.00
O396   O     0.61949   0.67644   0.22435   0.00000  Uiso   1.00
O397   O     0.59414   0.68564   0.29828   0.00000  Uiso   1.00
N398   N     0.41943   0.99416   0.24205   0.00000  Uiso   1.00
O399   O     0.38051   0.99023   0.27565   0.00000  Uiso   1.00
O400   O     0.40586   0.98103   0.20172   0.00000  Uiso   1.00
O401   O     0.79642   0.91286   0.25298   0.00000  Uiso   1.00
O402   O     0.87025   0.75381   0.24702   0.00000  Uiso   1.00
O403   O     0.89280   0.90387   0.24519   0.00000  Uiso   1.00
O404   O     0.77387   0.76279   0.25482   0.00000  Uiso   1.00
C405   C     0.84842   0.93134   0.24832   0.00000  Uiso   1.00
C406   C     0.81825   0.73532   0.25168   0.00000  Uiso   1.00
O407   O     0.78514   0.83784   0.31997   0.00000  Uiso   1.00
O408   O     0.88153   0.82883   0.18003   0.00000  Uiso   1.00
O409   O     0.88152   0.82885   0.31218   0.00000  Uiso   1.00
O410   O     0.78515   0.83781   0.18782   0.00000  Uiso   1.00
C411   C     0.83383   0.83287   0.33654   0.00000  Uiso   1.00
C412   C     0.83284   0.83379   0.16346   0.00000  Uiso   1.00
Zn413  Zn    0.76898   0.83933   0.25521   0.00000  Uiso   1.00
Zn414  Zn    0.89769   0.82734   0.24479   0.00000  Uiso   1.00
C415   C     0.78366   0.81460   0.09544   0.00000  Uiso   1.00
C416   C     0.88301   0.85206   0.40456   0.00000  Uiso   1.00
C417   C     0.83211   0.83516   0.11574   0.00000  Uiso   1.00
C418   C     0.83456   0.83151   0.38427   0.00000  Uiso   1.00
C419   C     0.88074   0.85600   0.09064   0.00000  Uiso   1.00
C420   C     0.78592   0.81067   0.40936   0.00000  Uiso   1.00
C421   C     0.88192   0.85605   0.04415   0.00000  Uiso   1.00
C422   C     0.78475   0.81061   0.45585   0.00000  Uiso   1.00
C423   C     0.83317   0.83404   0.02331   0.00000  Uiso   1.00
C424   C     0.83349   0.83263   0.47669   0.00000  Uiso   1.00
C425   C     0.78404   0.81335   0.04914   0.00000  Uiso   1.00
C426   C     0.88262   0.85331   0.45086   0.00000  Uiso   1.00
C427   C     0.93040   0.87715   0.01800   0.00000  Uiso   1.00
C428   C     0.73627   0.78952   0.48200   0.00000  Uiso   1.00
C429   C     0.93037   0.87548   0.47151   0.00000  Uiso   1.00
C430   C     0.73629   0.79118   0.02849   0.00000  Uiso   1.00
H431   H     0.74642   0.79837   0.11567   0.00000  Uiso   1.00
H432   H     0.92025   0.86830   0.38433   0.00000  Uiso   1.00
H433   H     0.91727   0.87213   0.10782   0.00000  Uiso   1.00
H434   H     0.74940   0.79454   0.39218   0.00000  Uiso   1.00
H435   H     0.96780   0.89155   0.45146   0.00000  Uiso   1.00
H436   H     0.69887   0.77511   0.04854   0.00000  Uiso   1.00
C437   C     0.85648   0.98534   0.25059   0.00000  Uiso   1.00
C438   C     0.81018   0.68132   0.24941   0.00000  Uiso   1.00
N439   N     0.98344   0.81932   0.23783   0.00000  Uiso   1.00
N440   N     0.68322   0.84735   0.26217   0.00000  Uiso   1.00
H441   H     0.67141   0.79426   0.21626   0.00000  Uiso   1.00
H442   H     0.99525   0.87240   0.28374   0.00000  Uiso   1.00
Br443  Br    0.99761   0.90928   0.04340   0.00000  Uiso   1.00
Br444  Br    0.66906   0.75738   0.45660   0.00000  Uiso   1.00
N445   N     0.91391   0.67251   0.25795   0.00000  Uiso   1.00
O446   O     0.95282   0.67644   0.22435   0.00000  Uiso   1.00
O447   O     0.92747   0.68564   0.29828   0.00000  Uiso   1.00
N448   N     0.75276   0.99416   0.24205   0.00000  Uiso   1.00
O449   O     0.71384   0.99023   0.27565   0.00000  Uiso   1.00
O450   O     0.73920   0.98103   0.20172   0.00000  Uiso   1.00
O451   O     0.12975   0.24619   0.75298   0.00000  Uiso   1.00
O452   O     0.20358   0.08714   0.74702   0.00000  Uiso   1.00
O453   O     0.22613   0.23721   0.74519   0.00000  Uiso   1.00
O454   O     0.10720   0.09613   0.75482   0.00000  Uiso   1.00
C455   C     0.18175   0.26468   0.74832   0.00000  Uiso   1.00
C456   C     0.15158   0.06866   0.75168   0.00000  Uiso   1.00
O457   O     0.11847   0.17117   0.81997   0.00000  Uiso   1.00
O458   O     0.21486   0.16216   0.68003   0.00000  Uiso   1.00
O459   O     0.21485   0.16219   0.81218   0.00000  Uiso   1.00
O460   O     0.11848   0.17115   0.68782   0.00000  Uiso   1.00
C461   C     0.16716   0.16621   0.83654   0.00000  Uiso   1.00
C462   C     0.16617   0.16713   0.66346   0.00000  Uiso   1.00
Zn463  Zn    0.10231   0.17266   0.75521   0.00000  Uiso   1.00
Zn464  Zn    0.23102   0.16067   0.74479   0.00000  Uiso   1.00
C465   C     0.11699   0.14794   0.59544   0.00000  Uiso   1.00
C466   C     0.21634   0.18540   0.90456   0.00000  Uiso   1.00
C467   C     0.16544   0.16849   0.61574   0.00000  Uiso   1.00
C468   C     0.16789   0.16484   0.88427   0.00000  Uiso   1.00
C469   C     0.21408   0.18933   0.59064   0.00000  Uiso   1.00
C470   C     0.11926   0.14400   0.90936   0.00000  Uiso   1.00
C471   C     0.21525   0.18939   0.54415   0.00000  Uiso   1.00
C472   C     0.11808   0.14395   0.95585   0.00000  Uiso   1.00
C473   C     0.16651   0.16737   0.52331   0.00000  Uiso   1.00
C474   C     0.16683   0.16596   0.97669   0.00000  Uiso   1.00
C475   C     0.11738   0.14669   0.54914   0.00000  Uiso   1.00
C476   C     0.21596   0.18665   0.95086   0.00000  Uiso   1.00
C477   C     0.26373   0.21048   0.51800   0.00000  Uiso   1.00
C478   C     0.06960   0.12286   0.98200   0.00000  Uiso   1.00
C479   C     0.26371   0.20882   0.97151   0.00000  Uiso   1.00
C480   C     0.06963   0.12452   0.52849   0.00000  Uiso   1.00
H481   H     0.07975   0.13170   0.61567   0.00000  Uiso   1.00
H482   H     0.25358   0.20163   0.88433   0.00000  Uiso   1.00
H483   H     0.25060   0.20546   0.60782   0.00000  Uiso   1.00
H484   H     0.08273   0.12787   0.89218   0.00000  Uiso   1.00
H485   H     0.30113   0.22489   0.95146   0.00000  Uiso   1.00
H486   H     0.03220   0.10845   0.54854   0.00000  Uiso   1.00
C487   C     0.18982   0.31868   0.75059   0.00000  Uiso   1.00
C488   C     0.14352   0.01466   0.74941   0.00000  Uiso   1.00
N489   N     0.31678   0.15265   0.73783   0.00000  Uiso   1.00
N490   N     0.01656   0.18068   0.76217   0.00000  Uiso   1.00
H491   H     0.00475   0.12760   0.71626   0.00000  Uiso   1.00
H492   H     0.32859   0.20574   0.78374   0.00000  Uiso   1.00
Br493  Br    0.33094   0.24262   0.54340   0.00000  Uiso   1.00
Br494  Br    0.00239   0.09072   0.95660   0.00000  Uiso   1.00
N495   N     0.24724   0.00584   0.75795   0.00000  Uiso   1.00
O496   O     0.28616   0.00977   0.72435   0.00000  Uiso   1.00
O497   O     0.26081   0.01897   0.79828   0.00000  Uiso   1.00
N498   N     0.08609   0.32749   0.74205   0.00000  Uiso   1.00
O499   O     0.04718   0.32357   0.77565   0.00000  Uiso   1.00
O500   O     0.07253   0.31436   0.70172   0.00000  Uiso   1.00
O501   O     0.46308   0.24619   0.75298   0.00000  Uiso   1.00
O502   O     0.53692   0.08714   0.74702   0.00000  Uiso   1.00
O503   O     0.55946   0.23721   0.74519   0.00000  Uiso   1.00
O504   O     0.44054   0.09613   0.75482   0.00000  Uiso   1.00
C505   C     0.51508   0.26468   0.74832   0.00000  Uiso   1.00
C506   C     0.48492   0.06866   0.75168   0.00000  Uiso   1.00
O507   O     0.45181   0.17117   0.81997   0.00000  Uiso   1.00
O508   O     0.54819   0.16216   0.68003   0.00000  Uiso   1.00
O509   O     0.54819   0.16219   0.81218   0.00000  Uiso   1.00
O510   O     0.45181   0.17115   0.68782   0.00000  Uiso   1.00
C511   C     0.50049   0.16621   0.83654   0.00000  Uiso   1.00
C512   C     0.49951   0.16713   0.66346   0.00000  Uiso   1.00
Zn513  Zn    0.43565   0.17266   0.75521   0.00000  Uiso   1.00
Zn514  Zn    0.56435   0.16067   0.74479   0.00000  Uiso   1.00
C515   C     0.45033   0.14794   0.59544   0.00000  Uiso   1.00
C516   C     0.54967   0.18540   0.90456   0.00000  Uiso   1.00
C517   C     0.49878   0.16849   0.61574   0.00000  Uiso   1.00
C518   C     0.50122   0.16484   0.88427   0.00000  Uiso   1.00
C519   C     0.54741   0.18933   0.59064   0.00000  Uiso   1.00
C520   C     0.45259   0.14400   0.90936   0.00000  Uiso   1.00
C521   C     0.54858   0.18939   0.54415   0.00000  Uiso   1.00
C522   C     0.45142   0.14395   0.95585   0.00000  Uiso   1.00
C523   C     0.49984   0.16737   0.52331   0.00000  Uiso   1.00
C524   C     0.50016   0.16596   0.97669   0.00000  Uiso   1.00
C525   C     0.45071   0.14669   0.54914   0.00000  Uiso   1.00
C526   C     0.54929   0.18665   0.95086   0.00000  Uiso   1.00
C527   C     0.59706   0.21048   0.51800   0.00000  Uiso   1.00
C528   C     0.40294   0.12286   0.98200   0.00000  Uiso   1.00
C529   C     0.59704   0.20882   0.97151   0.00000  Uiso   1.00
C530   C     0.40296   0.12452   0.52849   0.00000  Uiso   1.00
H531   H     0.41309   0.13170   0.61567   0.00000  Uiso   1.00
H532   H     0.58691   0.20163   0.88433   0.00000  Uiso   1.00
H533   H     0.58393   0.20546   0.60782   0.00000  Uiso   1.00
H534   H     0.41607   0.12787   0.89218   0.00000  Uiso   1.00
H535   H     0.63447   0.22489   0.95146   0.00000  Uiso   1.00
H536   H     0.36554   0.10845   0.54854   0.00000  Uiso   1.00
C537   C     0.52315   0.31868   0.75059   0.00000  Uiso   1.00
C538   C     0.47685   0.01466   0.74941   0.00000  Uiso   1.00
N539   N     0.65011   0.15265   0.73783   0.00000  Uiso   1.00
N540   N     0.34989   0.18068   0.76217   0.00000  Uiso   1.00
H541   H     0.33808   0.12760   0.71626   0.00000  Uiso   1.00
H542   H     0.66192   0.20574   0.78374   0.00000  Uiso   1.00
Br543  Br    0.66427   0.24262   0.54340   0.00000  Uiso   1.00
Br544  Br    0.33573   0.09072   0.95660   0.00000  Uiso   1.00
N545   N     0.58057   0.00584   0.75795   0.00000  Uiso   1.00
O546   O     0.61949   0.00977   0.72435   0.00000  Uiso   1.00
O547   O     0.59414   0.01897   0.79828   0.00000  Uiso   1.00
N548   N     0.41943   0.32749   0.74205   0.00000  Uiso   1.00
O549   O     0.38051   0.32357   0.77565   0.00000  Uiso   1.00
O550   O     0.40586   0.31436   0.70172   0.00000  Uiso   1.00
O551   O     0.79642   0.24619   0.75298   0.00000  Uiso   1.00
O552   O     0.87025   0.08714   0.74702   0.00000  Uiso   1.00
O553   O     0.89280   0.23721   0.74519   0.00000  Uiso   1.00
O554   O     0.77387   0.09613   0.75482   0.00000  Uiso   1.00
C555   C     0.84842   0.26468   0.74832   0.00000  Uiso   1.00
C556   C     0.81825   0.06866   0.75168   0.00000  Uiso   1.00
O557   O     0.78514   0.17117   0.81997   0.00000  Uiso   1.00
O558   O     0.88153   0.16216   0.68003   0.00000  Uiso   1.00
O559   O     0.88152   0.16219   0.81218   0.00000  Uiso   1.00
O560   O     0.78515   0.17115   0.68782   0.00000  Uiso   1.00
C561   C     0.83383   0.16621   0.83654   0.00000  Uiso   1.00
C562   C     0.83284   0.16713   0.66346   0.00000  Uiso   1.00
Zn563  Zn    0.76898   0.17266   0.75521   0.00000  Uiso   1.00
Zn564  Zn    0.89769   0.16067   0.74479   0.00000  Uiso   1.00
C565   C     0.78366   0.14794   0.59544   0.00000  Uiso   1.00
C566   C     0.88301   0.18540   0.90456   0.00000  Uiso   1.00
C567   C     0.83211   0.16849   0.61574   0.00000  Uiso   1.00
C568   C     0.83456   0.16484   0.88427   0.00000  Uiso   1.00
C569   C     0.88074   0.18933   0.59064   0.00000  Uiso   1.00
C570   C     0.78592   0.14400   0.90936   0.00000  Uiso   1.00
C571   C     0.88192   0.18939   0.54415   0.00000  Uiso   1.00
C572   C     0.78475   0.14395   0.95585   0.00000  Uiso   1.00
C573   C     0.83317   0.16737   0.52331   0.00000  Uiso   1.00
C574   C     0.83349   0.16596   0.97669   0.00000  Uiso   1.00
C575   C     0.78404   0.14669   0.54914   0.00000  Uiso   1.00
C576   C     0.88262   0.18665   0.95086   0.00000  Uiso   1.00
C577   C     0.93040   0.21048   0.51800   0.00000  Uiso   1.00
C578   C     0.73627   0.12286   0.98200   0.00000  Uiso   1.00
C579   C     0.93037   0.20882   0.97151   0.00000  Uiso   1.00
C580   C     0.73629   0.12452   0.52849   0.00000  Uiso   1.00
H581   H     0.74642   0.13170   0.61567   0.00000  Uiso   1.00
H582   H     0.92025   0.20163   0.88433   0.00000  Uiso   1.00
H583   H     0.91727   0.20546   0.60782   0.00000  Uiso   1.00
H584   H     0.74940   0.12787   0.89218   0.00000  Uiso   1.00
H585   H     0.96780   0.22489   0.95146   0.00000  Uiso   1.00
H586   H     0.69887   0.10845   0.54854   0.00000  Uiso   1.00
C587   C     0.85648   0.31868   0.75059   0.00000  Uiso   1.00
C588   C     0.81018   0.01466   0.74941   0.00000  Uiso   1.00
N589   N     0.98344   0.15265   0.73783   0.00000  Uiso   1.00
N590   N     0.68322   0.18068   0.76217   0.00000  Uiso   1.00
H591   H     0.67141   0.12760   0.71626   0.00000  Uiso   1.00
H592   H     0.99525   0.20574   0.78374   0.00000  Uiso   1.00
Br593  Br    0.99761   0.24262   0.54340   0.00000  Uiso   1.00
Br594  Br    0.66906   0.09072   0.95660   0.00000  Uiso   1.00
N595   N     0.91391   0.00584   0.75795   0.00000  Uiso   1.00
O596   O     0.95282   0.00977   0.72435   0.00000  Uiso   1.00
O597   O     0.92747   0.01897   0.79828   0.00000  Uiso   1.00
N598   N     0.75276   0.32749   0.74205   0.00000  Uiso   1.00
O599   O     0.71384   0.32357   0.77565   0.00000  Uiso   1.00
O600   O     0.73920   0.31436   0.70172   0.00000  Uiso   1.00
O601   O     0.12975   0.57952   0.75298   0.00000  Uiso   1.00
O602   O     0.20358   0.42048   0.74702   0.00000  Uiso   1.00
O603   O     0.22613   0.57054   0.74519   0.00000  Uiso   1.00
O604   O     0.10720   0.42946   0.75482   0.00000  Uiso   1.00
C605   C     0.18175   0.59801   0.74832   0.00000  Uiso   1.00
C606   C     0.15158   0.40199   0.75168   0.00000  Uiso   1.00
O607   O     0.11847   0.50450   0.81997   0.00000  Uiso   1.00
O608   O     0.21486   0.49550   0.68003   0.00000  Uiso   1.00
O609   O     0.21485   0.49552   0.81218   0.00000  Uiso   1.00
O610   O     0.11848   0.50448   0.68782   0.00000  Uiso   1.00
C611   C     0.16716   0.49954   0.83654   0.00000  Uiso   1.00
C612   C     0.16617   0.50046   0.66346   0.00000  Uiso   1.00
Zn613  Zn    0.10231   0.50600   0.75521   0.00000  Uiso   1.00
Zn614  Zn    0.23102   0.49400   0.74479   0.00000  Uiso   1.00
C615   C     0.11699   0.48127   0.59544   0.00000  Uiso   1.00
C616   C     0.21634   0.51873   0.90456   0.00000  Uiso   1.00
C617   C     0.16544   0.50182   0.61574   0.00000  Uiso   1.00
C618   C     0.16789   0.49818   0.88427   0.00000  Uiso   1.00
C619   C     0.21408   0.52267   0.59064   0.00000  Uiso   1.00
C620   C     0.11926   0.47733   0.90936   0.00000  Uiso   1.00
C621   C     0.21525   0.52272   0.54415   0.00000  Uiso   1.00
C622   C     0.11808   0.47728   0.95585   0.00000  Uiso   1.00
C623   C     0.16651   0.50071   0.52331   0.00000  Uiso   1.00
C624   C     0.16683   0.49929   0.97669   0.00000  Uiso   1.00
C625   C     0.11738   0.48002   0.54914   0.00000  Uiso   1.00
C626   C     0.21596   0.51998   0.95086   0.00000  Uiso   1.00
C627   C     0.26373   0.54381   0.51800   0.00000  Uiso   1.00
C628   C     0.06960   0.45619   0.98200   0.00000  Uiso   1.00
C629   C     0.26371   0.54215   0.97151   0.00000  Uiso   1.00
C630   C     0.06963   0.45785   0.52849   0.00000  Uiso   1.00
H631   H     0.07975   0.46504   0.61567   0.00000  Uiso   1.00
H632   H     0.25358   0.53496   0.88433   0.00000  Uiso   1.00
H633   H     0.25060   0.53879   0.60782   0.00000  Uiso   1.00
H634   H     0.08273   0.46121   0.89218   0.00000  Uiso   1.00
H635   H     0.30113   0.55822   0.95146   0.00000  Uiso   1.00
H636   H     0.03220   0.44178   0.54854   0.00000  Uiso   1.00
C637   C     0.18982   0.65201   0.75059   0.00000  Uiso   1.00
C638   C     0.14352   0.34799   0.74941   0.00000  Uiso   1.00
N639   N     0.31678   0.48598   0.73783   0.00000  Uiso   1.00
N640   N     0.01656   0.51402   0.76217   0.00000  Uiso   1.00
H641   H     0.00475   0.46093   0.71626   0.00000  Uiso   1.00
H642   H     0.32859   0.53907   0.78374   0.00000  Uiso   1.00
Br643  Br    0.33094   0.57595   0.54340   0.00000  Uiso   1.00
Br644  Br    0.00239   0.42405   0.95660   0.00000  Uiso   1.00
N645   N     0.24724   0.33918   0.75795   0.00000  Uiso   1.00
O646   O     0.28616   0.34310   0.72435   0.00000  Uiso   1.00
O647   O     0.26081   0.35231   0.79828   0.00000  Uiso   1.00
N648   N     0.08609   0.66082   0.74205   0.00000  Uiso   1.00
O649   O     0.04718   0.65690   0.77565   0.00000  Uiso   1.00
O650   O     0.07253   0.64769   0.70172   0.00000  Uiso   1.00
O651   O     0.46308   0.57952   0.75298   0.00000  Uiso   1.00
O652   O     0.53692   0.42048   0.74702   0.00000  Uiso   1.00
O653   O     0.55946   0.57054   0.74519   0.00000  Uiso   1.00
O654   O     0.44054   0.42946   0.75482   0.00000  Uiso   1.00
C655   C     0.51508   0.59801   0.74832   0.00000  Uiso   1.00
C656   C     0.48492   0.40199   0.75168   0.00000  Uiso   1.00
O657   O     0.45181   0.50450   0.81997   0.00000  Uiso   1.00
O658   O     0.54819   0.49550   0.68003   0.00000  Uiso   1.00
O659   O     0.54819   0.49552   0.81218   0.00000  Uiso   1.00
O660   O     0.45181   0.50448   0.68782   0.00000  Uiso   1.00
C661   C     0.50049   0.49954   0.83654   0.00000  Uiso   1.00
C662   C     0.49951   0.50046   0.66346   0.00000  Uiso   1.00
Zn663  Zn    0.43565   0.50600   0.75521   0.00000  Uiso   1.00
Zn664  Zn    0.56435   0.49400   0.74479   0.00000  Uiso   1.00
C665   C     0.45033   0.48127   0.59544   0.00000  Uiso   1.00
C666   C     0.54967   0.51873   0.90456   0.00000  Uiso   1.00
C667   C     0.49878   0.50182   0.61574   0.00000  Uiso   1.00
C668   C     0.50122   0.49818   0.88427   0.00000  Uiso   1.00
C669   C     0.54741   0.52267   0.59064   0.00000  Uiso   1.00
C670   C     0.45259   0.47733   0.90936   0.00000  Uiso   1.00
C671   C     0.54858   0.52272   0.54415   0.00000  Uiso   1.00
C672   C     0.45142   0.47728   0.95585   0.00000  Uiso   1.00
C673   C     0.49984   0.50071   0.52331   0.00000  Uiso   1.00
C674   C     0.50016   0.49929   0.97669   0.00000  Uiso   1.00
C675   C     0.45071   0.48002   0.54914   0.00000  Uiso   1.00
C676   C     0.54929   0.51998   0.95086   0.00000  Uiso   1.00
C677   C     0.59706   0.54381   0.51800   0.00000  Uiso   1.00
C678   C     0.40294   0.45619   0.98200   0.00000  Uiso   1.00
C679   C     0.59704   0.54215   0.97151   0.00000  Uiso   1.00
C680   C     0.40296   0.45785   0.52849   0.00000  Uiso   1.00
H681   H     0.41309   0.46504   0.61567   0.00000  Uiso   1.00
H682   H     0.58691   0.53496   0.88433   0.00000  Uiso   1.00
H683   H     0.58393   0.53879   0.60782   0.00000  Uiso   1.00
H684   H     0.41607   0.46121   0.89218   0.00000  Uiso   1.00
H685   H     0.63447   0.55822   0.95146   0.00000  Uiso   1.00
H686   H     0.36554   0.44178   0.54854   0.00000  Uiso   1.00
C687   C     0.52315   0.65201   0.75059   0.00000  Uiso   1.00
C688   C     0.47685   0.34799   0.74941   0.00000  Uiso   1.00
N689   N     0.65011   0.48598   0.73783   0.00000  Uiso   1.00
N690   N     0.34989   0.51402   0.76217   0.00000  Uiso   1.00
H691   H     0.33808   0.46093   0.71626   0.00000  Uiso   1.00
H692   H     0.66192   0.53907   0.78374   0.00000  Uiso   1.00
Br693  Br    0.66427   0.57595   0.54340   0.00000  Uiso   1.00
Br694  Br    0.33573   0.42405   0.95660   0.00000  Uiso   1.00
N695   N     0.58057   0.33918   0.75795   0.00000  Uiso   1.00
O696   O     0.61949   0.34310   0.72435   0.00000  Uiso   1.00
O697   O     0.59414   0.35231   0.79828   0.00000  Uiso   1.00
N698   N     0.41943   0.66082   0.74205   0.00000  Uiso   1.00
O699   O     0.38051   0.65690   0.77565   0.00000  Uiso   1.00
O700   O     0.40586   0.64769   0.70172   0.00000  Uiso   1.00
O701   O     0.79642   0.57952   0.75298   0.00000  Uiso   1.00
O702   O     0.87025   0.42048   0.74702   0.00000  Uiso   1.00
O703   O     0.89280   0.57054   0.74519   0.00000  Uiso   1.00
O704   O     0.77387   0.42946   0.75482   0.00000  Uiso   1.00
C705   C     0.84842   0.59801   0.74832   0.00000  Uiso   1.00
C706   C     0.81825   0.40199   0.75168   0.00000  Uiso   1.00
O707   O     0.78514   0.50450   0.81997   0.00000  Uiso   1.00
O708   O     0.88153   0.49550   0.68003   0.00000  Uiso   1.00
O709   O     0.88152   0.49552   0.81218   0.00000  Uiso   1.00
O710   O     0.78515   0.50448   0.68782   0.00000  Uiso   1.00
C711   C     0.83383   0.49954   0.83654   0.00000  Uiso   1.00
C712   C     0.83284   0.50046   0.66346   0.00000  Uiso   1.00
Zn713  Zn    0.76898   0.50600   0.75521   0.00000  Uiso   1.00
Zn714  Zn    0.89769   0.49400   0.74479   0.00000  Uiso   1.00
C715   C     0.78366   0.48127   0.59544   0.00000  Uiso   1.00
C716   C     0.88301   0.51873   0.90456   0.00000  Uiso   1.00
C717   C     0.83211   0.50182   0.61574   0.00000  Uiso   1.00
C718   C     0.83456   0.49818   0.88427   0.00000  Uiso   1.00
C719   C     0.88074   0.52267   0.59064   0.00000  Uiso   1.00
C720   C     0.78592   0.47733   0.90936   0.00000  Uiso   1.00
C721   C     0.88192   0.52272   0.54415   0.00000  Uiso   1.00
C722   C     0.78475   0.47728   0.95585   0.00000  Uiso   1.00
C723   C     0.83317   0.50071   0.52331   0.00000  Uiso   1.00
C724   C     0.83349   0.49929   0.97669   0.00000  Uiso   1.00
C725   C     0.78404   0.48002   0.54914   0.00000  Uiso   1.00
C726   C     0.88262   0.51998   0.95086   0.00000  Uiso   1.00
C727   C     0.93040   0.54381   0.51800   0.00000  Uiso   1.00
C728   C     0.73627   0.45619   0.98200   0.00000  Uiso   1.00
C729   C     0.93037   0.54215   0.97151   0.00000  Uiso   1.00
C730   C     0.73629   0.45785   0.52849   0.00000  Uiso   1.00
H731   H     0.74642   0.46504   0.61567   0.00000  Uiso   1.00
H732   H     0.92025   0.53496   0.88433   0.00000  Uiso   1.00
H733   H     0.91727   0.53879   0.60782   0.00000  Uiso   1.00
H734   H     0.74940   0.46121   0.89218   0.00000  Uiso   1.00
H735   H     0.96780   0.55822   0.95146   0.00000  Uiso   1.00
H736   H     0.69887   0.44178   0.54854   0.00000  Uiso   1.00
C737   C     0.85648   0.65201   0.75059   0.00000  Uiso   1.00
C738   C     0.81018   0.34799   0.74941   0.00000  Uiso   1.00
N739   N     0.98344   0.48598   0.73783   0.00000  Uiso   1.00
N740   N     0.68322   0.51402   0.76217   0.00000  Uiso   1.00
H741   H     0.67141   0.46093   0.71626   0.00000  Uiso   1.00
H742   H     0.99525   0.53907   0.78374   0.00000  Uiso   1.00
Br743  Br    0.99761   0.57595   0.54340   0.00000  Uiso   1.00
Br744  Br    0.66906   0.42405   0.95660   0.00000  Uiso   1.00
N745   N     0.91391   0.33918   0.75795   0.00000  Uiso   1.00
O746   O     0.95282   0.34310   0.72435   0.00000  Uiso   1.00
O747   O     0.92747   0.35231   0.79828   0.00000  Uiso   1.00
N748   N     0.75276   0.66082   0.74205   0.00000  Uiso   1.00
O749   O     0.71384   0.65690   0.77565   0.00000  Uiso   1.00
O750   O     0.73920   0.64769   0.70172   0.00000  Uiso   1.00
O751   O     0.12975   0.91286   0.75298   0.00000  Uiso   1.00
O752   O     0.20358   0.75381   0.74702   0.00000  Uiso   1.00
O753   O     0.22613   0.90387   0.74519   0.00000  Uiso   1.00
O754   O     0.10720   0.76279   0.75482   0.00000  Uiso   1.00
C755   C     0.18175   0.93134   0.74832   0.00000  Uiso   1.00
C756   C     0.15158   0.73532   0.75168   0.00000  Uiso   1.00
O757   O     0.11847   0.83784   0.81997   0.00000  Uiso   1.00
O758   O     0.21486   0.82883   0.68003   0.00000  Uiso   1.00
O759   O     0.21485   0.82885   0.81218   0.00000  Uiso   1.00
O760   O     0.11848   0.83781   0.68782   0.00000  Uiso   1.00
C761   C     0.16716   0.83287   0.83654   0.00000  Uiso   1.00
C762   C     0.16617   0.83379   0.66346   0.00000  Uiso   1.00
Zn763  Zn    0.10231   0.83933   0.75521   0.00000  Uiso   1.00
Zn764  Zn    0.23102   0.82734   0.74479   0.00000  Uiso   1.00
C765   C     0.11699   0.81460   0.59544   0.00000  Uiso   1.00
C766   C     0.21634   0.85206   0.90456   0.00000  Uiso   1.00
C767   C     0.16544   0.83516   0.61574   0.00000  Uiso   1.00
C768   C     0.16789   0.83151   0.88427   0.00000  Uiso   1.00
C769   C     0.21408   0.85600   0.59064   0.00000  Uiso   1.00
C770   C     0.11926   0.81067   0.90936   0.00000  Uiso   1.00
C771   C     0.21525   0.85605   0.54415   0.00000  Uiso   1.00
C772   C     0.11808   0.81061   0.95585   0.00000  Uiso   1.00
C773   C     0.16651   0.83404   0.52331   0.00000  Uiso   1.00
C774   C     0.16683   0.83263   0.97669   0.00000  Uiso   1.00
C775   C     0.11738   0.81335   0.54914   0.00000  Uiso   1.00
C776   C     0.21596   0.85331   0.95086   0.00000  Uiso   1.00
C777   C     0.26373   0.87715   0.51800   0.00000  Uiso   1.00
C778   C     0.06960   0.78952   0.98200   0.00000  Uiso   1.00
C779   C     0.26371   0.87548   0.97151   0.00000  Uiso   1.00
C780   C     0.06963   0.79118   0.52849   0.00000  Uiso   1.00
H781   H     0.07975   0.79837   0.61567   0.00000  Uiso   1.00
H782   H     0.25358   0.86830   0.88433   0.00000  Uiso   1.00
H783   H     0.25060   0.87213   0.60782   0.00000  Uiso   1.00
H784   H     0.08273   0.79454   0.89218   0.00000  Uiso   1.00
H785   H     0.30113   0.89155   0.95146   0.00000  Uiso   1.00
H786   H     0.03220   0.77511   0.54854   0.00000  Uiso   1.00
C787   C     0.18982   0.98534   0.75059   0.00000  Uiso   1.00
C788   C     0.14352   0.68132   0.74941   0.00000  Uiso   1.00
N789   N     0.31678   0.81932   0.73783   0.00000  Uiso   1.00
N790   N     0.01656   0.84735   0.76217   0.00000  Uiso   1.00
H791   H     0.00475   0.79426   0.71626   0.00000  Uiso   1.00
H792   H     0.32859   0.87240   0.78374   0.00000  Uiso   1.00
Br793  Br    0.33094   0.90928   0.54340   0.00000  Uiso   1.00
Br794  Br    0.00239   0.75738   0.95660   0.00000  Uiso   1.00
N795   N     0.24724   0.67251   0.75795   0.00000  Uiso   1.00
O796   O     0.28616   0.67644   0.72435   0.00000  Uiso   1.00
O797   O     0.26081   0.68564   0.79828   0.00000  Uiso   1.00
N798   N     0.08609   0.99416   0.74205   0.00000  Uiso   1.00
O799   O     0.04718   0.99023   0.77565   0.00000  Uiso   1.00
O800   O     0.07253   0.98103   0.70172   0.00000  Uiso   1.00
O801   O     0.46308   0.91286   0.75298   0.00000  Uiso   1.00
O802   O     0.53692   0.75381   0.74702   0.00000  Uiso   1.00
O803   O     0.55946   0.90387   0.74519   0.00000  Uiso   1.00
O804   O     0.44054   0.76279   0.75482   0.00000  Uiso   1.00
C805   C     0.51508   0.93134   0.74832   0.00000  Uiso   1.00
C806   C     0.48492   0.73532   0.75168   0.00000  Uiso   1.00
O807   O     0.45181   0.83784   0.81997   0.00000  Uiso   1.00
O808   O     0.54819   0.82883   0.68003   0.00000  Uiso   1.00
O809   O     0.54819   0.82885   0.81218   0.00000  Uiso   1.00
O810   O     0.45181   0.83781   0.68782   0.00000  Uiso   1.00
C811   C     0.50049   0.83287   0.83654   0.00000  Uiso   1.00
C812   C     0.49951   0.83379   0.66346   0.00000  Uiso   1.00
Zn813  Zn    0.43565   0.83933   0.75521   0.00000  Uiso   1.00
Zn814  Zn    0.56435   0.82734   0.74479   0.00000  Uiso   1.00
C815   C     0.45033   0.81460   0.59544   0.00000  Uiso   1.00
C816   C     0.54967   0.85206   0.90456   0.00000  Uiso   1.00
C817   C     0.49878   0.83516   0.61574   0.00000  Uiso   1.00
C818   C     0.50122   0.83151   0.88427   0.00000  Uiso   1.00
C819   C     0.54741   0.85600   0.59064   0.00000  Uiso   1.00
C820   C     0.45259   0.81067   0.90936   0.00000  Uiso   1.00
C821   C     0.54858   0.85605   0.54415   0.00000  Uiso   1.00
C822   C     0.45142   0.81061   0.95585   0.00000  Uiso   1.00
C823   C     0.49984   0.83404   0.52331   0.00000  Uiso   1.00
C824   C     0.50016   0.83263   0.97669   0.00000  Uiso   1.00
C825   C     0.45071   0.81335   0.54914   0.00000  Uiso   1.00
C826   C     0.54929   0.85331   0.95086   0.00000  Uiso   1.00
C827   C     0.59706   0.87715   0.51800   0.00000  Uiso   1.00
C828   C     0.40294   0.78952   0.98200   0.00000  Uiso   1.00
C829   C     0.59704   0.87548   0.97151   0.00000  Uiso   1.00
C830   C     0.40296   0.79118   0.52849   0.00000  Uiso   1.00
H831   H     0.41309   0.79837   0.61567   0.00000  Uiso   1.00
H832   H     0.58691   0.86830   0.88433   0.00000  Uiso   1.00
H833   H     0.58393   0.87213   0.60782   0.00000  Uiso   1.00
H834   H     0.41607   0.79454   0.89218   0.00000  Uiso   1.00
H835   H     0.63447   0.89155   0.95146   0.00000  Uiso   1.00
H836   H     0.36554   0.77511   0.54854   0.00000  Uiso   1.00
C837   C     0.52315   0.98534   0.75059   0.00000  Uiso   1.00
C838   C     0.47685   0.68132   0.74941   0.00000  Uiso   1.00
N839   N     0.65011   0.81932   0.73783   0.00000  Uiso   1.00
N840   N     0.34989   0.84735   0.76217   0.00000  Uiso   1.00
H841   H     0.33808   0.79426   0.71626   0.00000  Uiso   1.00
H842   H     0.66192   0.87240   0.78374   0.00000  Uiso   1.00
Br843  Br    0.66427   0.90928   0.54340   0.00000  Uiso   1.00
Br844  Br    0.33573   0.75738   0.95660   0.00000  Uiso   1.00
N845   N     0.58057   0.67251   0.75795   0.00000  Uiso   1.00
O846   O     0.61949   0.67644   0.72435   0.00000  Uiso   1.00
O847   O     0.59414   0.68564   0.79828   0.00000  Uiso   1.00
N848   N     0.41943   0.99416   0.74205   0.00000  Uiso   1.00
O849   O     0.38051   0.99023   0.77565   0.00000  Uiso   1.00
O850   O     0.40586   0.98103   0.70172   0.00000  Uiso   1.00
O851   O     0.79642   0.91286   0.75298   0.00000  Uiso   1.00
O852   O     0.87025   0.75381   0.74702   0.00000  Uiso   1.00
O853   O     0.89280   0.90387   0.74519   0.00000  Uiso   1.00
O854   O     0.77387   0.76279   0.75482   0.00000  Uiso   1.00
C855   C     0.84842   0.93134   0.74832   0.00000  Uiso   1.00
C856   C     0.81825   0.73532   0.75168   0.00000  Uiso   1.00
O857   O     0.78514   0.83784   0.81997   0.00000  Uiso   1.00
O858   O     0.88153   0.82883   0.68003   0.00000  Uiso   1.00
O859   O     0.88152   0.82885   0.81218   0.00000  Uiso   1.00
O860   O     0.78515   0.83781   0.68782   0.00000  Uiso   1.00
C861   C     0.83383   0.83287   0.83654   0.00000  Uiso   1.00
C862   C     0.83284   0.83379   0.66346   0.00000  Uiso   1.00
Zn863  Zn    0.76898   0.83933   0.75521   0.00000  Uiso   1.00
Zn864  Zn    0.89769   0.82734   0.74479   0.00000  Uiso   1.00
C865   C     0.78366   0.81460   0.59544   0.00000  Uiso   1.00
C866   C     0.88301   0.85206   0.90456   0.00000  Uiso   1.00
C867   C     0.83211   0.83516   0.61574   0.00000  Uiso   1.00
C868   C     0.83456   0.83151   0.88427   0.00000  Uiso   1.00
C869   C     0.88074   0.85600   0.59064   0.00000  Uiso   1.00
C870   C     0.78592   0.81067   0.90936   0.00000  Uiso   1.00
C871   C     0.88192   0.85605   0.54415   0.00000  Uiso   1.00
C872   C     0.78475   0.81061   0.95585   0.00000  Uiso   1.00
C873   C     0.83317   0.83404   0.52331   0.00000  Uiso   1.00
C874   C     0.83349   0.83263   0.97669   0.00000  Uiso   1.00
C875   C     0.78404   0.81335   0.54914   0.00000  Uiso   1.00
C876   C     0.88262   0.85331   0.95086   0.00000  Uiso   1.00
C877   C     0.93040   0.87715   0.51800   0.00000  Uiso   1.00
C878   C     0.73627   0.78952   0.98200   0.00000  Uiso   1.00
C879   C     0.93037   0.87548   0.97151   0.00000  Uiso   1.00
C880   C     0.73629   0.79118   0.52849   0.00000  Uiso   1.00
H881   H     0.74642   0.79837   0.61567   0.00000  Uiso   1.00
H882   H     0.92025   0.86830   0.88433   0.00000  Uiso   1.00
H883   H     0.91727   0.87213   0.60782   0.00000  Uiso   1.00
H884   H     0.74940   0.79454   0.89218   0.00000  Uiso   1.00
H885   H     0.96780   0.89155   0.95146   0.00000  Uiso   1.00
H886   H     0.69887   0.77511   0.54854   0.00000  Uiso   1.00
C887   C     0.85648   0.98534   0.75059   0.00000  Uiso   1.00
C888   C     0.81018   0.68132   0.74941   0.00000  Uiso   1.00
N889   N     0.98344   0.81932   0.73783   0.00000  Uiso   1.00
N890   N     0.68322   0.84735   0.76217   0.00000  Uiso   1.00
H891   H     0.67141   0.79426   0.71626   0.00000  Uiso   1.00
H892   H     0.99525   0.87240   0.78374   0.00000  Uiso   1.00
Br893  Br    0.99761   0.90928   0.54340   0.00000  Uiso   1.00
Br894  Br    0.66906   0.75738   0.95660   0.00000  Uiso   1.00
N895   N     0.91391   0.67251   0.75795   0.00000  Uiso   1.00
O896   O     0.95282   0.67644   0.72435   0.00000  Uiso   1.00
O897   O     0.92747   0.68564   0.79828   0.00000  Uiso   1.00
N898   N     0.75276   0.99416   0.74205   0.00000  Uiso   1.00
O899   O     0.71384   0.99023   0.77565   0.00000  Uiso   1.00
O900   O     0.73920   0.98103   0.70172   0.00000  Uiso   1.00
loop_
_geom_bond_atom_site_label_1
_geom_bond_atom_site_label_2
_geom_bond_distance
_geom_bond_site_symmetry_2
_ccdc_geom_bond_type
O1     C5      1.271   .     A
O1     Zn13    1.978   .     S
O2     C6      1.271   .     A
O2     Zn14    1.978   .     S
O3     Zn14    2.002   .     S
O3     C5      1.291   .     A
O4     C6      1.291   .     A
O4     Zn13    2.002   .     S
C5     C37     1.406   .     S
C6     C38     1.406   .     S
O7     C11     1.286   .     A
O7     Zn13    2.001   .     S
O8     C12     1.286   .     A
O8     Zn14    2.001   .     S
O9     Zn14    2.019   .     S
O9     C11     1.288   .     A
O10    C12     1.288   .     A
O10    Zn13    2.019   .     S
C11    C18     1.429   .     S
C12    C17     1.429   .     S
Zn13   N40     2.014   .     S
Zn14   N39     2.014   .     S
C15    H31     1.085   .     S
C15    C25     1.382   .     A
C15    C17     1.391   .     A
C16    H32     1.085   .     S
C16    C26     1.382   .     A
C16    C18     1.391   .     A
C17    C19     1.395   .     A
C18    C20     1.395   .     A
C19    C21     1.387   .     A
C19    H33     1.082   .     S
C20    H34     1.082   .     S
C20    C22     1.387   .     A
C21    C27     1.410   .     A
C21    C23     1.417   .     A
C22    C28     1.410   .     A
C22    C24     1.417   .     A
C23    C25     1.413   .     A
C23    C474    1.392   1_554 S
C24    C26     1.413   .     A
C24    C473    1.392   .     S
C25    C30     1.397   .     A
C26    C29     1.397   .     A
C27    Br43    1.924   .     S
C27    C479    1.389   1_554 S
C28    Br44    1.924   .     S
C28    C480    1.389   .     S
C29    H35     1.084   .     S
C29    C477    1.389   .     S
C30    H36     1.084   .     S
C30    C478    1.389   1_554 S
C37    C188    1.364   .     S
C37    N195    1.437   .     S
C38    C337    1.364   1_545 S
C38    N348    1.437   1_545 S
N39    N90     1.281   .     S
N39    H91     1.029   .     S
N40    N139    1.281   1_455 S
N40    H142    1.029   1_455 S
H41    N139    1.029   1_455 S
H42    N90     1.029   .     S
N45    O46     1.300   .     A
N45    O47     1.301   .     A
N45    C337    1.437   1_545 S
N48    O50     1.301   .     A
N48    O49     1.300   .     A
N48    C188    1.437   .     S
O51    C55     1.271   .     A
O51    Zn63    1.978   .     S
O52    C56     1.271   .     A
O52    Zn64    1.978   .     S
O53    Zn64    2.002   .     S
O53    C55     1.291   .     A
O54    C56     1.291   .     A
O54    Zn63    2.002   .     S
C55    C87     1.406   .     S
C56    C88     1.406   .     S
O57    C61     1.286   .     A
O57    Zn63    2.001   .     S
O58    C62     1.286   .     A
O58    Zn64    2.001   .     S
O59    Zn64    2.019   .     S
O59    C61     1.288   .     A
O60    C62     1.288   .     A
O60    Zn63    2.019   .     S
C61    C68     1.429   .     S
C62    C67     1.429   .     S
Zn63   N90     2.014   .     S
Zn64   N89     2.014   .     S
C65    H81     1.085   .     S
C65    C75     1.382   .     A
C65    C67     1.391   .     A
C66    H82     1.085   .     S
C66    C76     1.382   .     A
C66    C68     1.391   .     A
C67    C69     1.395   .     A
C68    C70     1.395   .     A
C69    C71     1.387   .     A
C69    H83     1.082   .     S
C70    H84     1.082   .     S
C70    C72     1.387   .     A
C71    C77     1.410   .     A
C71    C73     1.417   .     A
C72    C78     1.410   .     A
C72    C74     1.417   .     A
C73    C75     1.413   .     A
C73    C524    1.392   1_554 S
C74    C76     1.413   .     A
C74    C523    1.392   .     S
C75    C80     1.397   .     A
C76    C79     1.397   .     A
C77    Br93    1.924   .     S
C77    C529    1.389   1_554 S
C78    Br94    1.924   .     S
C78    C530    1.389   .     S
C79    H85     1.084   .     S
C79    C527    1.389   .     S
C80    H86     1.084   .     S
C80    C528    1.389   1_554 S
C87    C238    1.364   .     S
C87    N245    1.437   .     S
C88    C387    1.364   1_545 S
C88    N398    1.437   1_545 S
N89    N140    1.281   .     S
N89    H141    1.029   .     S
H92    N140    1.029   .     S
N95    O96     1.300   .     A
N95    O97     1.301   .     A
N95    C387    1.437   1_545 S
N98    O100    1.301   .     A
N98    O99     1.300   .     A
N98    C238    1.437   .     S
O101   C105    1.271   .     A
O101   Zn113   1.978   .     S
O102   C106    1.271   .     A
O102   Zn114   1.978   .     S
O103   Zn114   2.002   .     S
O103   C105    1.291   .     A
O104   C106    1.291   .     A
O104   Zn113   2.002   .     S
C105   C137    1.406   .     S
C106   C138    1.406   .     S
O107   C111    1.286   .     A
O107   Zn113   2.001   .     S
O108   C112    1.286   .     A
O108   Zn114   2.001   .     S
O109   Zn114   2.019   .     S
O109   C111    1.288   .     A
O110   C112    1.288   .     A
O110   Zn113   2.019   .     S
C111   C118    1.429   .     S
C112   C117    1.429   .     S
Zn113  N140    2.014   .     S
Zn114  N139    2.014   .     S
C115   H131    1.085   .     S
C115   C125    1.382   .     A
C115   C117    1.391   .     A
C116   H132    1.085   .     S
C116   C126    1.382   .     A
C116   C118    1.391   .     A
C117   C119    1.395   .     A
C118   C120    1.395   .     A
C119   C121    1.387   .     A
C119   H133    1.082   .     S
C120   H134    1.082   .     S
C120   C122    1.387   .     A
C121   C127    1.410   .     A
C121   C123    1.417   .     A
C122   C128    1.410   .     A
C122   C124    1.417   .     A
C123   C125    1.413   .     A
C123   C574    1.392   1_554 S
C124   C126    1.413   .     A
C124   C573    1.392   .     S
C125   C130    1.397   .     A
C126   C129    1.397   .     A
C127   Br143   1.924   .     S
C127   C579    1.389   1_554 S
C128   Br144   1.924   .     S
C128   C580    1.389   .     S
C129   H135    1.084   .     S
C129   C577    1.389   .     S
C130   H136    1.084   .     S
C130   C578    1.389   1_554 S
C137   C288    1.364   .     S
C137   N295    1.437   .     S
C138   C437    1.364   1_545 S
C138   N448    1.437   1_545 S
N139   N40     1.281   1_655 S
N139   H41     1.029   1_655 S
H142   N40     1.029   1_655 S
N145   O146    1.300   .     A
N145   O147    1.301   .     A
N145   C437    1.437   1_545 S
N148   O150    1.301   .     A
N148   O149    1.300   .     A
N148   C288    1.437   .     S
O151   C155    1.271   .     A
O151   Zn163   1.978   .     S
O152   C156    1.271   .     A
O152   Zn164   1.978   .     S
O153   Zn164   2.002   .     S
O153   C155    1.291   .     A
O154   C156    1.291   .     A
O154   Zn163   2.002   .     S
C155   C187    1.406   .     S
C156   C188    1.406   .     S
O157   C161    1.286   .     A
O157   Zn163   2.001   .     S
O158   C162    1.286   .     A
O158   Zn164   2.001   .     S
O159   Zn164   2.019   .     S
O159   C161    1.288   .     A
O160   C162    1.288   .     A
O160   Zn163   2.019   .     S
C161   C168    1.429   .     S
C162   C167    1.429   .     S
Zn163  N190    2.014   .     S
Zn164  N189    2.014   .     S
C165   H181    1.085   .     S
C165   C175    1.382   .     A
C165   C167    1.391   .     A
C166   H182    1.085   .     S
C166   C176    1.382   .     A
C166   C168    1.391   .     A
C167   C169    1.395   .     A
C168   C170    1.395   .     A
C169   C171    1.387   .     A
C169   H183    1.082   .     S
C170   H184    1.082   .     S
C170   C172    1.387   .     A
C171   C177    1.410   .     A
C171   C173    1.417   .     A
C172   C178    1.410   .     A
C172   C174    1.417   .     A
C173   C175    1.413   .     A
C173   C624    1.392   1_554 S
C174   C176    1.413   .     A
C174   C623    1.392   .     S
C175   C180    1.397   .     A
C176   C179    1.397   .     A
C177   Br193   1.924   .     S
C177   C629    1.389   1_554 S
C178   Br194   1.924   .     S
C178   C630    1.389   .     S
C179   H185    1.084   .     S
C179   C627    1.389   .     S
C180   H186    1.084   .     S
C180   C628    1.389   1_554 S
C187   C338    1.364   .     S
C187   N345    1.437   .     S
N189   N240    1.281   .     S
N189   H241    1.029   .     S
N190   N289    1.281   1_455 S
N190   H292    1.029   1_455 S
H191   N289    1.029   1_455 S
H192   N240    1.029   .     S
N195   O196    1.300   .     A
N195   O197    1.301   .     A
N198   O200    1.301   .     A
N198   O199    1.300   .     A
N198   C338    1.437   .     S
O201   C205    1.271   .     A
O201   Zn213   1.978   .     S
O202   C206    1.271   .     A
O202   Zn214   1.978   .     S
O203   Zn214   2.002   .     S
O203   C205    1.291   .     A
O204   C206    1.291   .     A
O204   Zn213   2.002   .     S
C205   C237    1.406   .     S
C206   C238    1.406   .     S
O207   C211    1.286   .     A
O207   Zn213   2.001   .     S
O208   C212    1.286   .     A
O208   Zn214   2.001   .     S
O209   Zn214   2.019   .     S
O209   C211    1.288   .     A
O210   C212    1.288   .     A
O210   Zn213   2.019   .     S
C211   C218    1.429   .     S
C212   C217    1.429   .     S
Zn213  N240    2.014   .     S
Zn214  N239    2.014   .     S
C215   H231    1.085   .     S
C215   C225    1.382   .     A
C215   C217    1.391   .     A
C216   H232    1.085   .     S
C216   C226    1.382   .     A
C216   C218    1.391   .     A
C217   C219    1.395   .     A
C218   C220    1.395   .     A
C219   C221    1.387   .     A
C219   H233    1.082   .     S
C220   H234    1.082   .     S
C220   C222    1.387   .     A
C221   C227    1.410   .     A
C221   C223    1.417   .     A
C222   C228    1.410   .     A
C222   C224    1.417   .     A
C223   C225    1.413   .     A
C223   C674    1.392   1_554 S
C224   C226    1.413   .     A
C224   C673    1.392   .     S
C225   C230    1.397   .     A
C226   C229    1.397   .     A
C227   Br243   1.924   .     S
C227   C679    1.389   1_554 S
C228   Br244   1.924   .     S
C228   C680    1.389   .     S
C229   H235    1.084   .     S
C229   C677    1.389   .     S
C230   H236    1.084   .     S
C230   C678    1.389   1_554 S
C237   C388    1.364   .     S
C237   N395    1.437   .     S
N239   N290    1.281   .     S
N239   H291    1.029   .     S
H242   N290    1.029   .     S
N245   O246    1.300   .     A
N245   O247    1.301   .     A
N248   O250    1.301   .     A
N248   O249    1.300   .     A
N248   C388    1.437   .     S
O251   C255    1.271   .     A
O251   Zn263   1.978   .     S
O252   C256    1.271   .     A
O252   Zn264   1.978   .     S
O253   Zn264   2.002   .     S
O253   C255    1.291   .     A
O254   C256    1.291   .     A
O254   Zn263   2.002   .     S
C255   C287    1.406   .     S
C256   C288    1.406   .     S
O257   C261    1.286   .     A
O257   Zn263   2.001   .     S
O258   C262    1.286   .     A
O258   Zn264   2.001   .     S
O259   Zn264   2.019   .     S
O259   C261    1.288   .     A
O260   C262    1.288   .     A
O260   Zn263   2.019   .     S
C261   C268    1.429   .     S
C262   C267    1.429   .     S
Zn263  N290    2.014   .     S
Zn264  N289    2.014   .     S
C265   H281    1.085   .     S
C265   C275    1.382   .     A
C265   C267    1.391   .     A
C266   H282    1.085   .     S
C266   C276    1.382   .     A
C266   C268    1.391   .     A
C267   C269    1.395   .     A
C268   C270    1.395   .     A
C269   C271    1.387   .     A
C269   H283    1.082   .     S
C270   H284    1.082   .     S
C270   C272    1.387   .     A
C271   C277    1.410   .     A
C271   C273    1.417   .     A
C272   C278    1.410   .     A
C272   C274    1.417   .     A
C273   C275    1.413   .     A
C273   C724    1.392   1_554 S
C274   C276    1.413   .     A
C274   C723    1.392   .     S
C275   C280    1.397   .     A
C276   C279    1.397   .     A
C277   Br293   1.924   .     S
C277   C729    1.389   1_554 S
C278   Br294   1.924   .     S
C278   C730    1.389   .     S
C279   H285    1.084   .     S
C279   C727    1.389   .     S
C280   H286    1.084   .     S
C280   C728    1.389   1_554 S
C287   C438    1.364   .     S
C287   N445    1.437   .     S
N289   N190    1.281   1_655 S
N289   H191    1.029   1_655 S
H292   N190    1.029   1_655 S
N295   O296    1.300   .     A
N295   O297    1.301   .     A
N298   O300    1.301   .     A
N298   O299    1.300   .     A
N298   C438    1.437   .     S
O301   C305    1.271   .     A
O301   Zn313   1.978   .     S
O302   C306    1.271   .     A
O302   Zn314   1.978   .     S
O303   Zn314   2.002   .     S
O303   C305    1.291   .     A
O304   C306    1.291   .     A
O304   Zn313   2.002   .     S
C305   C337    1.406   .     S
C306   C338    1.406   .     S
O307   C311    1.286   .     A
O307   Zn313   2.001   .     S
O308   C312    1.286   .     A
O308   Zn314   2.001   .     S
O309   Zn314   2.019   .     S
O309   C311    1.288   .     A
O310   C312    1.288   .     A
O310   Zn313   2.019   .     S
C311   C318    1.429   .     S
C312   C317    1.429   .     S
Zn313  N340    2.014   .     S
Zn314  N339    2.014   .     S
C315   H331    1.085   .     S
C315   C325    1.382   .     A
C315   C317    1.391   .     A
C316   H332    1.085   .     S
C316   C326    1.382   .     A
C316   C318    1.391   .     A
C317   C319    1.395   .     A
C318   C320    1.395   .     A
C319   C321    1.387   .     A
C319   H333    1.082   .     S
C320   H334    1.082   .     S
C320   C322    1.387   .     A
C321   C327    1.410   .     A
C321   C323    1.417   .     A
C322   C328    1.410   .     A
C322   C324    1.417   .     A
C323   C325    1.413   .     A
C323   C774    1.392   1_554 S
C324   C326    1.413   .     A
C324   C773    1.392   .     S
C325   C330    1.397   .     A
C326   C329    1.397   .     A
C327   Br343   1.924   .     S
C327   C779    1.389   1_554 S
C328   Br344   1.924   .     S
C328   C780    1.389   .     S
C329   H335    1.084   .     S
C329   C777    1.389   .     S
C330   H336    1.084   .     S
C330   C778    1.389   1_554 S
C337   C38     1.364   1_565 S
C337   N45     1.437   1_565 S
N339   N390    1.281   .     S
N339   H391    1.029   .     S
N340   N439    1.281   1_455 S
N340   H442    1.029   1_455 S
H341   N439    1.029   1_455 S
H342   N390    1.029   .     S
N345   O346    1.300   .     A
N345   O347    1.301   .     A
N348   O350    1.301   .     A
N348   O349    1.300   .     A
N348   C38     1.437   1_565 S
O351   C355    1.271   .     A
O351   Zn363   1.978   .     S
O352   C356    1.271   .     A
O352   Zn364   1.978   .     S
O353   Zn364   2.002   .     S
O353   C355    1.291   .     A
O354   C356    1.291   .     A
O354   Zn363   2.002   .     S
C355   C387    1.406   .     S
C356   C388    1.406   .     S
O357   C361    1.286   .     A
O357   Zn363   2.001   .     S
O358   C362    1.286   .     A
O358   Zn364   2.001   .     S
O359   Zn364   2.019   .     S
O359   C361    1.288   .     A
O360   C362    1.288   .     A
O360   Zn363   2.019   .     S
C361   C368    1.429   .     S
C362   C367    1.429   .     S
Zn363  N390    2.014   .     S
Zn364  N389    2.014   .     S
C365   H381    1.085   .     S
C365   C375    1.382   .     A
C365   C367    1.391   .     A
C366   H382    1.085   .     S
C366   C376    1.382   .     A
C366   C368    1.391   .     A
C367   C369    1.395   .     A
C368   C370    1.395   .     A
C369   C371    1.387   .     A
C369   H383    1.082   .     S
C370   H384    1.082   .     S
C370   C372    1.387   .     A
C371   C377    1.410   .     A
C371   C373    1.417   .     A
C372   C378    1.410   .     A
C372   C374    1.417   .     A
C373   C375    1.413   .     A
C373   C824    1.392   1_554 S
C374   C376    1.413   .     A
C374   C823    1.392   .     S
C375   C380    1.397   .     A
C376   C379    1.397   .     A
C377   Br393   1.924   .     S
C377   C829    1.389   1_554 S
C378   Br394   1.924   .     S
C378   C830    1.389   .     S
C379   H385    1.084   .     S
C379   C827    1.389   .     S
C380   H386    1.084   .     S
C380   C828    1.389   1_554 S
C387   C88     1.364   1_565 S
C387   N95     1.437   1_565 S
N389   N440    1.281   .     S
N389   H441    1.029   .     S
H392   N440    1.029   .     S
N395   O396    1.300   .     A
N395   O397    1.301   .     A
N398   O400    1.301   .     A
N398   O399    1.300   .     A
N398   C88     1.437   1_565 S
O401   C405    1.271   .     A
O401   Zn413   1.978   .     S
O402   C406    1.271   .     A
O402   Zn414   1.978   .     S
O403   Zn414   2.002   .     S
O403   C405    1.291   .     A
O404   C406    1.291   .     A
O404   Zn413   2.002   .     S
C405   C437    1.406   .     S
C406   C438    1.406   .     S
O407   C411    1.286   .     A
O407   Zn413   2.001   .     S
O408   C412    1.286   .     A
O408   Zn414   2.001   .     S
O409   Zn414   2.019   .     S
O409   C411    1.288   .     A
O410   C412    1.288   .     A
O410   Zn413   2.019   .     S
C411   C418    1.429   .     S
C412   C417    1.429   .     S
Zn413  N440    2.014   .     S
Zn414  N439    2.014   .     S
C415   H431    1.085   .     S
C415   C425    1.382   .     A
C415   C417    1.391   .     A
C416   H432    1.085   .     S
C416   C426    1.382   .     A
C416   C418    1.391   .     A
C417   C419    1.395   .     A
C418   C420    1.395   .     A
C419   C421    1.387   .     A
C419   H433    1.082   .     S
C420   H434    1.082   .     S
C420   C422    1.387   .     A
C421   C427    1.410   .     A
C421   C423    1.417   .     A
C422   C428    1.410   .     A
C422   C424    1.417   .     A
C423   C425    1.413   .     A
C423   C874    1.392   1_554 S
C424   C426    1.413   .     A
C424   C873    1.392   .     S
C425   C430    1.397   .     A
C426   C429    1.397   .     A
C427   Br443   1.924   .     S
C427   C879    1.389   1_554 S
C428   Br444   1.924   .     S
C428   C880    1.389   .     S
C429   H435    1.084   .     S
C429   C877    1.389   .     S
C430   H436    1.084   .     S
C430   C878    1.389   1_554 S
C437   C138    1.364   1_565 S
C437   N145    1.437   1_565 S
N439   N340    1.281   1_655 S
N439   H341    1.029   1_655 S
H442   N340    1.029   1_655 S
N445   O446    1.300   .     A
N445   O447    1.301   .     A
N448   O450    1.301   .     A
N448   O449    1.300   .     A
N448   C138    1.437   1_565 S
O451   C455    1.271   .     A
O451   Zn463   1.978   .     S
O452   C456    1.271   .     A
O452   Zn464   1.978   .     S
O453   Zn464   2.002   .     S
O453   C455    1.291   .     A
O454   C456    1.291   .     A
O454   Zn463   2.002   .     S
C455   C487    1.406   .     S
C456   C488    1.406   .     S
O457   C461    1.286   .     A
O457   Zn463   2.001   .     S
O458   C462    1.286   .     A
O458   Zn464   2.001   .     S
O459   Zn464   2.019   .     S
O459   C461    1.288   .     A
O460   C462    1.288   .     A
O460   Zn463   2.019   .     S
C461   C468    1.429   .     S
C462   C467    1.429   .     S
Zn463  N490    2.014   .     S
Zn464  N489    2.014   .     S
C465   H481    1.085   .     S
C465   C475    1.382   .     A
C465   C467    1.391   .     A
C466   H482    1.085   .     S
C466   C476    1.382   .     A
C466   C468    1.391   .     A
C467   C469    1.395   .     A
C468   C470    1.395   .     A
C469   C471    1.387   .     A
C469   H483    1.082   .     S
C470   H484    1.082   .     S
C470   C472    1.387   .     A
C471   C477    1.410   .     A
C471   C473    1.417   .     A
C472   C478    1.410   .     A
C472   C474    1.417   .     A
C473   C475    1.413   .     A
C474   C476    1.413   .     A
C474   C23     1.392   1_556 S
C475   C480    1.397   .     A
C476   C479    1.397   .     A
C477   Br493   1.924   .     S
C478   Br494   1.924   .     S
C478   C30     1.389   1_556 S
C479   H485    1.084   .     S
C479   C27     1.389   1_556 S
C480   H486    1.084   .     S
C487   C638    1.364   .     S
C487   N645    1.437   .     S
C488   C787    1.364   1_545 S
C488   N798    1.437   1_545 S
N489   N540    1.281   .     S
N489   H541    1.029   .     S
N490   N589    1.281   1_455 S
N490   H592    1.029   1_455 S
H491   N589    1.029   1_455 S
H492   N540    1.029   .     S
N495   O496    1.300   .     A
N495   O497    1.301   .     A
N495   C787    1.437   1_545 S
N498   O500    1.301   .     A
N498   O499    1.300   .     A
N498   C638    1.437   .     S
O501   C505    1.271   .     A
O501   Zn513   1.978   .     S
O502   C506    1.271   .     A
O502   Zn514   1.978   .     S
O503   Zn514   2.002   .     S
O503   C505    1.291   .     A
O504   C506    1.291   .     A
O504   Zn513   2.002   .     S
C505   C537    1.406   .     S
C506   C538    1.406   .     S
O507   C511    1.286   .     A
O507   Zn513   2.001   .     S
O508   C512    1.286   .     A
O508   Zn514   2.001   .     S
O509   Zn514   2.019   .     S
O509   C511    1.288   .     A
O510   C512    1.288   .     A
O510   Zn513   2.019   .     S
C511   C518    1.429   .     S
C512   C517    1.429   .     S
Zn513  N540    2.014   .     S
Zn514  N539    2.014   .     S
C515   H531    1.085   .     S
C515   C525    1.382   .     A
C515   C517    1.391   .     A
C516   H532    1.085   .     S
C516   C526    1.382   .     A
C516   C518    1.391   .     A
C517   C519    1.395   .     A
C518   C520    1.395   .     A
C519   C521    1.387   .     A
C519   H533    1.082   .     S
C520   H534    1.082   .     S
C520   C522    1.387   .     A
C521   C527    1.410   .     A
C521   C523    1.417   .     A
C522   C528    1.410   .     A
C522   C524    1.417   .     A
C523   C525    1.413   .     A
C524   C526    1.413   .     A
C524   C73     1.392   1_556 S
C525   C530    1.397   .     A
C526   C529    1.397   .     A
C527   Br543   1.924   .     S
C528   Br544   1.924   .     S
C528   C80     1.389   1_556 S
C529   H535    1.084   .     S
C529   C77     1.389   1_556 S
C530   H536    1.084   .     S
C537   C688    1.364   .     S
C537   N695    1.437   .     S
C538   C837    1.364   1_545 S
C538   N848    1.437   1_545 S
N539   N590    1.281   .     S
N539   H591    1.029   .     S
H542   N590    1.029   .     S
N545   O546    1.300   .     A
N545   O547    1.301   .     A
N545   C837    1.437   1_545 S
N548   O550    1.301   .     A
N548   O549    1.300   .     A
N548   C688    1.437   .     S
O551   C555    1.271   .     A
O551   Zn563   1.978   .     S
O552   C556    1.271   .     A
O552   Zn564   1.978   .     S
O553   Zn564   2.002   .     S
O553   C555    1.291   .     A
O554   C556    1.291   .     A
O554   Zn563   2.002   .     S
C555   C587    1.406   .     S
C556   C588    1.406   .     S
O557   C561    1.286   .     A
O557   Zn563   2.001   .     S
O558   C562    1.286   .     A
O558   Zn564   2.001   .     S
O559   Zn564   2.019   .     S
O559   C561    1.288   .     A
O560   C562    1.288   .     A
O560   Zn563   2.019   .     S
C561   C568    1.429   .     S
C562   C567    1.429   .     S
Zn563  N590    2.014   .     S
Zn564  N589    2.014   .     S
C565   H581    1.085   .     S
C565   C575    1.382   .     A
C565   C567    1.391   .     A
C566   H582    1.085   .     S
C566   C576    1.382   .     A
C566   C568    1.391   .     A
C567   C569    1.395   .     A
C568   C570    1.395   .     A
C569   C571    1.387   .     A
C569   H583    1.082   .     S
C570   H584    1.082   .     S
C570   C572    1.387   .     A
C571   C577    1.410   .     A
C571   C573    1.417   .     A
C572   C578    1.410   .     A
C572   C574    1.417   .     A
C573   C575    1.413   .     A
C574   C576    1.413   .     A
C574   C123    1.392   1_556 S
C575   C580    1.397   .     A
C576   C579    1.397   .     A
C577   Br593   1.924   .     S
C578   Br594   1.924   .     S
C578   C130    1.389   1_556 S
C579   H585    1.084   .     S
C579   C127    1.389   1_556 S
C580   H586    1.084   .     S
C587   C738    1.364   .     S
C587   N745    1.437   .     S
C588   C887    1.364   1_545 S
C588   N898    1.437   1_545 S
N589   N490    1.281   1_655 S
N589   H491    1.029   1_655 S
H592   N490    1.029   1_655 S
N595   O596    1.300   .     A
N595   O597    1.301   .     A
N595   C887    1.437   1_545 S
N598   O600    1.301   .     A
N598   O599    1.300   .     A
N598   C738    1.437   .     S
O601   C605    1.271   .     A
O601   Zn613   1.978   .     S
O602   C606    1.271   .     A
O602   Zn614   1.978   .     S
O603   Zn614   2.002   .     S
O603   C605    1.291   .     A
O604   C606    1.291   .     A
O604   Zn613   2.002   .     S
C605   C637    1.406   .     S
C606   C638    1.406   .     S
O607   C611    1.286   .     A
O607   Zn613   2.001   .     S
O608   C612    1.286   .     A
O608   Zn614   2.001   .     S
O609   Zn614   2.019   .     S
O609   C611    1.288   .     A
O610   C612    1.288   .     A
O610   Zn613   2.019   .     S
C611   C618    1.429   .     S
C612   C617    1.429   .     S
Zn613  N640    2.014   .     S
Zn614  N639    2.014   .     S
C615   H631    1.085   .     S
C615   C625    1.382   .     A
C615   C617    1.391   .     A
C616   H632    1.085   .     S
C616   C626    1.382   .     A
C616   C618    1.391   .     A
C617   C619    1.395   .     A
C618   C620    1.395   .     A
C619   C621    1.387   .     A
C619   H633    1.082   .     S
C620   H634    1.082   .     S
C620   C622    1.387   .     A
C621   C627    1.410   .     A
C621   C623    1.417   .     A
C622   C628    1.410   .     A
C622   C624    1.417   .     A
C623   C625    1.413   .     A
C624   C626    1.413   .     A
C624   C173    1.392   1_556 S
C625   C630    1.397   .     A
C626   C629    1.397   .     A
C627   Br643   1.924   .     S
C628   Br644   1.924   .     S
C628   C180    1.389   1_556 S
C629   H635    1.084   .     S
C629   C177    1.389   1_556 S
C630   H636    1.084   .     S
C637   C788    1.364   .     S
C637   N795    1.437   .     S
N639   N690    1.281   .     S
N639   H691    1.029   .     S
N640   N739    1.281   1_455 S
N640   H742    1.029   1_455 S
H641   N739    1.029   1_455 S
H642   N690    1.029   .     S
N645   O646    1.300   .     A
N645   O647    1.301   .     A
N648   O650    1.301   .     A
N648   O649    1.300   .     A
N648   C788    1.437   .     S
O651   C655    1.271   .     A
O651   Zn663   1.978   .     S
O652   C656    1.271   .     A
O652   Zn664   1.978   .     S
O653   Zn664   2.002   .     S
O653   C655    1.291   .     A
O654   C656    1.291   .     A
O654   Zn663   2.002   .     S
C655   C687    1.406   .     S
C656   C688    1.406   .     S
O657   C661    1.286   .     A
O657   Zn663   2.001   .     S
O658   C662    1.286   .     A
O658   Zn664   2.001   .     S
O659   Zn664   2.019   .     S
O659   C661    1.288   .     A
O660   C662    1.288   .     A
O660   Zn663   2.019   .     S
C661   C668    1.429   .     S
C662   C667    1.429   .     S
Zn663  N690    2.014   .     S
Zn664  N689    2.014   .     S
C665   H681    1.085   .     S
C665   C675    1.382   .     A
C665   C667    1.391   .     A
C666   H682    1.085   .     S
C666   C676    1.382   .     A
C666   C668    1.391   .     A
C667   C669    1.395   .     A
C668   C670    1.395   .     A
C669   C671    1.387   .     A
C669   H683    1.082   .     S
C670   H684    1.082   .     S
C670   C672    1.387   .     A
C671   C677    1.410   .     A
C671   C673    1.417   .     A
C672   C678    1.410   .     A
C672   C674    1.417   .     A
C673   C675    1.413   .     A
C674   C676    1.413   .     A
C674   C223    1.392   1_556 S
C675   C680    1.397   .     A
C676   C679    1.397   .     A
C677   Br693   1.924   .     S
C678   Br694   1.924   .     S
C678   C230    1.389   1_556 S
C679   H685    1.084   .     S
C679   C227    1.389   1_556 S
C680   H686    1.084   .     S
C687   C838    1.364   .     S
C687   N845    1.437   .     S
N689   N740    1.281   .     S
N689   H741    1.029   .     S
H692   N740    1.029   .     S
N695   O696    1.300   .     A
N695   O697    1.301   .     A
N698   O700    1.301   .     A
N698   O699    1.300   .     A
N698   C838    1.437   .     S
O701   C705    1.271   .     A
O701   Zn713   1.978   .     S
O702   C706    1.271   .     A
O702   Zn714   1.978   .     S
O703   Zn714   2.002   .     S
O703   C705    1.291   .     A
O704   C706    1.291   .     A
O704   Zn713   2.002   .     S
C705   C737    1.406   .     S
C706   C738    1.406   .     S
O707   C711    1.286   .     A
O707   Zn713   2.001   .     S
O708   C712    1.286   .     A
O708   Zn714   2.001   .     S
O709   Zn714   2.019   .     S
O709   C711    1.288   .     A
O710   C712    1.288   .     A
O710   Zn713   2.019   .     S
C711   C718    1.429   .     S
C712   C717    1.429   .     S
Zn713  N740    2.014   .     S
Zn714  N739    2.014   .     S
C715   H731    1.085   .     S
C715   C725    1.382   .     A
C715   C717    1.391   .     A
C716   H732    1.085   .     S
C716   C726    1.382   .     A
C716   C718    1.391   .     A
C717   C719    1.395   .     A
C718   C720    1.395   .     A
C719   C721    1.387   .     A
C719   H733    1.082   .     S
C720   H734    1.082   .     S
C720   C722    1.387   .     A
C721   C727    1.410   .     A
C721   C723    1.417   .     A
C722   C728    1.410   .     A
C722   C724    1.417   .     A
C723   C725    1.413   .     A
C724   C726    1.413   .     A
C724   C273    1.392   1_556 S
C725   C730    1.397   .     A
C726   C729    1.397   .     A
C727   Br743   1.924   .     S
C728   Br744   1.924   .     S
C728   C280    1.389   1_556 S
C729   H735    1.084   .     S
C729   C277    1.389   1_556 S
C730   H736    1.084   .     S
C737   C888    1.364   .     S
C737   N895    1.437   .     S
N739   N640    1.281   1_655 S
N739   H641    1.029   1_655 S
H742   N640    1.029   1_655 S
N745   O746    1.300   .     A
N745   O747    1.301   .     A
N748   O750    1.301   .     A
N748   O749    1.300   .     A
N748   C888    1.437   .     S
O751   C755    1.271   .     A
O751   Zn763   1.978   .     S
O752   C756    1.271   .     A
O752   Zn764   1.978   .     S
O753   Zn764   2.002   .     S
O753   C755    1.291   .     A
O754   C756    1.291   .     A
O754   Zn763   2.002   .     S
C755   C787    1.406   .     S
C756   C788    1.406   .     S
O757   C761    1.286   .     A
O757   Zn763   2.001   .     S
O758   C762    1.286   .     A
O758   Zn764   2.001   .     S
O759   Zn764   2.019   .     S
O759   C761    1.288   .     A
O760   C762    1.288   .     A
O760   Zn763   2.019   .     S
C761   C768    1.429   .     S
C762   C767    1.429   .     S
Zn763  N790    2.014   .     S
Zn764  N789    2.014   .     S
C765   H781    1.085   .     S
C765   C775    1.382   .     A
C765   C767    1.391   .     A
C766   H782    1.085   .     S
C766   C776    1.382   .     A
C766   C768    1.391   .     A
C767   C769    1.395   .     A
C768   C770    1.395   .     A
C769   C771    1.387   .     A
C769   H783    1.082   .     S
C770   H784    1.082   .     S
C770   C772    1.387   .     A
C771   C777    1.410   .     A
C771   C773    1.417   .     A
C772   C778    1.410   .     A
C772   C774    1.417   .     A
C773   C775    1.413   .     A
C774   C776    1.413   .     A
C774   C323    1.392   1_556 S
C775   C780    1.397   .     A
C776   C779    1.397   .     A
C777   Br793   1.924   .     S
C778   Br794   1.924   .     S
C778   C330    1.389   1_556 S
C779   H785    1.084   .     S
C779   C327    1.389   1_556 S
C780   H786    1.084   .     S
C787   C488    1.364   1_565 S
C787   N495    1.437   1_565 S
N789   N840    1.281   .     S
N789   H841    1.029   .     S
N790   N889    1.281   1_455 S
N790   H892    1.029   1_455 S
H791   N889    1.029   1_455 S
H792   N840    1.029   .     S
N795   O796    1.300   .     A
N795   O797    1.301   .     A
N798   O800    1.301   .     A
N798   O799    1.300   .     A
N798   C488    1.437   1_565 S
O801   C805    1.271   .     A
O801   Zn813   1.978   .     S
O802   C806    1.271   .     A
O802   Zn814   1.978   .     S
O803   Zn814   2.002   .     S
O803   C805    1.291   .     A
O804   C806    1.291   .     A
O804   Zn813   2.002   .     S
C805   C837    1.406   .     S
C806   C838    1.406   .     S
O807   C811    1.286   .     A
O807   Zn813   2.001   .     S
O808   C812    1.286   .     A
O808   Zn814   2.001   .     S
O809   Zn814   2.019   .     S
O809   C811    1.288   .     A
O810   C812    1.288   .     A
O810   Zn813   2.019   .     S
C811   C818    1.429   .     S
C812   C817    1.429   .     S
Zn813  N840    2.014   .     S
Zn814  N839    2.014   .     S
C815   H831    1.085   .     S
C815   C825    1.382   .     A
C815   C817    1.391   .     A
C816   H832    1.085   .     S
C816   C826    1.382   .     A
C816   C818    1.391   .     A
C817   C819    1.395   .     A
C818   C820    1.395   .     A
C819   C821    1.387   .     A
C819   H833    1.082   .     S
C820   H834    1.082   .     S
C820   C822    1.387   .     A
C821   C827    1.410   .     A
C821   C823    1.417   .     A
C822   C828    1.410   .     A
C822   C824    1.417   .     A
C823   C825    1.413   .     A
C824   C826    1.413   .     A
C824   C373    1.392   1_556 S
C825   C830    1.397   .     A
C826   C829    1.397   .     A
C827   Br843   1.924   .     S
C828   Br844   1.924   .     S
C828   C380    1.389   1_556 S
C829   H835    1.084   .     S
C829   C377    1.389   1_556 S
C830   H836    1.084   .     S
C837   C538    1.364   1_565 S
C837   N545    1.437   1_565 S
N839   N890    1.281   .     S
N839   H891    1.029   .     S
H842   N890    1.029   .     S
N845   O846    1.300   .     A
N845   O847    1.301   .     A
N848   O850    1.301   .     A
N848   O849    1.300   .     A
N848   C538    1.437   1_565 S
O851   C855    1.271   .     A
O851   Zn863   1.978   .     S
O852   C856    1.271   .     A
O852   Zn864   1.978   .     S
O853   Zn864   2.002   .     S
O853   C855    1.291   .     A
O854   C856    1.291   .     A
O854   Zn863   2.002   .     S
C855   C887    1.406   .     S
C856   C888    1.406   .     S
O857   C861    1.286   .     A
O857   Zn863   2.001   .     S
O858   C862    1.286   .     A
O858   Zn864   2.001   .     S
O859   Zn864   2.019   .     S
O859   C861    1.288   .     A
O860   C862    1.288   .     A
O860   Zn863   2.019   .     S
C861   C868    1.429   .     S
C862   C867    1.429   .     S
Zn863  N890    2.014   .     S
Zn864  N889    2.014   .     S
C865   H881    1.085   .     S
C865   C875    1.382   .     A
C865   C867    1.391   .     A
C866   H882    1.085   .     S
C866   C876    1.382   .     A
C866   C868    1.391   .     A
C867   C869    1.395   .     A
C868   C870    1.395   .     A
C869   C871    1.387   .     A
C869   H883    1.082   .     S
C870   H884    1.082   .     S
C870   C872    1.387   .     A
C871   C877    1.410   .     A
C871   C873    1.417   .     A
C872   C878    1.410   .     A
C872   C874    1.417   .     A
C873   C875    1.413   .     A
C874   C876    1.413   .     A
C874   C423    1.392   1_556 S
C875   C880    1.397   .     A
C876   C879    1.397   .     A
C877   Br893   1.924   .     S
C878   Br894   1.924   .     S
C878   C430    1.389   1_556 S
C879   H885    1.084   .     S
C879   C427    1.389   1_556 S
C880   H886    1.084   .     S
C887   C588    1.364   1_565 S
C887   N595    1.437   1_565 S
N889   N790    1.281   1_655 S
N889   H791    1.029   1_655 S
H892   N790    1.029   1_655 S
N895   O896    1.300   .     A
N895   O897    1.301   .     A
N898   O900    1.301   .     A
N898   O899    1.300   .     A
N898   C588    1.437   1_565 S
