data_str_m3_o1_o16_pcu_sym.32
_audit_creation_date              2020-01-03
_audit_creation_method            'Materials Studio'
_symmetry_space_group_name_H-M    'P1'
_symmetry_Int_Tables_number       1
_symmetry_cell_setting            triclinic
loop_
_symmetry_equiv_pos_as_xyz
  x,y,z
_cell_length_a                    29.5604
_cell_length_b                    32.1680
_cell_length_c                    26.4014
_cell_angle_alpha                 90.2314
_cell_angle_beta                  71.5085
_cell_angle_gamma                 90.2418
loop_
_atom_site_label
_atom_site_type_symbol
_atom_site_fract_x
_atom_site_fract_y
_atom_site_fract_z
_atom_site_U_iso_or_equiv
_atom_site_adp_type
_atom_site_occupancy
C1     C     0.16670   0.24671   0.25014   0.00000  Uiso   1.00
C2     C     0.12779   0.14394   0.40557   0.00000  Uiso   1.00
C3     C     0.20863   0.31223   0.24758   0.00000  Uiso   1.00
C4     C     0.14137   0.15922   0.35021   0.00000  Uiso   1.00
C5     C     0.20859   0.02147   0.24748   0.00000  Uiso   1.00
C6     C     0.16661   0.04248   0.25008   0.00000  Uiso   1.00
C7     C     0.12467   0.02113   0.25293   0.00000  Uiso   1.00
C8     C     0.12467   0.31191   0.25306   0.00000  Uiso   1.00
C9     C     0.16668   0.29087   0.25029   0.00000  Uiso   1.00
C10    C     0.31552   0.13482   0.22702   0.00000  Uiso   1.00
C11    C     0.03100   0.13504   0.22553   0.00000  Uiso   1.00
C12    C     0.14847   0.14270   0.48751   0.00000  Uiso   1.00
C13    C     0.01733   0.19814   0.27379   0.00000  Uiso   1.00
C14    C     0.30285   0.19822   0.27357   0.00000  Uiso   1.00
C15    C     0.16664   0.08663   0.24989   0.00000  Uiso   1.00
C16    C     0.19268   0.16687   0.14819   0.00000  Uiso   1.00
C17    C     0.26856   0.15545   0.00506   0.00000  Uiso   1.00
C18    C     0.20784   0.16345   0.09038   0.00000  Uiso   1.00
C19    C     0.07998   0.13420   0.43407   0.00000  Uiso   1.00
C20    C     0.06615   0.13157   0.48958   0.00000  Uiso   1.00
C21    C     0.09932   0.13826   0.01623   0.00000  Uiso   1.00
C22    C     0.05791   0.08685   0.15560   0.00000  Uiso   1.00
C23    C     0.16277   0.13963   0.43152   0.00000  Uiso   1.00
C24    C     0.03802   0.04271   0.16273   0.00000  Uiso   1.00
C25    C     0.05518   0.08382   0.38878   0.00000  Uiso   1.00
C26    C     0.01816   0.07146   0.36252   0.00000  Uiso   1.00
C27    C     0.18414   0.14936   0.01211   0.00000  Uiso   1.00
C28    C     0.23314   0.14803   0.48130   0.00000  Uiso   1.00
C29    C     0.24621   0.13825   0.42742   0.00000  Uiso   1.00
C30    C     0.21144   0.13208   0.40341   0.00000  Uiso   1.00
C31    C     0.17251   0.15864   0.06615   0.00000  Uiso   1.00
C32    C     0.25605   0.16240   0.05974   0.00000  Uiso   1.00
H33    H     0.28383   0.16662   0.07796   0.00000  Uiso   1.00
H34    H     0.13584   0.16240   0.09022   0.00000  Uiso   1.00
H35    H     0.08579   0.13724   0.05905   0.00000  Uiso   1.00
H36    H     0.02959   0.12439   0.01235   0.00000  Uiso   1.00
H37    H     0.22343   0.12060   0.36282   0.00000  Uiso   1.00
H38    H     0.24138   0.29622   0.24539   0.00000  Uiso   1.00
H39    H     0.09453   0.08569   0.12660   0.00000  Uiso   1.00
H40    H     0.03672   0.10671   0.13708   0.00000  Uiso   1.00
H41    H     0.00212   0.04196   0.19314   0.00000  Uiso   1.00
H42    H     0.03522   0.03100   0.12421   0.00000  Uiso   1.00
H43    H     0.06211   0.02193   0.17574   0.00000  Uiso   1.00
H44    H     0.24133   0.03774   0.24524   0.00000  Uiso   1.00
H45    H     0.05240   0.06158   0.42194   0.00000  Uiso   1.00
H46    H     0.09105   0.08076   0.35836   0.00000  Uiso   1.00
H47    H     0.01736   0.09462   0.33175   0.00000  Uiso   1.00
H48    H     0.02717   0.04055   0.34318   0.00000  Uiso   1.00
H49    H     0.31578   0.06918   0.39307   0.00000  Uiso   1.00
H50    H     0.09196   0.03714   0.25513   0.00000  Uiso   1.00
H51    H     0.09190   0.29567   0.25534   0.00000  Uiso   1.00
H52    H     0.30122   0.10925   0.21019   0.00000  Uiso   1.00
H53    H     0.03004   0.22328   0.29306   0.00000  Uiso   1.00
H54    H     0.27950   0.22347   0.29256   0.00000  Uiso   1.00
H55    H     0.28336   0.13569   0.40365   0.00000  Uiso   1.00
H56    H     0.30577   0.15536   0.48133   0.00000  Uiso   1.00
N57    N     0.04760   0.16668   0.25001   0.00000  Uiso   1.00
N58    N     0.28573   0.16665   0.25001   0.00000  Uiso   1.00
O59    O     0.12846   0.22775   0.25000   0.00000  Uiso   1.00
O60    O     0.04714   0.12516   0.40812   0.00000  Uiso   1.00
O61    O     0.20490   0.22774   0.25000   0.00000  Uiso   1.00
O62    O     0.10947   0.16666   0.32681   0.00000  Uiso   1.00
O63    O     0.18591   0.16665   0.32681   0.00000  Uiso   1.00
O64    O     0.12843   0.10559   0.24999   0.00000  Uiso   1.00
O65    O     0.20488   0.10558   0.25000   0.00000  Uiso   1.00
O66    O     0.14742   0.16668   0.17319   0.00000  Uiso   1.00
O67    O     0.22387   0.16667   0.17319   0.00000  Uiso   1.00
O68    O     0.06138   0.10200   0.20466   0.00000  Uiso   1.00
Zn69   Zn    0.11562   0.16667   0.25000   0.00000  Uiso   1.00
Zn70   Zn    0.21771   0.16666   0.25000   0.00000  Uiso   1.00
C71    C     0.50003   0.24671   0.25014   0.00000  Uiso   1.00
C72    C     0.46112   0.14394   0.40557   0.00000  Uiso   1.00
C73    C     0.54196   0.31223   0.24758   0.00000  Uiso   1.00
C74    C     0.47470   0.15922   0.35021   0.00000  Uiso   1.00
C75    C     0.54193   0.02147   0.24748   0.00000  Uiso   1.00
C76    C     0.49994   0.04248   0.25008   0.00000  Uiso   1.00
C77    C     0.45800   0.02113   0.25293   0.00000  Uiso   1.00
C78    C     0.45800   0.31191   0.25306   0.00000  Uiso   1.00
C79    C     0.50002   0.29087   0.25029   0.00000  Uiso   1.00
C80    C     0.64885   0.13482   0.22702   0.00000  Uiso   1.00
C81    C     0.36433   0.13504   0.22553   0.00000  Uiso   1.00
C82    C     0.48180   0.14270   0.48751   0.00000  Uiso   1.00
C83    C     0.35066   0.19814   0.27379   0.00000  Uiso   1.00
C84    C     0.63619   0.19822   0.27357   0.00000  Uiso   1.00
C85    C     0.49997   0.08663   0.24989   0.00000  Uiso   1.00
C86    C     0.52601   0.16687   0.14819   0.00000  Uiso   1.00
C87    C     0.60189   0.15545   0.00506   0.00000  Uiso   1.00
C88    C     0.54118   0.16345   0.09038   0.00000  Uiso   1.00
C89    C     0.41331   0.13420   0.43407   0.00000  Uiso   1.00
C90    C     0.39948   0.13157   0.48958   0.00000  Uiso   1.00
C91    C     0.43265   0.13826   0.01623   0.00000  Uiso   1.00
C92    C     0.39125   0.08685   0.15560   0.00000  Uiso   1.00
C93    C     0.49611   0.13963   0.43152   0.00000  Uiso   1.00
C94    C     0.37136   0.04271   0.16273   0.00000  Uiso   1.00
C95    C     0.38852   0.08382   0.38878   0.00000  Uiso   1.00
C96    C     0.35150   0.07146   0.36252   0.00000  Uiso   1.00
C97    C     0.51747   0.14936   0.01211   0.00000  Uiso   1.00
C98    C     0.56647   0.14803   0.48130   0.00000  Uiso   1.00
C99    C     0.57954   0.13825   0.42742   0.00000  Uiso   1.00
C100   C     0.54478   0.13208   0.40341   0.00000  Uiso   1.00
C101   C     0.50584   0.15864   0.06615   0.00000  Uiso   1.00
C102   C     0.58938   0.16240   0.05974   0.00000  Uiso   1.00
H103   H     0.61716   0.16662   0.07796   0.00000  Uiso   1.00
H104   H     0.46917   0.16240   0.09022   0.00000  Uiso   1.00
H105   H     0.41912   0.13724   0.05905   0.00000  Uiso   1.00
H106   H     0.36293   0.12439   0.01235   0.00000  Uiso   1.00
H107   H     0.55676   0.12060   0.36282   0.00000  Uiso   1.00
H108   H     0.57471   0.29622   0.24539   0.00000  Uiso   1.00
H109   H     0.42786   0.08569   0.12660   0.00000  Uiso   1.00
H110   H     0.37005   0.10671   0.13708   0.00000  Uiso   1.00
H111   H     0.33546   0.04196   0.19314   0.00000  Uiso   1.00
H112   H     0.36856   0.03100   0.12421   0.00000  Uiso   1.00
H113   H     0.39544   0.02193   0.17574   0.00000  Uiso   1.00
H114   H     0.57467   0.03774   0.24524   0.00000  Uiso   1.00
H115   H     0.38573   0.06158   0.42194   0.00000  Uiso   1.00
H116   H     0.42439   0.08076   0.35836   0.00000  Uiso   1.00
H117   H     0.35069   0.09462   0.33175   0.00000  Uiso   1.00
H118   H     0.36050   0.04055   0.34318   0.00000  Uiso   1.00
H119   H     0.64911   0.06918   0.39307   0.00000  Uiso   1.00
H120   H     0.42530   0.03714   0.25513   0.00000  Uiso   1.00
H121   H     0.42523   0.29567   0.25534   0.00000  Uiso   1.00
H122   H     0.63455   0.10925   0.21019   0.00000  Uiso   1.00
H123   H     0.36338   0.22328   0.29306   0.00000  Uiso   1.00
H124   H     0.61284   0.22347   0.29256   0.00000  Uiso   1.00
H125   H     0.61669   0.13569   0.40365   0.00000  Uiso   1.00
H126   H     0.63911   0.15536   0.48133   0.00000  Uiso   1.00
N127   N     0.38093   0.16668   0.25001   0.00000  Uiso   1.00
N128   N     0.61906   0.16665   0.25001   0.00000  Uiso   1.00
O129   O     0.46179   0.22775   0.25000   0.00000  Uiso   1.00
O130   O     0.38047   0.12516   0.40812   0.00000  Uiso   1.00
O131   O     0.53823   0.22774   0.25000   0.00000  Uiso   1.00
O132   O     0.44280   0.16666   0.32681   0.00000  Uiso   1.00
O133   O     0.51924   0.16665   0.32681   0.00000  Uiso   1.00
O134   O     0.46177   0.10559   0.24999   0.00000  Uiso   1.00
O135   O     0.53821   0.10558   0.25000   0.00000  Uiso   1.00
O136   O     0.48076   0.16668   0.17319   0.00000  Uiso   1.00
O137   O     0.55720   0.16667   0.17319   0.00000  Uiso   1.00
O138   O     0.39471   0.10200   0.20466   0.00000  Uiso   1.00
Zn139  Zn    0.44896   0.16667   0.25000   0.00000  Uiso   1.00
Zn140  Zn    0.55104   0.16666   0.25000   0.00000  Uiso   1.00
C141   C     0.83337   0.24671   0.25014   0.00000  Uiso   1.00
C142   C     0.79445   0.14394   0.40557   0.00000  Uiso   1.00
C143   C     0.87529   0.31223   0.24758   0.00000  Uiso   1.00
C144   C     0.80803   0.15922   0.35021   0.00000  Uiso   1.00
C145   C     0.87526   0.02147   0.24748   0.00000  Uiso   1.00
C146   C     0.83328   0.04248   0.25008   0.00000  Uiso   1.00
C147   C     0.79133   0.02113   0.25293   0.00000  Uiso   1.00
C148   C     0.79134   0.31191   0.25306   0.00000  Uiso   1.00
C149   C     0.83335   0.29087   0.25029   0.00000  Uiso   1.00
C150   C     0.98219   0.13482   0.22702   0.00000  Uiso   1.00
C151   C     0.69767   0.13504   0.22553   0.00000  Uiso   1.00
C152   C     0.81513   0.14270   0.48751   0.00000  Uiso   1.00
C153   C     0.68399   0.19814   0.27379   0.00000  Uiso   1.00
C154   C     0.96952   0.19822   0.27357   0.00000  Uiso   1.00
C155   C     0.83330   0.08663   0.24989   0.00000  Uiso   1.00
C156   C     0.85935   0.16687   0.14819   0.00000  Uiso   1.00
C157   C     0.93522   0.15545   0.00506   0.00000  Uiso   1.00
C158   C     0.87451   0.16345   0.09038   0.00000  Uiso   1.00
C159   C     0.74665   0.13420   0.43407   0.00000  Uiso   1.00
C160   C     0.73282   0.13157   0.48958   0.00000  Uiso   1.00
C161   C     0.76599   0.13826   0.01623   0.00000  Uiso   1.00
C162   C     0.72458   0.08685   0.15560   0.00000  Uiso   1.00
C163   C     0.82944   0.13963   0.43152   0.00000  Uiso   1.00
C164   C     0.70469   0.04271   0.16273   0.00000  Uiso   1.00
C165   C     0.72185   0.08382   0.38878   0.00000  Uiso   1.00
C166   C     0.68483   0.07146   0.36252   0.00000  Uiso   1.00
C167   C     0.85081   0.14936   0.01211   0.00000  Uiso   1.00
C168   C     0.89981   0.14803   0.48130   0.00000  Uiso   1.00
C169   C     0.91288   0.13825   0.42742   0.00000  Uiso   1.00
C170   C     0.87811   0.13208   0.40341   0.00000  Uiso   1.00
C171   C     0.83918   0.15864   0.06615   0.00000  Uiso   1.00
C172   C     0.92271   0.16240   0.05974   0.00000  Uiso   1.00
H173   H     0.95049   0.16662   0.07796   0.00000  Uiso   1.00
H174   H     0.80251   0.16240   0.09022   0.00000  Uiso   1.00
H175   H     0.75246   0.13724   0.05905   0.00000  Uiso   1.00
H176   H     0.69626   0.12439   0.01235   0.00000  Uiso   1.00
H177   H     0.89009   0.12060   0.36282   0.00000  Uiso   1.00
H178   H     0.90804   0.29622   0.24539   0.00000  Uiso   1.00
H179   H     0.76119   0.08569   0.12660   0.00000  Uiso   1.00
H180   H     0.70339   0.10671   0.13708   0.00000  Uiso   1.00
H181   H     0.66879   0.04196   0.19314   0.00000  Uiso   1.00
H182   H     0.70189   0.03100   0.12421   0.00000  Uiso   1.00
H183   H     0.72877   0.02193   0.17574   0.00000  Uiso   1.00
H184   H     0.90800   0.03774   0.24524   0.00000  Uiso   1.00
H185   H     0.71906   0.06158   0.42194   0.00000  Uiso   1.00
H186   H     0.75772   0.08076   0.35836   0.00000  Uiso   1.00
H187   H     0.68402   0.09462   0.33175   0.00000  Uiso   1.00
H188   H     0.69384   0.04055   0.34318   0.00000  Uiso   1.00
H189   H     0.98244   0.06918   0.39307   0.00000  Uiso   1.00
H190   H     0.75863   0.03714   0.25513   0.00000  Uiso   1.00
H191   H     0.75856   0.29567   0.25534   0.00000  Uiso   1.00
H192   H     0.96789   0.10925   0.21019   0.00000  Uiso   1.00
H193   H     0.69671   0.22328   0.29306   0.00000  Uiso   1.00
H194   H     0.94617   0.22347   0.29256   0.00000  Uiso   1.00
H195   H     0.95003   0.13569   0.40365   0.00000  Uiso   1.00
H196   H     0.97244   0.15536   0.48133   0.00000  Uiso   1.00
N197   N     0.71426   0.16668   0.25001   0.00000  Uiso   1.00
N198   N     0.95239   0.16665   0.25001   0.00000  Uiso   1.00
O199   O     0.79512   0.22775   0.25000   0.00000  Uiso   1.00
O200   O     0.71380   0.12516   0.40812   0.00000  Uiso   1.00
O201   O     0.87157   0.22774   0.25000   0.00000  Uiso   1.00
O202   O     0.77613   0.16666   0.32681   0.00000  Uiso   1.00
O203   O     0.85258   0.16665   0.32681   0.00000  Uiso   1.00
O204   O     0.79510   0.10559   0.24999   0.00000  Uiso   1.00
O205   O     0.87154   0.10558   0.25000   0.00000  Uiso   1.00
O206   O     0.81409   0.16668   0.17319   0.00000  Uiso   1.00
O207   O     0.89053   0.16667   0.17319   0.00000  Uiso   1.00
O208   O     0.72805   0.10200   0.20466   0.00000  Uiso   1.00
Zn209  Zn    0.78229   0.16667   0.25000   0.00000  Uiso   1.00
Zn210  Zn    0.88438   0.16666   0.25000   0.00000  Uiso   1.00
C211   C     0.16670   0.58004   0.25014   0.00000  Uiso   1.00
C212   C     0.12779   0.47728   0.40557   0.00000  Uiso   1.00
C213   C     0.20863   0.64556   0.24758   0.00000  Uiso   1.00
C214   C     0.14137   0.49255   0.35021   0.00000  Uiso   1.00
C215   C     0.20859   0.35480   0.24748   0.00000  Uiso   1.00
C216   C     0.16661   0.37582   0.25008   0.00000  Uiso   1.00
C217   C     0.12467   0.35447   0.25293   0.00000  Uiso   1.00
C218   C     0.12467   0.64525   0.25306   0.00000  Uiso   1.00
C219   C     0.16668   0.62421   0.25029   0.00000  Uiso   1.00
C220   C     0.31552   0.46816   0.22702   0.00000  Uiso   1.00
C221   C     0.03100   0.46837   0.22553   0.00000  Uiso   1.00
C222   C     0.14847   0.47603   0.48751   0.00000  Uiso   1.00
C223   C     0.01733   0.53147   0.27379   0.00000  Uiso   1.00
C224   C     0.30285   0.53155   0.27357   0.00000  Uiso   1.00
C225   C     0.16664   0.41996   0.24989   0.00000  Uiso   1.00
C226   C     0.19268   0.50020   0.14819   0.00000  Uiso   1.00
C227   C     0.26856   0.48878   0.00506   0.00000  Uiso   1.00
C228   C     0.20784   0.49678   0.09038   0.00000  Uiso   1.00
C229   C     0.07998   0.46753   0.43407   0.00000  Uiso   1.00
C230   C     0.06615   0.46490   0.48958   0.00000  Uiso   1.00
C231   C     0.09932   0.47160   0.01623   0.00000  Uiso   1.00
C232   C     0.05791   0.42018   0.15560   0.00000  Uiso   1.00
C233   C     0.16277   0.47296   0.43152   0.00000  Uiso   1.00
C234   C     0.03802   0.37604   0.16273   0.00000  Uiso   1.00
C235   C     0.05518   0.41716   0.38878   0.00000  Uiso   1.00
C236   C     0.01816   0.40479   0.36252   0.00000  Uiso   1.00
C237   C     0.18414   0.48269   0.01211   0.00000  Uiso   1.00
C238   C     0.23314   0.48137   0.48130   0.00000  Uiso   1.00
C239   C     0.24621   0.47158   0.42742   0.00000  Uiso   1.00
C240   C     0.21144   0.46541   0.40341   0.00000  Uiso   1.00
C241   C     0.17251   0.49198   0.06615   0.00000  Uiso   1.00
C242   C     0.25605   0.49574   0.05974   0.00000  Uiso   1.00
H243   H     0.28383   0.49996   0.07796   0.00000  Uiso   1.00
H244   H     0.13584   0.49573   0.09022   0.00000  Uiso   1.00
H245   H     0.08579   0.47058   0.05905   0.00000  Uiso   1.00
H246   H     0.02959   0.45772   0.01235   0.00000  Uiso   1.00
H247   H     0.22343   0.45394   0.36282   0.00000  Uiso   1.00
H248   H     0.24138   0.62955   0.24539   0.00000  Uiso   1.00
H249   H     0.09453   0.41903   0.12660   0.00000  Uiso   1.00
H250   H     0.03672   0.44004   0.13708   0.00000  Uiso   1.00
H251   H     0.00212   0.37530   0.19314   0.00000  Uiso   1.00
H252   H     0.03522   0.36434   0.12421   0.00000  Uiso   1.00
H253   H     0.06211   0.35526   0.17574   0.00000  Uiso   1.00
H254   H     0.24133   0.37107   0.24524   0.00000  Uiso   1.00
H255   H     0.05240   0.39491   0.42194   0.00000  Uiso   1.00
H256   H     0.09105   0.41409   0.35836   0.00000  Uiso   1.00
H257   H     0.01736   0.42796   0.33175   0.00000  Uiso   1.00
H258   H     0.02717   0.37388   0.34318   0.00000  Uiso   1.00
H259   H     0.31578   0.40251   0.39307   0.00000  Uiso   1.00
H260   H     0.09196   0.37048   0.25513   0.00000  Uiso   1.00
H261   H     0.09190   0.62900   0.25534   0.00000  Uiso   1.00
H262   H     0.30122   0.44258   0.21019   0.00000  Uiso   1.00
H263   H     0.03004   0.55662   0.29306   0.00000  Uiso   1.00
H264   H     0.27950   0.55681   0.29256   0.00000  Uiso   1.00
H265   H     0.28336   0.46902   0.40365   0.00000  Uiso   1.00
H266   H     0.30577   0.48869   0.48133   0.00000  Uiso   1.00
N267   N     0.04760   0.50001   0.25001   0.00000  Uiso   1.00
N268   N     0.28573   0.49998   0.25001   0.00000  Uiso   1.00
O269   O     0.12846   0.56108   0.25000   0.00000  Uiso   1.00
O270   O     0.04714   0.45849   0.40812   0.00000  Uiso   1.00
O271   O     0.20490   0.56107   0.25000   0.00000  Uiso   1.00
O272   O     0.10947   0.50000   0.32681   0.00000  Uiso   1.00
O273   O     0.18591   0.49999   0.32681   0.00000  Uiso   1.00
O274   O     0.12843   0.43893   0.24999   0.00000  Uiso   1.00
O275   O     0.20488   0.43892   0.25000   0.00000  Uiso   1.00
O276   O     0.14742   0.50001   0.17319   0.00000  Uiso   1.00
O277   O     0.22387   0.50000   0.17319   0.00000  Uiso   1.00
O278   O     0.06138   0.43533   0.20466   0.00000  Uiso   1.00
Zn279  Zn    0.11562   0.50001   0.25000   0.00000  Uiso   1.00
Zn280  Zn    0.21771   0.49999   0.25000   0.00000  Uiso   1.00
C281   C     0.50003   0.58004   0.25014   0.00000  Uiso   1.00
C282   C     0.46112   0.47728   0.40557   0.00000  Uiso   1.00
C283   C     0.54196   0.64556   0.24758   0.00000  Uiso   1.00
C284   C     0.47470   0.49255   0.35021   0.00000  Uiso   1.00
C285   C     0.54193   0.35480   0.24748   0.00000  Uiso   1.00
C286   C     0.49994   0.37582   0.25008   0.00000  Uiso   1.00
C287   C     0.45800   0.35447   0.25293   0.00000  Uiso   1.00
C288   C     0.45800   0.64525   0.25306   0.00000  Uiso   1.00
C289   C     0.50002   0.62421   0.25029   0.00000  Uiso   1.00
C290   C     0.64885   0.46816   0.22702   0.00000  Uiso   1.00
C291   C     0.36433   0.46837   0.22553   0.00000  Uiso   1.00
C292   C     0.48180   0.47603   0.48751   0.00000  Uiso   1.00
C293   C     0.35066   0.53147   0.27379   0.00000  Uiso   1.00
C294   C     0.63619   0.53155   0.27357   0.00000  Uiso   1.00
C295   C     0.49997   0.41996   0.24989   0.00000  Uiso   1.00
C296   C     0.52601   0.50020   0.14819   0.00000  Uiso   1.00
C297   C     0.60189   0.48878   0.00506   0.00000  Uiso   1.00
C298   C     0.54118   0.49678   0.09038   0.00000  Uiso   1.00
C299   C     0.41331   0.46753   0.43407   0.00000  Uiso   1.00
C300   C     0.39948   0.46490   0.48958   0.00000  Uiso   1.00
C301   C     0.43265   0.47160   0.01623   0.00000  Uiso   1.00
C302   C     0.39125   0.42018   0.15560   0.00000  Uiso   1.00
C303   C     0.49611   0.47296   0.43152   0.00000  Uiso   1.00
C304   C     0.37136   0.37604   0.16273   0.00000  Uiso   1.00
C305   C     0.38852   0.41716   0.38878   0.00000  Uiso   1.00
C306   C     0.35150   0.40479   0.36252   0.00000  Uiso   1.00
C307   C     0.51747   0.48269   0.01211   0.00000  Uiso   1.00
C308   C     0.56647   0.48137   0.48130   0.00000  Uiso   1.00
C309   C     0.57954   0.47158   0.42742   0.00000  Uiso   1.00
C310   C     0.54478   0.46541   0.40341   0.00000  Uiso   1.00
C311   C     0.50584   0.49198   0.06615   0.00000  Uiso   1.00
C312   C     0.58938   0.49574   0.05974   0.00000  Uiso   1.00
H313   H     0.61716   0.49996   0.07796   0.00000  Uiso   1.00
H314   H     0.46917   0.49573   0.09022   0.00000  Uiso   1.00
H315   H     0.41912   0.47058   0.05905   0.00000  Uiso   1.00
H316   H     0.36293   0.45772   0.01235   0.00000  Uiso   1.00
H317   H     0.55676   0.45394   0.36282   0.00000  Uiso   1.00
H318   H     0.57471   0.62955   0.24539   0.00000  Uiso   1.00
H319   H     0.42786   0.41903   0.12660   0.00000  Uiso   1.00
H320   H     0.37005   0.44004   0.13708   0.00000  Uiso   1.00
H321   H     0.33546   0.37530   0.19314   0.00000  Uiso   1.00
H322   H     0.36856   0.36434   0.12421   0.00000  Uiso   1.00
H323   H     0.39544   0.35526   0.17574   0.00000  Uiso   1.00
H324   H     0.57467   0.37107   0.24524   0.00000  Uiso   1.00
H325   H     0.38573   0.39491   0.42194   0.00000  Uiso   1.00
H326   H     0.42439   0.41409   0.35836   0.00000  Uiso   1.00
H327   H     0.35069   0.42796   0.33175   0.00000  Uiso   1.00
H328   H     0.36050   0.37388   0.34318   0.00000  Uiso   1.00
H329   H     0.64911   0.40251   0.39307   0.00000  Uiso   1.00
H330   H     0.42530   0.37048   0.25513   0.00000  Uiso   1.00
H331   H     0.42523   0.62900   0.25534   0.00000  Uiso   1.00
H332   H     0.63455   0.44258   0.21019   0.00000  Uiso   1.00
H333   H     0.36338   0.55662   0.29306   0.00000  Uiso   1.00
H334   H     0.61284   0.55681   0.29256   0.00000  Uiso   1.00
H335   H     0.61669   0.46902   0.40365   0.00000  Uiso   1.00
H336   H     0.63911   0.48869   0.48133   0.00000  Uiso   1.00
N337   N     0.38093   0.50001   0.25001   0.00000  Uiso   1.00
N338   N     0.61906   0.49998   0.25001   0.00000  Uiso   1.00
O339   O     0.46179   0.56108   0.25000   0.00000  Uiso   1.00
O340   O     0.38047   0.45849   0.40812   0.00000  Uiso   1.00
O341   O     0.53823   0.56107   0.25000   0.00000  Uiso   1.00
O342   O     0.44280   0.50000   0.32681   0.00000  Uiso   1.00
O343   O     0.51924   0.49999   0.32681   0.00000  Uiso   1.00
O344   O     0.46177   0.43893   0.24999   0.00000  Uiso   1.00
O345   O     0.53821   0.43892   0.25000   0.00000  Uiso   1.00
O346   O     0.48076   0.50001   0.17319   0.00000  Uiso   1.00
O347   O     0.55720   0.50000   0.17319   0.00000  Uiso   1.00
O348   O     0.39471   0.43533   0.20466   0.00000  Uiso   1.00
Zn349  Zn    0.44896   0.50001   0.25000   0.00000  Uiso   1.00
Zn350  Zn    0.55104   0.49999   0.25000   0.00000  Uiso   1.00
C351   C     0.83337   0.58004   0.25014   0.00000  Uiso   1.00
C352   C     0.79445   0.47728   0.40557   0.00000  Uiso   1.00
C353   C     0.87529   0.64556   0.24758   0.00000  Uiso   1.00
C354   C     0.80803   0.49255   0.35021   0.00000  Uiso   1.00
C355   C     0.87526   0.35480   0.24748   0.00000  Uiso   1.00
C356   C     0.83328   0.37582   0.25008   0.00000  Uiso   1.00
C357   C     0.79133   0.35447   0.25293   0.00000  Uiso   1.00
C358   C     0.79134   0.64525   0.25306   0.00000  Uiso   1.00
C359   C     0.83335   0.62421   0.25029   0.00000  Uiso   1.00
C360   C     0.98219   0.46816   0.22702   0.00000  Uiso   1.00
C361   C     0.69767   0.46837   0.22553   0.00000  Uiso   1.00
C362   C     0.81513   0.47603   0.48751   0.00000  Uiso   1.00
C363   C     0.68399   0.53147   0.27379   0.00000  Uiso   1.00
C364   C     0.96952   0.53155   0.27357   0.00000  Uiso   1.00
C365   C     0.83330   0.41996   0.24989   0.00000  Uiso   1.00
C366   C     0.85935   0.50020   0.14819   0.00000  Uiso   1.00
C367   C     0.93522   0.48878   0.00506   0.00000  Uiso   1.00
C368   C     0.87451   0.49678   0.09038   0.00000  Uiso   1.00
C369   C     0.74665   0.46753   0.43407   0.00000  Uiso   1.00
C370   C     0.73282   0.46490   0.48958   0.00000  Uiso   1.00
C371   C     0.76599   0.47160   0.01623   0.00000  Uiso   1.00
C372   C     0.72458   0.42018   0.15560   0.00000  Uiso   1.00
C373   C     0.82944   0.47296   0.43152   0.00000  Uiso   1.00
C374   C     0.70469   0.37604   0.16273   0.00000  Uiso   1.00
C375   C     0.72185   0.41716   0.38878   0.00000  Uiso   1.00
C376   C     0.68483   0.40479   0.36252   0.00000  Uiso   1.00
C377   C     0.85081   0.48269   0.01211   0.00000  Uiso   1.00
C378   C     0.89981   0.48137   0.48130   0.00000  Uiso   1.00
C379   C     0.91288   0.47158   0.42742   0.00000  Uiso   1.00
C380   C     0.87811   0.46541   0.40341   0.00000  Uiso   1.00
C381   C     0.83918   0.49198   0.06615   0.00000  Uiso   1.00
C382   C     0.92271   0.49574   0.05974   0.00000  Uiso   1.00
H383   H     0.95049   0.49996   0.07796   0.00000  Uiso   1.00
H384   H     0.80251   0.49573   0.09022   0.00000  Uiso   1.00
H385   H     0.75246   0.47058   0.05905   0.00000  Uiso   1.00
H386   H     0.69626   0.45772   0.01235   0.00000  Uiso   1.00
H387   H     0.89009   0.45394   0.36282   0.00000  Uiso   1.00
H388   H     0.90804   0.62955   0.24539   0.00000  Uiso   1.00
H389   H     0.76119   0.41903   0.12660   0.00000  Uiso   1.00
H390   H     0.70339   0.44004   0.13708   0.00000  Uiso   1.00
H391   H     0.66879   0.37530   0.19314   0.00000  Uiso   1.00
H392   H     0.70189   0.36434   0.12421   0.00000  Uiso   1.00
H393   H     0.72877   0.35526   0.17574   0.00000  Uiso   1.00
H394   H     0.90800   0.37107   0.24524   0.00000  Uiso   1.00
H395   H     0.71906   0.39491   0.42194   0.00000  Uiso   1.00
H396   H     0.75772   0.41409   0.35836   0.00000  Uiso   1.00
H397   H     0.68402   0.42796   0.33175   0.00000  Uiso   1.00
H398   H     0.69384   0.37388   0.34318   0.00000  Uiso   1.00
H399   H     0.98244   0.40251   0.39307   0.00000  Uiso   1.00
H400   H     0.75863   0.37048   0.25513   0.00000  Uiso   1.00
H401   H     0.75856   0.62900   0.25534   0.00000  Uiso   1.00
H402   H     0.96789   0.44258   0.21019   0.00000  Uiso   1.00
H403   H     0.69671   0.55662   0.29306   0.00000  Uiso   1.00
H404   H     0.94617   0.55681   0.29256   0.00000  Uiso   1.00
H405   H     0.95003   0.46902   0.40365   0.00000  Uiso   1.00
H406   H     0.97244   0.48869   0.48133   0.00000  Uiso   1.00
N407   N     0.71426   0.50001   0.25001   0.00000  Uiso   1.00
N408   N     0.95239   0.49998   0.25001   0.00000  Uiso   1.00
O409   O     0.79512   0.56108   0.25000   0.00000  Uiso   1.00
O410   O     0.71380   0.45849   0.40812   0.00000  Uiso   1.00
O411   O     0.87157   0.56107   0.25000   0.00000  Uiso   1.00
O412   O     0.77613   0.50000   0.32681   0.00000  Uiso   1.00
O413   O     0.85258   0.49999   0.32681   0.00000  Uiso   1.00
O414   O     0.79510   0.43893   0.24999   0.00000  Uiso   1.00
O415   O     0.87154   0.43892   0.25000   0.00000  Uiso   1.00
O416   O     0.81409   0.50001   0.17319   0.00000  Uiso   1.00
O417   O     0.89053   0.50000   0.17319   0.00000  Uiso   1.00
O418   O     0.72805   0.43533   0.20466   0.00000  Uiso   1.00
Zn419  Zn    0.78229   0.50001   0.25000   0.00000  Uiso   1.00
Zn420  Zn    0.88438   0.49999   0.25000   0.00000  Uiso   1.00
C421   C     0.16670   0.91337   0.25014   0.00000  Uiso   1.00
C422   C     0.12779   0.81061   0.40557   0.00000  Uiso   1.00
C423   C     0.20863   0.97890   0.24758   0.00000  Uiso   1.00
C424   C     0.14137   0.82589   0.35021   0.00000  Uiso   1.00
C425   C     0.20859   0.68813   0.24748   0.00000  Uiso   1.00
C426   C     0.16661   0.70915   0.25008   0.00000  Uiso   1.00
C427   C     0.12467   0.68780   0.25293   0.00000  Uiso   1.00
C428   C     0.12467   0.97858   0.25306   0.00000  Uiso   1.00
C429   C     0.16668   0.95754   0.25029   0.00000  Uiso   1.00
C430   C     0.31552   0.80149   0.22702   0.00000  Uiso   1.00
C431   C     0.03100   0.80170   0.22553   0.00000  Uiso   1.00
C432   C     0.14847   0.80936   0.48751   0.00000  Uiso   1.00
C433   C     0.01733   0.86481   0.27379   0.00000  Uiso   1.00
C434   C     0.30285   0.86488   0.27357   0.00000  Uiso   1.00
C435   C     0.16664   0.75330   0.24989   0.00000  Uiso   1.00
C436   C     0.19268   0.83353   0.14819   0.00000  Uiso   1.00
C437   C     0.26856   0.82212   0.00506   0.00000  Uiso   1.00
C438   C     0.20784   0.83011   0.09038   0.00000  Uiso   1.00
C439   C     0.07998   0.80086   0.43407   0.00000  Uiso   1.00
C440   C     0.06615   0.79824   0.48958   0.00000  Uiso   1.00
C441   C     0.09932   0.80493   0.01623   0.00000  Uiso   1.00
C442   C     0.05791   0.75351   0.15560   0.00000  Uiso   1.00
C443   C     0.16277   0.80630   0.43152   0.00000  Uiso   1.00
C444   C     0.03802   0.70938   0.16273   0.00000  Uiso   1.00
C445   C     0.05518   0.75049   0.38878   0.00000  Uiso   1.00
C446   C     0.01816   0.73813   0.36252   0.00000  Uiso   1.00
C447   C     0.18414   0.81603   0.01211   0.00000  Uiso   1.00
C448   C     0.23314   0.81470   0.48130   0.00000  Uiso   1.00
C449   C     0.24621   0.80491   0.42742   0.00000  Uiso   1.00
C450   C     0.21144   0.79875   0.40341   0.00000  Uiso   1.00
C451   C     0.17251   0.82531   0.06615   0.00000  Uiso   1.00
C452   C     0.25605   0.82907   0.05974   0.00000  Uiso   1.00
H453   H     0.28383   0.83329   0.07796   0.00000  Uiso   1.00
H454   H     0.13584   0.82907   0.09022   0.00000  Uiso   1.00
H455   H     0.08579   0.80391   0.05905   0.00000  Uiso   1.00
H456   H     0.02959   0.79106   0.01235   0.00000  Uiso   1.00
H457   H     0.22343   0.78727   0.36282   0.00000  Uiso   1.00
H458   H     0.24138   0.96288   0.24539   0.00000  Uiso   1.00
H459   H     0.09453   0.75236   0.12660   0.00000  Uiso   1.00
H460   H     0.03672   0.77337   0.13708   0.00000  Uiso   1.00
H461   H     0.00212   0.70863   0.19314   0.00000  Uiso   1.00
H462   H     0.03522   0.69767   0.12421   0.00000  Uiso   1.00
H463   H     0.06211   0.68860   0.17574   0.00000  Uiso   1.00
H464   H     0.24133   0.70441   0.24524   0.00000  Uiso   1.00
H465   H     0.05240   0.72825   0.42194   0.00000  Uiso   1.00
H466   H     0.09105   0.74743   0.35836   0.00000  Uiso   1.00
H467   H     0.01736   0.76129   0.33175   0.00000  Uiso   1.00
H468   H     0.02717   0.70721   0.34318   0.00000  Uiso   1.00
H469   H     0.31578   0.73585   0.39307   0.00000  Uiso   1.00
H470   H     0.09196   0.70381   0.25513   0.00000  Uiso   1.00
H471   H     0.09190   0.96234   0.25534   0.00000  Uiso   1.00
H472   H     0.30122   0.77592   0.21019   0.00000  Uiso   1.00
H473   H     0.03004   0.88995   0.29306   0.00000  Uiso   1.00
H474   H     0.27950   0.89014   0.29256   0.00000  Uiso   1.00
H475   H     0.28336   0.80235   0.40365   0.00000  Uiso   1.00
H476   H     0.30577   0.82203   0.48133   0.00000  Uiso   1.00
N477   N     0.04760   0.83334   0.25001   0.00000  Uiso   1.00
N478   N     0.28573   0.83331   0.25001   0.00000  Uiso   1.00
O479   O     0.12846   0.89442   0.25000   0.00000  Uiso   1.00
O480   O     0.04714   0.79183   0.40812   0.00000  Uiso   1.00
O481   O     0.20490   0.89441   0.25000   0.00000  Uiso   1.00
O482   O     0.10947   0.83333   0.32681   0.00000  Uiso   1.00
O483   O     0.18591   0.83332   0.32681   0.00000  Uiso   1.00
O484   O     0.12843   0.77226   0.24999   0.00000  Uiso   1.00
O485   O     0.20488   0.77225   0.25000   0.00000  Uiso   1.00
O486   O     0.14742   0.83335   0.17319   0.00000  Uiso   1.00
O487   O     0.22387   0.83334   0.17319   0.00000  Uiso   1.00
O488   O     0.06138   0.76867   0.20466   0.00000  Uiso   1.00
Zn489  Zn    0.11562   0.83334   0.25000   0.00000  Uiso   1.00
Zn490  Zn    0.21771   0.83333   0.25000   0.00000  Uiso   1.00
C491   C     0.50003   0.91337   0.25014   0.00000  Uiso   1.00
C492   C     0.46112   0.81061   0.40557   0.00000  Uiso   1.00
C493   C     0.54196   0.97890   0.24758   0.00000  Uiso   1.00
C494   C     0.47470   0.82589   0.35021   0.00000  Uiso   1.00
C495   C     0.54193   0.68813   0.24748   0.00000  Uiso   1.00
C496   C     0.49994   0.70915   0.25008   0.00000  Uiso   1.00
C497   C     0.45800   0.68780   0.25293   0.00000  Uiso   1.00
C498   C     0.45800   0.97858   0.25306   0.00000  Uiso   1.00
C499   C     0.50002   0.95754   0.25029   0.00000  Uiso   1.00
C500   C     0.64885   0.80149   0.22702   0.00000  Uiso   1.00
C501   C     0.36433   0.80170   0.22553   0.00000  Uiso   1.00
C502   C     0.48180   0.80936   0.48751   0.00000  Uiso   1.00
C503   C     0.35066   0.86481   0.27379   0.00000  Uiso   1.00
C504   C     0.63619   0.86488   0.27357   0.00000  Uiso   1.00
C505   C     0.49997   0.75330   0.24989   0.00000  Uiso   1.00
C506   C     0.52601   0.83353   0.14819   0.00000  Uiso   1.00
C507   C     0.60189   0.82212   0.00506   0.00000  Uiso   1.00
C508   C     0.54118   0.83011   0.09038   0.00000  Uiso   1.00
C509   C     0.41331   0.80086   0.43407   0.00000  Uiso   1.00
C510   C     0.39948   0.79824   0.48958   0.00000  Uiso   1.00
C511   C     0.43265   0.80493   0.01623   0.00000  Uiso   1.00
C512   C     0.39125   0.75351   0.15560   0.00000  Uiso   1.00
C513   C     0.49611   0.80630   0.43152   0.00000  Uiso   1.00
C514   C     0.37136   0.70938   0.16273   0.00000  Uiso   1.00
C515   C     0.38852   0.75049   0.38878   0.00000  Uiso   1.00
C516   C     0.35150   0.73813   0.36252   0.00000  Uiso   1.00
C517   C     0.51747   0.81603   0.01211   0.00000  Uiso   1.00
C518   C     0.56647   0.81470   0.48130   0.00000  Uiso   1.00
C519   C     0.57954   0.80491   0.42742   0.00000  Uiso   1.00
C520   C     0.54478   0.79875   0.40341   0.00000  Uiso   1.00
C521   C     0.50584   0.82531   0.06615   0.00000  Uiso   1.00
C522   C     0.58938   0.82907   0.05974   0.00000  Uiso   1.00
H523   H     0.61716   0.83329   0.07796   0.00000  Uiso   1.00
H524   H     0.46917   0.82907   0.09022   0.00000  Uiso   1.00
H525   H     0.41912   0.80391   0.05905   0.00000  Uiso   1.00
H526   H     0.36293   0.79106   0.01235   0.00000  Uiso   1.00
H527   H     0.55676   0.78727   0.36282   0.00000  Uiso   1.00
H528   H     0.57471   0.96288   0.24539   0.00000  Uiso   1.00
H529   H     0.42786   0.75236   0.12660   0.00000  Uiso   1.00
H530   H     0.37005   0.77337   0.13708   0.00000  Uiso   1.00
H531   H     0.33546   0.70863   0.19314   0.00000  Uiso   1.00
H532   H     0.36856   0.69767   0.12421   0.00000  Uiso   1.00
H533   H     0.39544   0.68860   0.17574   0.00000  Uiso   1.00
H534   H     0.57467   0.70441   0.24524   0.00000  Uiso   1.00
H535   H     0.38573   0.72825   0.42194   0.00000  Uiso   1.00
H536   H     0.42439   0.74743   0.35836   0.00000  Uiso   1.00
H537   H     0.35069   0.76129   0.33175   0.00000  Uiso   1.00
H538   H     0.36050   0.70721   0.34318   0.00000  Uiso   1.00
H539   H     0.64911   0.73585   0.39307   0.00000  Uiso   1.00
H540   H     0.42530   0.70381   0.25513   0.00000  Uiso   1.00
H541   H     0.42523   0.96234   0.25534   0.00000  Uiso   1.00
H542   H     0.63455   0.77592   0.21019   0.00000  Uiso   1.00
H543   H     0.36338   0.88995   0.29306   0.00000  Uiso   1.00
H544   H     0.61284   0.89014   0.29256   0.00000  Uiso   1.00
H545   H     0.61669   0.80235   0.40365   0.00000  Uiso   1.00
H546   H     0.63911   0.82203   0.48133   0.00000  Uiso   1.00
N547   N     0.38093   0.83334   0.25001   0.00000  Uiso   1.00
N548   N     0.61906   0.83331   0.25001   0.00000  Uiso   1.00
O549   O     0.46179   0.89442   0.25000   0.00000  Uiso   1.00
O550   O     0.38047   0.79183   0.40812   0.00000  Uiso   1.00
O551   O     0.53823   0.89441   0.25000   0.00000  Uiso   1.00
O552   O     0.44280   0.83333   0.32681   0.00000  Uiso   1.00
O553   O     0.51924   0.83332   0.32681   0.00000  Uiso   1.00
O554   O     0.46177   0.77226   0.24999   0.00000  Uiso   1.00
O555   O     0.53821   0.77225   0.25000   0.00000  Uiso   1.00
O556   O     0.48076   0.83335   0.17319   0.00000  Uiso   1.00
O557   O     0.55720   0.83334   0.17319   0.00000  Uiso   1.00
O558   O     0.39471   0.76867   0.20466   0.00000  Uiso   1.00
Zn559  Zn    0.44896   0.83334   0.25000   0.00000  Uiso   1.00
Zn560  Zn    0.55104   0.83333   0.25000   0.00000  Uiso   1.00
C561   C     0.83337   0.91337   0.25014   0.00000  Uiso   1.00
C562   C     0.79445   0.81061   0.40557   0.00000  Uiso   1.00
C563   C     0.87529   0.97890   0.24758   0.00000  Uiso   1.00
C564   C     0.80803   0.82589   0.35021   0.00000  Uiso   1.00
C565   C     0.87526   0.68813   0.24748   0.00000  Uiso   1.00
C566   C     0.83328   0.70915   0.25008   0.00000  Uiso   1.00
C567   C     0.79133   0.68780   0.25293   0.00000  Uiso   1.00
C568   C     0.79134   0.97858   0.25306   0.00000  Uiso   1.00
C569   C     0.83335   0.95754   0.25029   0.00000  Uiso   1.00
C570   C     0.98219   0.80149   0.22702   0.00000  Uiso   1.00
C571   C     0.69767   0.80170   0.22553   0.00000  Uiso   1.00
C572   C     0.81513   0.80936   0.48751   0.00000  Uiso   1.00
C573   C     0.68399   0.86481   0.27379   0.00000  Uiso   1.00
C574   C     0.96952   0.86488   0.27357   0.00000  Uiso   1.00
C575   C     0.83330   0.75330   0.24989   0.00000  Uiso   1.00
C576   C     0.85935   0.83353   0.14819   0.00000  Uiso   1.00
C577   C     0.93522   0.82212   0.00506   0.00000  Uiso   1.00
C578   C     0.87451   0.83011   0.09038   0.00000  Uiso   1.00
C579   C     0.74665   0.80086   0.43407   0.00000  Uiso   1.00
C580   C     0.73282   0.79824   0.48958   0.00000  Uiso   1.00
C581   C     0.76599   0.80493   0.01623   0.00000  Uiso   1.00
C582   C     0.72458   0.75351   0.15560   0.00000  Uiso   1.00
C583   C     0.82944   0.80630   0.43152   0.00000  Uiso   1.00
C584   C     0.70469   0.70938   0.16273   0.00000  Uiso   1.00
C585   C     0.72185   0.75049   0.38878   0.00000  Uiso   1.00
C586   C     0.68483   0.73813   0.36252   0.00000  Uiso   1.00
C587   C     0.85081   0.81603   0.01211   0.00000  Uiso   1.00
C588   C     0.89981   0.81470   0.48130   0.00000  Uiso   1.00
C589   C     0.91288   0.80491   0.42742   0.00000  Uiso   1.00
C590   C     0.87811   0.79875   0.40341   0.00000  Uiso   1.00
C591   C     0.83918   0.82531   0.06615   0.00000  Uiso   1.00
C592   C     0.92271   0.82907   0.05974   0.00000  Uiso   1.00
H593   H     0.95049   0.83329   0.07796   0.00000  Uiso   1.00
H594   H     0.80251   0.82907   0.09022   0.00000  Uiso   1.00
H595   H     0.75246   0.80391   0.05905   0.00000  Uiso   1.00
H596   H     0.69626   0.79106   0.01235   0.00000  Uiso   1.00
H597   H     0.89009   0.78727   0.36282   0.00000  Uiso   1.00
H598   H     0.90804   0.96288   0.24539   0.00000  Uiso   1.00
H599   H     0.76119   0.75236   0.12660   0.00000  Uiso   1.00
H600   H     0.70339   0.77337   0.13708   0.00000  Uiso   1.00
H601   H     0.66879   0.70863   0.19314   0.00000  Uiso   1.00
H602   H     0.70189   0.69767   0.12421   0.00000  Uiso   1.00
H603   H     0.72877   0.68860   0.17574   0.00000  Uiso   1.00
H604   H     0.90800   0.70441   0.24524   0.00000  Uiso   1.00
H605   H     0.71906   0.72825   0.42194   0.00000  Uiso   1.00
H606   H     0.75772   0.74743   0.35836   0.00000  Uiso   1.00
H607   H     0.68402   0.76129   0.33175   0.00000  Uiso   1.00
H608   H     0.69384   0.70721   0.34318   0.00000  Uiso   1.00
H609   H     0.98244   0.73585   0.39307   0.00000  Uiso   1.00
H610   H     0.75863   0.70381   0.25513   0.00000  Uiso   1.00
H611   H     0.75856   0.96234   0.25534   0.00000  Uiso   1.00
H612   H     0.96789   0.77592   0.21019   0.00000  Uiso   1.00
H613   H     0.69671   0.88995   0.29306   0.00000  Uiso   1.00
H614   H     0.94617   0.89014   0.29256   0.00000  Uiso   1.00
H615   H     0.95003   0.80235   0.40365   0.00000  Uiso   1.00
H616   H     0.97244   0.82203   0.48133   0.00000  Uiso   1.00
N617   N     0.71426   0.83334   0.25001   0.00000  Uiso   1.00
N618   N     0.95239   0.83331   0.25001   0.00000  Uiso   1.00
O619   O     0.79512   0.89442   0.25000   0.00000  Uiso   1.00
O620   O     0.71380   0.79183   0.40812   0.00000  Uiso   1.00
O621   O     0.87157   0.89441   0.25000   0.00000  Uiso   1.00
O622   O     0.77613   0.83333   0.32681   0.00000  Uiso   1.00
O623   O     0.85258   0.83332   0.32681   0.00000  Uiso   1.00
O624   O     0.79510   0.77226   0.24999   0.00000  Uiso   1.00
O625   O     0.87154   0.77225   0.25000   0.00000  Uiso   1.00
O626   O     0.81409   0.83335   0.17319   0.00000  Uiso   1.00
O627   O     0.89053   0.83334   0.17319   0.00000  Uiso   1.00
O628   O     0.72805   0.76867   0.20466   0.00000  Uiso   1.00
Zn629  Zn    0.78229   0.83334   0.25000   0.00000  Uiso   1.00
Zn630  Zn    0.88438   0.83333   0.25000   0.00000  Uiso   1.00
C631   C     0.16670   0.24671   0.75014   0.00000  Uiso   1.00
C632   C     0.12779   0.14394   0.90557   0.00000  Uiso   1.00
C633   C     0.20863   0.31223   0.74758   0.00000  Uiso   1.00
C634   C     0.14137   0.15922   0.85021   0.00000  Uiso   1.00
C635   C     0.20859   0.02147   0.74748   0.00000  Uiso   1.00
C636   C     0.16661   0.04248   0.75008   0.00000  Uiso   1.00
C637   C     0.12467   0.02113   0.75293   0.00000  Uiso   1.00
C638   C     0.12467   0.31191   0.75306   0.00000  Uiso   1.00
C639   C     0.16668   0.29087   0.75029   0.00000  Uiso   1.00
C640   C     0.31552   0.13482   0.72702   0.00000  Uiso   1.00
C641   C     0.03100   0.13504   0.72553   0.00000  Uiso   1.00
C642   C     0.14847   0.14270   0.98751   0.00000  Uiso   1.00
C643   C     0.01733   0.19814   0.77379   0.00000  Uiso   1.00
C644   C     0.30285   0.19822   0.77357   0.00000  Uiso   1.00
C645   C     0.16664   0.08663   0.74989   0.00000  Uiso   1.00
C646   C     0.19268   0.16687   0.64819   0.00000  Uiso   1.00
C647   C     0.26856   0.15545   0.50506   0.00000  Uiso   1.00
C648   C     0.20784   0.16345   0.59038   0.00000  Uiso   1.00
C649   C     0.07998   0.13420   0.93407   0.00000  Uiso   1.00
C650   C     0.06615   0.13157   0.98958   0.00000  Uiso   1.00
C651   C     0.09932   0.13826   0.51623   0.00000  Uiso   1.00
C652   C     0.05791   0.08685   0.65560   0.00000  Uiso   1.00
C653   C     0.16277   0.13963   0.93152   0.00000  Uiso   1.00
C654   C     0.03802   0.04271   0.66273   0.00000  Uiso   1.00
C655   C     0.05518   0.08382   0.88878   0.00000  Uiso   1.00
C656   C     0.01816   0.07146   0.86252   0.00000  Uiso   1.00
C657   C     0.18414   0.14936   0.51211   0.00000  Uiso   1.00
C658   C     0.23314   0.14803   0.98130   0.00000  Uiso   1.00
C659   C     0.24621   0.13825   0.92742   0.00000  Uiso   1.00
C660   C     0.21144   0.13208   0.90341   0.00000  Uiso   1.00
C661   C     0.17251   0.15864   0.56615   0.00000  Uiso   1.00
C662   C     0.25605   0.16240   0.55974   0.00000  Uiso   1.00
H663   H     0.28383   0.16662   0.57796   0.00000  Uiso   1.00
H664   H     0.13584   0.16240   0.59022   0.00000  Uiso   1.00
H665   H     0.08579   0.13724   0.55905   0.00000  Uiso   1.00
H666   H     0.02959   0.12439   0.51235   0.00000  Uiso   1.00
H667   H     0.22343   0.12060   0.86282   0.00000  Uiso   1.00
H668   H     0.24138   0.29622   0.74539   0.00000  Uiso   1.00
H669   H     0.09453   0.08569   0.62660   0.00000  Uiso   1.00
H670   H     0.03672   0.10671   0.63708   0.00000  Uiso   1.00
H671   H     0.00212   0.04196   0.69314   0.00000  Uiso   1.00
H672   H     0.03522   0.03100   0.62421   0.00000  Uiso   1.00
H673   H     0.06211   0.02193   0.67574   0.00000  Uiso   1.00
H674   H     0.24133   0.03774   0.74524   0.00000  Uiso   1.00
H675   H     0.05240   0.06158   0.92194   0.00000  Uiso   1.00
H676   H     0.09105   0.08076   0.85836   0.00000  Uiso   1.00
H677   H     0.01736   0.09462   0.83175   0.00000  Uiso   1.00
H678   H     0.02717   0.04055   0.84318   0.00000  Uiso   1.00
H679   H     0.31578   0.06918   0.89307   0.00000  Uiso   1.00
H680   H     0.09196   0.03714   0.75513   0.00000  Uiso   1.00
H681   H     0.09190   0.29567   0.75534   0.00000  Uiso   1.00
H682   H     0.30122   0.10925   0.71019   0.00000  Uiso   1.00
H683   H     0.03004   0.22328   0.79306   0.00000  Uiso   1.00
H684   H     0.27950   0.22347   0.79256   0.00000  Uiso   1.00
H685   H     0.28336   0.13569   0.90365   0.00000  Uiso   1.00
H686   H     0.30577   0.15536   0.98133   0.00000  Uiso   1.00
N687   N     0.04760   0.16668   0.75001   0.00000  Uiso   1.00
N688   N     0.28573   0.16665   0.75001   0.00000  Uiso   1.00
O689   O     0.12846   0.22775   0.75000   0.00000  Uiso   1.00
O690   O     0.04714   0.12516   0.90812   0.00000  Uiso   1.00
O691   O     0.20490   0.22774   0.75000   0.00000  Uiso   1.00
O692   O     0.10947   0.16666   0.82681   0.00000  Uiso   1.00
O693   O     0.18591   0.16665   0.82681   0.00000  Uiso   1.00
O694   O     0.12843   0.10559   0.74999   0.00000  Uiso   1.00
O695   O     0.20488   0.10558   0.75000   0.00000  Uiso   1.00
O696   O     0.14742   0.16668   0.67319   0.00000  Uiso   1.00
O697   O     0.22387   0.16667   0.67319   0.00000  Uiso   1.00
O698   O     0.06138   0.10200   0.70466   0.00000  Uiso   1.00
Zn699  Zn    0.11562   0.16667   0.75000   0.00000  Uiso   1.00
Zn700  Zn    0.21771   0.16666   0.75000   0.00000  Uiso   1.00
C701   C     0.50003   0.24671   0.75014   0.00000  Uiso   1.00
C702   C     0.46112   0.14394   0.90557   0.00000  Uiso   1.00
C703   C     0.54196   0.31223   0.74758   0.00000  Uiso   1.00
C704   C     0.47470   0.15922   0.85021   0.00000  Uiso   1.00
C705   C     0.54193   0.02147   0.74748   0.00000  Uiso   1.00
C706   C     0.49994   0.04248   0.75008   0.00000  Uiso   1.00
C707   C     0.45800   0.02113   0.75293   0.00000  Uiso   1.00
C708   C     0.45800   0.31191   0.75306   0.00000  Uiso   1.00
C709   C     0.50002   0.29087   0.75029   0.00000  Uiso   1.00
C710   C     0.64885   0.13482   0.72702   0.00000  Uiso   1.00
C711   C     0.36433   0.13504   0.72553   0.00000  Uiso   1.00
C712   C     0.48180   0.14270   0.98751   0.00000  Uiso   1.00
C713   C     0.35066   0.19814   0.77379   0.00000  Uiso   1.00
C714   C     0.63619   0.19822   0.77357   0.00000  Uiso   1.00
C715   C     0.49997   0.08663   0.74989   0.00000  Uiso   1.00
C716   C     0.52601   0.16687   0.64819   0.00000  Uiso   1.00
C717   C     0.60189   0.15545   0.50506   0.00000  Uiso   1.00
C718   C     0.54118   0.16345   0.59038   0.00000  Uiso   1.00
C719   C     0.41331   0.13420   0.93407   0.00000  Uiso   1.00
C720   C     0.39948   0.13157   0.98958   0.00000  Uiso   1.00
C721   C     0.43265   0.13826   0.51623   0.00000  Uiso   1.00
C722   C     0.39125   0.08685   0.65560   0.00000  Uiso   1.00
C723   C     0.49611   0.13963   0.93152   0.00000  Uiso   1.00
C724   C     0.37136   0.04271   0.66273   0.00000  Uiso   1.00
C725   C     0.38852   0.08382   0.88878   0.00000  Uiso   1.00
C726   C     0.35150   0.07146   0.86252   0.00000  Uiso   1.00
C727   C     0.51747   0.14936   0.51211   0.00000  Uiso   1.00
C728   C     0.56647   0.14803   0.98130   0.00000  Uiso   1.00
C729   C     0.57954   0.13825   0.92742   0.00000  Uiso   1.00
C730   C     0.54478   0.13208   0.90341   0.00000  Uiso   1.00
C731   C     0.50584   0.15864   0.56615   0.00000  Uiso   1.00
C732   C     0.58938   0.16240   0.55974   0.00000  Uiso   1.00
H733   H     0.61716   0.16662   0.57796   0.00000  Uiso   1.00
H734   H     0.46917   0.16240   0.59022   0.00000  Uiso   1.00
H735   H     0.41912   0.13724   0.55905   0.00000  Uiso   1.00
H736   H     0.36293   0.12439   0.51235   0.00000  Uiso   1.00
H737   H     0.55676   0.12060   0.86282   0.00000  Uiso   1.00
H738   H     0.57471   0.29622   0.74539   0.00000  Uiso   1.00
H739   H     0.42786   0.08569   0.62660   0.00000  Uiso   1.00
H740   H     0.37005   0.10671   0.63708   0.00000  Uiso   1.00
H741   H     0.33546   0.04196   0.69314   0.00000  Uiso   1.00
H742   H     0.36856   0.03100   0.62421   0.00000  Uiso   1.00
H743   H     0.39544   0.02193   0.67574   0.00000  Uiso   1.00
H744   H     0.57467   0.03774   0.74524   0.00000  Uiso   1.00
H745   H     0.38573   0.06158   0.92194   0.00000  Uiso   1.00
H746   H     0.42439   0.08076   0.85836   0.00000  Uiso   1.00
H747   H     0.35069   0.09462   0.83175   0.00000  Uiso   1.00
H748   H     0.36050   0.04055   0.84318   0.00000  Uiso   1.00
H749   H     0.64911   0.06918   0.89307   0.00000  Uiso   1.00
H750   H     0.42530   0.03714   0.75513   0.00000  Uiso   1.00
H751   H     0.42523   0.29567   0.75534   0.00000  Uiso   1.00
H752   H     0.63455   0.10925   0.71019   0.00000  Uiso   1.00
H753   H     0.36338   0.22328   0.79306   0.00000  Uiso   1.00
H754   H     0.61284   0.22347   0.79256   0.00000  Uiso   1.00
H755   H     0.61669   0.13569   0.90365   0.00000  Uiso   1.00
H756   H     0.63911   0.15536   0.98133   0.00000  Uiso   1.00
N757   N     0.38093   0.16668   0.75001   0.00000  Uiso   1.00
N758   N     0.61906   0.16665   0.75001   0.00000  Uiso   1.00
O759   O     0.46179   0.22775   0.75000   0.00000  Uiso   1.00
O760   O     0.38047   0.12516   0.90812   0.00000  Uiso   1.00
O761   O     0.53823   0.22774   0.75000   0.00000  Uiso   1.00
O762   O     0.44280   0.16666   0.82681   0.00000  Uiso   1.00
O763   O     0.51924   0.16665   0.82681   0.00000  Uiso   1.00
O764   O     0.46177   0.10559   0.74999   0.00000  Uiso   1.00
O765   O     0.53821   0.10558   0.75000   0.00000  Uiso   1.00
O766   O     0.48076   0.16668   0.67319   0.00000  Uiso   1.00
O767   O     0.55720   0.16667   0.67319   0.00000  Uiso   1.00
O768   O     0.39471   0.10200   0.70466   0.00000  Uiso   1.00
Zn769  Zn    0.44896   0.16667   0.75000   0.00000  Uiso   1.00
Zn770  Zn    0.55104   0.16666   0.75000   0.00000  Uiso   1.00
C771   C     0.83337   0.24671   0.75014   0.00000  Uiso   1.00
C772   C     0.79445   0.14394   0.90557   0.00000  Uiso   1.00
C773   C     0.87529   0.31223   0.74758   0.00000  Uiso   1.00
C774   C     0.80803   0.15922   0.85021   0.00000  Uiso   1.00
C775   C     0.87526   0.02147   0.74748   0.00000  Uiso   1.00
C776   C     0.83328   0.04248   0.75008   0.00000  Uiso   1.00
C777   C     0.79133   0.02113   0.75293   0.00000  Uiso   1.00
C778   C     0.79134   0.31191   0.75306   0.00000  Uiso   1.00
C779   C     0.83335   0.29087   0.75029   0.00000  Uiso   1.00
C780   C     0.98219   0.13482   0.72702   0.00000  Uiso   1.00
C781   C     0.69767   0.13504   0.72553   0.00000  Uiso   1.00
C782   C     0.81513   0.14270   0.98751   0.00000  Uiso   1.00
C783   C     0.68399   0.19814   0.77379   0.00000  Uiso   1.00
C784   C     0.96952   0.19822   0.77357   0.00000  Uiso   1.00
C785   C     0.83330   0.08663   0.74989   0.00000  Uiso   1.00
C786   C     0.85935   0.16687   0.64819   0.00000  Uiso   1.00
C787   C     0.93522   0.15545   0.50506   0.00000  Uiso   1.00
C788   C     0.87451   0.16345   0.59038   0.00000  Uiso   1.00
C789   C     0.74665   0.13420   0.93407   0.00000  Uiso   1.00
C790   C     0.73282   0.13157   0.98958   0.00000  Uiso   1.00
C791   C     0.76599   0.13826   0.51623   0.00000  Uiso   1.00
C792   C     0.72458   0.08685   0.65560   0.00000  Uiso   1.00
C793   C     0.82944   0.13963   0.93152   0.00000  Uiso   1.00
C794   C     0.70469   0.04271   0.66273   0.00000  Uiso   1.00
C795   C     0.72185   0.08382   0.88878   0.00000  Uiso   1.00
C796   C     0.68483   0.07146   0.86252   0.00000  Uiso   1.00
C797   C     0.85081   0.14936   0.51211   0.00000  Uiso   1.00
C798   C     0.89981   0.14803   0.98130   0.00000  Uiso   1.00
C799   C     0.91288   0.13825   0.92742   0.00000  Uiso   1.00
C800   C     0.87811   0.13208   0.90341   0.00000  Uiso   1.00
C801   C     0.83918   0.15864   0.56615   0.00000  Uiso   1.00
C802   C     0.92271   0.16240   0.55974   0.00000  Uiso   1.00
H803   H     0.95049   0.16662   0.57796   0.00000  Uiso   1.00
H804   H     0.80251   0.16240   0.59022   0.00000  Uiso   1.00
H805   H     0.75246   0.13724   0.55905   0.00000  Uiso   1.00
H806   H     0.69626   0.12439   0.51235   0.00000  Uiso   1.00
H807   H     0.89009   0.12060   0.86282   0.00000  Uiso   1.00
H808   H     0.90804   0.29622   0.74539   0.00000  Uiso   1.00
H809   H     0.76119   0.08569   0.62660   0.00000  Uiso   1.00
H810   H     0.70339   0.10671   0.63708   0.00000  Uiso   1.00
H811   H     0.66879   0.04196   0.69314   0.00000  Uiso   1.00
H812   H     0.70189   0.03100   0.62421   0.00000  Uiso   1.00
H813   H     0.72877   0.02193   0.67574   0.00000  Uiso   1.00
H814   H     0.90800   0.03774   0.74524   0.00000  Uiso   1.00
H815   H     0.71906   0.06158   0.92194   0.00000  Uiso   1.00
H816   H     0.75772   0.08076   0.85836   0.00000  Uiso   1.00
H817   H     0.68402   0.09462   0.83175   0.00000  Uiso   1.00
H818   H     0.69384   0.04055   0.84318   0.00000  Uiso   1.00
H819   H     0.98244   0.06918   0.89307   0.00000  Uiso   1.00
H820   H     0.75863   0.03714   0.75513   0.00000  Uiso   1.00
H821   H     0.75856   0.29567   0.75534   0.00000  Uiso   1.00
H822   H     0.96789   0.10925   0.71019   0.00000  Uiso   1.00
H823   H     0.69671   0.22328   0.79306   0.00000  Uiso   1.00
H824   H     0.94617   0.22347   0.79256   0.00000  Uiso   1.00
H825   H     0.95003   0.13569   0.90365   0.00000  Uiso   1.00
H826   H     0.97244   0.15536   0.98133   0.00000  Uiso   1.00
N827   N     0.71426   0.16668   0.75001   0.00000  Uiso   1.00
N828   N     0.95239   0.16665   0.75001   0.00000  Uiso   1.00
O829   O     0.79512   0.22775   0.75000   0.00000  Uiso   1.00
O830   O     0.71380   0.12516   0.90812   0.00000  Uiso   1.00
O831   O     0.87157   0.22774   0.75000   0.00000  Uiso   1.00
O832   O     0.77613   0.16666   0.82681   0.00000  Uiso   1.00
O833   O     0.85258   0.16665   0.82681   0.00000  Uiso   1.00
O834   O     0.79510   0.10559   0.74999   0.00000  Uiso   1.00
O835   O     0.87154   0.10558   0.75000   0.00000  Uiso   1.00
O836   O     0.81409   0.16668   0.67319   0.00000  Uiso   1.00
O837   O     0.89053   0.16667   0.67319   0.00000  Uiso   1.00
O838   O     0.72805   0.10200   0.70466   0.00000  Uiso   1.00
Zn839  Zn    0.78229   0.16667   0.75000   0.00000  Uiso   1.00
Zn840  Zn    0.88438   0.16666   0.75000   0.00000  Uiso   1.00
C841   C     0.16670   0.58004   0.75014   0.00000  Uiso   1.00
C842   C     0.12779   0.47728   0.90557   0.00000  Uiso   1.00
C843   C     0.20863   0.64556   0.74758   0.00000  Uiso   1.00
C844   C     0.14137   0.49255   0.85021   0.00000  Uiso   1.00
C845   C     0.20859   0.35480   0.74748   0.00000  Uiso   1.00
C846   C     0.16661   0.37582   0.75008   0.00000  Uiso   1.00
C847   C     0.12467   0.35447   0.75293   0.00000  Uiso   1.00
C848   C     0.12467   0.64525   0.75306   0.00000  Uiso   1.00
C849   C     0.16668   0.62421   0.75029   0.00000  Uiso   1.00
C850   C     0.31552   0.46816   0.72702   0.00000  Uiso   1.00
C851   C     0.03100   0.46837   0.72553   0.00000  Uiso   1.00
C852   C     0.14847   0.47603   0.98751   0.00000  Uiso   1.00
C853   C     0.01733   0.53147   0.77379   0.00000  Uiso   1.00
C854   C     0.30285   0.53155   0.77357   0.00000  Uiso   1.00
C855   C     0.16664   0.41996   0.74989   0.00000  Uiso   1.00
C856   C     0.19268   0.50020   0.64819   0.00000  Uiso   1.00
C857   C     0.26856   0.48878   0.50506   0.00000  Uiso   1.00
C858   C     0.20784   0.49678   0.59038   0.00000  Uiso   1.00
C859   C     0.07998   0.46753   0.93407   0.00000  Uiso   1.00
C860   C     0.06615   0.46490   0.98958   0.00000  Uiso   1.00
C861   C     0.09932   0.47160   0.51623   0.00000  Uiso   1.00
C862   C     0.05791   0.42018   0.65560   0.00000  Uiso   1.00
C863   C     0.16277   0.47296   0.93152   0.00000  Uiso   1.00
C864   C     0.03802   0.37604   0.66273   0.00000  Uiso   1.00
C865   C     0.05518   0.41716   0.88878   0.00000  Uiso   1.00
C866   C     0.01816   0.40479   0.86252   0.00000  Uiso   1.00
C867   C     0.18414   0.48269   0.51211   0.00000  Uiso   1.00
C868   C     0.23314   0.48137   0.98130   0.00000  Uiso   1.00
C869   C     0.24621   0.47158   0.92742   0.00000  Uiso   1.00
C870   C     0.21144   0.46541   0.90341   0.00000  Uiso   1.00
C871   C     0.17251   0.49198   0.56615   0.00000  Uiso   1.00
C872   C     0.25605   0.49574   0.55974   0.00000  Uiso   1.00
H873   H     0.28383   0.49996   0.57796   0.00000  Uiso   1.00
H874   H     0.13584   0.49573   0.59022   0.00000  Uiso   1.00
H875   H     0.08579   0.47058   0.55905   0.00000  Uiso   1.00
H876   H     0.02959   0.45772   0.51235   0.00000  Uiso   1.00
H877   H     0.22343   0.45394   0.86282   0.00000  Uiso   1.00
H878   H     0.24138   0.62955   0.74539   0.00000  Uiso   1.00
H879   H     0.09453   0.41903   0.62660   0.00000  Uiso   1.00
H880   H     0.03672   0.44004   0.63708   0.00000  Uiso   1.00
H881   H     0.00212   0.37530   0.69314   0.00000  Uiso   1.00
H882   H     0.03522   0.36434   0.62421   0.00000  Uiso   1.00
H883   H     0.06211   0.35526   0.67574   0.00000  Uiso   1.00
H884   H     0.24133   0.37107   0.74524   0.00000  Uiso   1.00
H885   H     0.05240   0.39491   0.92194   0.00000  Uiso   1.00
H886   H     0.09105   0.41409   0.85836   0.00000  Uiso   1.00
H887   H     0.01736   0.42796   0.83175   0.00000  Uiso   1.00
H888   H     0.02717   0.37388   0.84318   0.00000  Uiso   1.00
H889   H     0.31578   0.40251   0.89307   0.00000  Uiso   1.00
H890   H     0.09196   0.37048   0.75513   0.00000  Uiso   1.00
H891   H     0.09190   0.62900   0.75534   0.00000  Uiso   1.00
H892   H     0.30122   0.44258   0.71019   0.00000  Uiso   1.00
H893   H     0.03004   0.55662   0.79306   0.00000  Uiso   1.00
H894   H     0.27950   0.55681   0.79256   0.00000  Uiso   1.00
H895   H     0.28336   0.46902   0.90365   0.00000  Uiso   1.00
H896   H     0.30577   0.48869   0.98133   0.00000  Uiso   1.00
N897   N     0.04760   0.50001   0.75001   0.00000  Uiso   1.00
N898   N     0.28573   0.49998   0.75001   0.00000  Uiso   1.00
O899   O     0.12846   0.56108   0.75000   0.00000  Uiso   1.00
O900   O     0.04714   0.45849   0.90812   0.00000  Uiso   1.00
O901   O     0.20490   0.56107   0.75000   0.00000  Uiso   1.00
O902   O     0.10947   0.50000   0.82681   0.00000  Uiso   1.00
O903   O     0.18591   0.49999   0.82681   0.00000  Uiso   1.00
O904   O     0.12843   0.43893   0.74999   0.00000  Uiso   1.00
O905   O     0.20488   0.43892   0.75000   0.00000  Uiso   1.00
O906   O     0.14742   0.50001   0.67319   0.00000  Uiso   1.00
O907   O     0.22387   0.50000   0.67319   0.00000  Uiso   1.00
O908   O     0.06138   0.43533   0.70466   0.00000  Uiso   1.00
Zn909  Zn    0.11562   0.50001   0.75000   0.00000  Uiso   1.00
Zn910  Zn    0.21771   0.49999   0.75000   0.00000  Uiso   1.00
C911   C     0.50003   0.58004   0.75014   0.00000  Uiso   1.00
C912   C     0.46112   0.47728   0.90557   0.00000  Uiso   1.00
C913   C     0.54196   0.64556   0.74758   0.00000  Uiso   1.00
C914   C     0.47470   0.49255   0.85021   0.00000  Uiso   1.00
C915   C     0.54193   0.35480   0.74748   0.00000  Uiso   1.00
C916   C     0.49994   0.37582   0.75008   0.00000  Uiso   1.00
C917   C     0.45800   0.35447   0.75293   0.00000  Uiso   1.00
C918   C     0.45800   0.64525   0.75306   0.00000  Uiso   1.00
C919   C     0.50002   0.62421   0.75029   0.00000  Uiso   1.00
C920   C     0.64885   0.46816   0.72702   0.00000  Uiso   1.00
C921   C     0.36433   0.46837   0.72553   0.00000  Uiso   1.00
C922   C     0.48180   0.47603   0.98751   0.00000  Uiso   1.00
C923   C     0.35066   0.53147   0.77379   0.00000  Uiso   1.00
C924   C     0.63619   0.53155   0.77357   0.00000  Uiso   1.00
C925   C     0.49997   0.41996   0.74989   0.00000  Uiso   1.00
C926   C     0.52601   0.50020   0.64819   0.00000  Uiso   1.00
C927   C     0.60189   0.48878   0.50506   0.00000  Uiso   1.00
C928   C     0.54118   0.49678   0.59038   0.00000  Uiso   1.00
C929   C     0.41331   0.46753   0.93407   0.00000  Uiso   1.00
C930   C     0.39948   0.46490   0.98958   0.00000  Uiso   1.00
C931   C     0.43265   0.47160   0.51623   0.00000  Uiso   1.00
C932   C     0.39125   0.42018   0.65560   0.00000  Uiso   1.00
C933   C     0.49611   0.47296   0.93152   0.00000  Uiso   1.00
C934   C     0.37136   0.37604   0.66273   0.00000  Uiso   1.00
C935   C     0.38852   0.41716   0.88878   0.00000  Uiso   1.00
C936   C     0.35150   0.40479   0.86252   0.00000  Uiso   1.00
C937   C     0.51747   0.48269   0.51211   0.00000  Uiso   1.00
C938   C     0.56647   0.48137   0.98130   0.00000  Uiso   1.00
C939   C     0.57954   0.47158   0.92742   0.00000  Uiso   1.00
C940   C     0.54478   0.46541   0.90341   0.00000  Uiso   1.00
C941   C     0.50584   0.49198   0.56615   0.00000  Uiso   1.00
C942   C     0.58938   0.49574   0.55974   0.00000  Uiso   1.00
H943   H     0.61716   0.49996   0.57796   0.00000  Uiso   1.00
H944   H     0.46917   0.49573   0.59022   0.00000  Uiso   1.00
H945   H     0.41912   0.47058   0.55905   0.00000  Uiso   1.00
H946   H     0.36293   0.45772   0.51235   0.00000  Uiso   1.00
H947   H     0.55676   0.45394   0.86282   0.00000  Uiso   1.00
H948   H     0.57471   0.62955   0.74539   0.00000  Uiso   1.00
H949   H     0.42786   0.41903   0.62660   0.00000  Uiso   1.00
H950   H     0.37005   0.44004   0.63708   0.00000  Uiso   1.00
H951   H     0.33546   0.37530   0.69314   0.00000  Uiso   1.00
H952   H     0.36856   0.36434   0.62421   0.00000  Uiso   1.00
H953   H     0.39544   0.35526   0.67574   0.00000  Uiso   1.00
H954   H     0.57467   0.37107   0.74524   0.00000  Uiso   1.00
H955   H     0.38573   0.39491   0.92194   0.00000  Uiso   1.00
H956   H     0.42439   0.41409   0.85836   0.00000  Uiso   1.00
H957   H     0.35069   0.42796   0.83175   0.00000  Uiso   1.00
H958   H     0.36050   0.37388   0.84318   0.00000  Uiso   1.00
H959   H     0.64911   0.40251   0.89307   0.00000  Uiso   1.00
H960   H     0.42530   0.37048   0.75513   0.00000  Uiso   1.00
H961   H     0.42523   0.62900   0.75534   0.00000  Uiso   1.00
H962   H     0.63455   0.44258   0.71019   0.00000  Uiso   1.00
H963   H     0.36338   0.55662   0.79306   0.00000  Uiso   1.00
H964   H     0.61284   0.55681   0.79256   0.00000  Uiso   1.00
H965   H     0.61669   0.46902   0.90365   0.00000  Uiso   1.00
H966   H     0.63911   0.48869   0.98133   0.00000  Uiso   1.00
N967   N     0.38093   0.50001   0.75001   0.00000  Uiso   1.00
N968   N     0.61906   0.49998   0.75001   0.00000  Uiso   1.00
O969   O     0.46179   0.56108   0.75000   0.00000  Uiso   1.00
O970   O     0.38047   0.45849   0.90812   0.00000  Uiso   1.00
O971   O     0.53823   0.56107   0.75000   0.00000  Uiso   1.00
O972   O     0.44280   0.50000   0.82681   0.00000  Uiso   1.00
O973   O     0.51924   0.49999   0.82681   0.00000  Uiso   1.00
O974   O     0.46177   0.43893   0.74999   0.00000  Uiso   1.00
O975   O     0.53821   0.43892   0.75000   0.00000  Uiso   1.00
O976   O     0.48076   0.50001   0.67319   0.00000  Uiso   1.00
O977   O     0.55720   0.50000   0.67319   0.00000  Uiso   1.00
O978   O     0.39471   0.43533   0.70466   0.00000  Uiso   1.00
Zn979  Zn    0.44896   0.50001   0.75000   0.00000  Uiso   1.00
Zn980  Zn    0.55104   0.49999   0.75000   0.00000  Uiso   1.00
C981   C     0.83337   0.58004   0.75014   0.00000  Uiso   1.00
C982   C     0.79445   0.47728   0.90557   0.00000  Uiso   1.00
C983   C     0.87529   0.64556   0.74758   0.00000  Uiso   1.00
C984   C     0.80803   0.49255   0.85021   0.00000  Uiso   1.00
C985   C     0.87526   0.35480   0.74748   0.00000  Uiso   1.00
C986   C     0.83328   0.37582   0.75008   0.00000  Uiso   1.00
C987   C     0.79133   0.35447   0.75293   0.00000  Uiso   1.00
C988   C     0.79134   0.64525   0.75306   0.00000  Uiso   1.00
C989   C     0.83335   0.62421   0.75029   0.00000  Uiso   1.00
C990   C     0.98219   0.46816   0.72702   0.00000  Uiso   1.00
C991   C     0.69767   0.46837   0.72553   0.00000  Uiso   1.00
C992   C     0.81513   0.47603   0.98751   0.00000  Uiso   1.00
C993   C     0.68399   0.53147   0.77379   0.00000  Uiso   1.00
C994   C     0.96952   0.53155   0.77357   0.00000  Uiso   1.00
C995   C     0.83330   0.41996   0.74989   0.00000  Uiso   1.00
C996   C     0.85935   0.50020   0.64819   0.00000  Uiso   1.00
C997   C     0.93522   0.48878   0.50506   0.00000  Uiso   1.00
C998   C     0.87451   0.49678   0.59038   0.00000  Uiso   1.00
C999   C     0.74665   0.46753   0.93407   0.00000  Uiso   1.00
C1000  C     0.73282   0.46490   0.98958   0.00000  Uiso   1.00
C1001  C     0.76599   0.47160   0.51623   0.00000  Uiso   1.00
C1002  C     0.72458   0.42018   0.65560   0.00000  Uiso   1.00
C1003  C     0.82944   0.47296   0.93152   0.00000  Uiso   1.00
C1004  C     0.70469   0.37604   0.66273   0.00000  Uiso   1.00
C1005  C     0.72185   0.41716   0.88878   0.00000  Uiso   1.00
C1006  C     0.68483   0.40479   0.86252   0.00000  Uiso   1.00
C1007  C     0.85081   0.48269   0.51211   0.00000  Uiso   1.00
C1008  C     0.89981   0.48137   0.98130   0.00000  Uiso   1.00
C1009  C     0.91288   0.47158   0.92742   0.00000  Uiso   1.00
C1010  C     0.87811   0.46541   0.90341   0.00000  Uiso   1.00
C1011  C     0.83918   0.49198   0.56615   0.00000  Uiso   1.00
C1012  C     0.92271   0.49574   0.55974   0.00000  Uiso   1.00
H1013  H     0.95049   0.49996   0.57796   0.00000  Uiso   1.00
H1014  H     0.80251   0.49573   0.59022   0.00000  Uiso   1.00
H1015  H     0.75246   0.47058   0.55905   0.00000  Uiso   1.00
H1016  H     0.69626   0.45772   0.51235   0.00000  Uiso   1.00
H1017  H     0.89009   0.45394   0.86282   0.00000  Uiso   1.00
H1018  H     0.90804   0.62955   0.74539   0.00000  Uiso   1.00
H1019  H     0.76119   0.41903   0.62660   0.00000  Uiso   1.00
H1020  H     0.70339   0.44004   0.63708   0.00000  Uiso   1.00
H1021  H     0.66879   0.37530   0.69314   0.00000  Uiso   1.00
H1022  H     0.70189   0.36434   0.62421   0.00000  Uiso   1.00
H1023  H     0.72877   0.35526   0.67574   0.00000  Uiso   1.00
H1024  H     0.90800   0.37107   0.74524   0.00000  Uiso   1.00
H1025  H     0.71906   0.39491   0.92194   0.00000  Uiso   1.00
H1026  H     0.75772   0.41409   0.85836   0.00000  Uiso   1.00
H1027  H     0.68402   0.42796   0.83175   0.00000  Uiso   1.00
H1028  H     0.69384   0.37388   0.84318   0.00000  Uiso   1.00
H1029  H     0.98244   0.40251   0.89307   0.00000  Uiso   1.00
H1030  H     0.75863   0.37048   0.75513   0.00000  Uiso   1.00
H1031  H     0.75856   0.62900   0.75534   0.00000  Uiso   1.00
H1032  H     0.96789   0.44258   0.71019   0.00000  Uiso   1.00
H1033  H     0.69671   0.55662   0.79306   0.00000  Uiso   1.00
H1034  H     0.94617   0.55681   0.79256   0.00000  Uiso   1.00
H1035  H     0.95003   0.46902   0.90365   0.00000  Uiso   1.00
H1036  H     0.97244   0.48869   0.98133   0.00000  Uiso   1.00
N1037  N     0.71426   0.50001   0.75001   0.00000  Uiso   1.00
N1038  N     0.95239   0.49998   0.75001   0.00000  Uiso   1.00
O1039  O     0.79512   0.56108   0.75000   0.00000  Uiso   1.00
O1040  O     0.71380   0.45849   0.90812   0.00000  Uiso   1.00
O1041  O     0.87157   0.56107   0.75000   0.00000  Uiso   1.00
O1042  O     0.77613   0.50000   0.82681   0.00000  Uiso   1.00
O1043  O     0.85258   0.49999   0.82681   0.00000  Uiso   1.00
O1044  O     0.79510   0.43893   0.74999   0.00000  Uiso   1.00
O1045  O     0.87154   0.43892   0.75000   0.00000  Uiso   1.00
O1046  O     0.81409   0.50001   0.67319   0.00000  Uiso   1.00
O1047  O     0.89053   0.50000   0.67319   0.00000  Uiso   1.00
O1048  O     0.72805   0.43533   0.70466   0.00000  Uiso   1.00
Zn1049 Zn    0.78229   0.50001   0.75000   0.00000  Uiso   1.00
Zn1050 Zn    0.88438   0.49999   0.75000   0.00000  Uiso   1.00
C1051  C     0.16670   0.91337   0.75014   0.00000  Uiso   1.00
C1052  C     0.12779   0.81061   0.90557   0.00000  Uiso   1.00
C1053  C     0.20863   0.97890   0.74758   0.00000  Uiso   1.00
C1054  C     0.14137   0.82589   0.85021   0.00000  Uiso   1.00
C1055  C     0.20859   0.68813   0.74748   0.00000  Uiso   1.00
C1056  C     0.16661   0.70915   0.75008   0.00000  Uiso   1.00
C1057  C     0.12467   0.68780   0.75293   0.00000  Uiso   1.00
C1058  C     0.12467   0.97858   0.75306   0.00000  Uiso   1.00
C1059  C     0.16668   0.95754   0.75029   0.00000  Uiso   1.00
C1060  C     0.31552   0.80149   0.72702   0.00000  Uiso   1.00
C1061  C     0.03100   0.80170   0.72553   0.00000  Uiso   1.00
C1062  C     0.14847   0.80936   0.98751   0.00000  Uiso   1.00
C1063  C     0.01733   0.86481   0.77379   0.00000  Uiso   1.00
C1064  C     0.30285   0.86488   0.77357   0.00000  Uiso   1.00
C1065  C     0.16664   0.75330   0.74989   0.00000  Uiso   1.00
C1066  C     0.19268   0.83353   0.64819   0.00000  Uiso   1.00
C1067  C     0.26856   0.82212   0.50506   0.00000  Uiso   1.00
C1068  C     0.20784   0.83011   0.59038   0.00000  Uiso   1.00
C1069  C     0.07998   0.80086   0.93407   0.00000  Uiso   1.00
C1070  C     0.06615   0.79824   0.98958   0.00000  Uiso   1.00
C1071  C     0.09932   0.80493   0.51623   0.00000  Uiso   1.00
C1072  C     0.05791   0.75351   0.65560   0.00000  Uiso   1.00
C1073  C     0.16277   0.80630   0.93152   0.00000  Uiso   1.00
C1074  C     0.03802   0.70938   0.66273   0.00000  Uiso   1.00
C1075  C     0.05518   0.75049   0.88878   0.00000  Uiso   1.00
C1076  C     0.01816   0.73813   0.86252   0.00000  Uiso   1.00
C1077  C     0.18414   0.81603   0.51211   0.00000  Uiso   1.00
C1078  C     0.23314   0.81470   0.98130   0.00000  Uiso   1.00
C1079  C     0.24621   0.80491   0.92742   0.00000  Uiso   1.00
C1080  C     0.21144   0.79875   0.90341   0.00000  Uiso   1.00
C1081  C     0.17251   0.82531   0.56615   0.00000  Uiso   1.00
C1082  C     0.25605   0.82907   0.55974   0.00000  Uiso   1.00
H1083  H     0.28383   0.83329   0.57796   0.00000  Uiso   1.00
H1084  H     0.13584   0.82907   0.59022   0.00000  Uiso   1.00
H1085  H     0.08579   0.80391   0.55905   0.00000  Uiso   1.00
H1086  H     0.02959   0.79106   0.51235   0.00000  Uiso   1.00
H1087  H     0.22343   0.78727   0.86282   0.00000  Uiso   1.00
H1088  H     0.24138   0.96288   0.74539   0.00000  Uiso   1.00
H1089  H     0.09453   0.75236   0.62660   0.00000  Uiso   1.00
H1090  H     0.03672   0.77337   0.63708   0.00000  Uiso   1.00
H1091  H     0.00212   0.70863   0.69314   0.00000  Uiso   1.00
H1092  H     0.03522   0.69767   0.62421   0.00000  Uiso   1.00
H1093  H     0.06211   0.68860   0.67574   0.00000  Uiso   1.00
H1094  H     0.24133   0.70441   0.74524   0.00000  Uiso   1.00
H1095  H     0.05240   0.72825   0.92194   0.00000  Uiso   1.00
H1096  H     0.09105   0.74743   0.85836   0.00000  Uiso   1.00
H1097  H     0.01736   0.76129   0.83175   0.00000  Uiso   1.00
H1098  H     0.02717   0.70721   0.84318   0.00000  Uiso   1.00
H1099  H     0.31578   0.73585   0.89307   0.00000  Uiso   1.00
H1100  H     0.09196   0.70381   0.75513   0.00000  Uiso   1.00
H1101  H     0.09190   0.96234   0.75534   0.00000  Uiso   1.00
H1102  H     0.30122   0.77592   0.71019   0.00000  Uiso   1.00
H1103  H     0.03004   0.88995   0.79306   0.00000  Uiso   1.00
H1104  H     0.27950   0.89014   0.79256   0.00000  Uiso   1.00
H1105  H     0.28336   0.80235   0.90365   0.00000  Uiso   1.00
H1106  H     0.30577   0.82203   0.98133   0.00000  Uiso   1.00
N1107  N     0.04760   0.83334   0.75001   0.00000  Uiso   1.00
N1108  N     0.28573   0.83331   0.75001   0.00000  Uiso   1.00
O1109  O     0.12846   0.89442   0.75000   0.00000  Uiso   1.00
O1110  O     0.04714   0.79183   0.90812   0.00000  Uiso   1.00
O1111  O     0.20490   0.89441   0.75000   0.00000  Uiso   1.00
O1112  O     0.10947   0.83333   0.82681   0.00000  Uiso   1.00
O1113  O     0.18591   0.83332   0.82681   0.00000  Uiso   1.00
O1114  O     0.12843   0.77226   0.74999   0.00000  Uiso   1.00
O1115  O     0.20488   0.77225   0.75000   0.00000  Uiso   1.00
O1116  O     0.14742   0.83335   0.67319   0.00000  Uiso   1.00
O1117  O     0.22387   0.83334   0.67319   0.00000  Uiso   1.00
O1118  O     0.06138   0.76867   0.70466   0.00000  Uiso   1.00
Zn1119 Zn    0.11562   0.83334   0.75000   0.00000  Uiso   1.00
Zn1120 Zn    0.21771   0.83333   0.75000   0.00000  Uiso   1.00
C1121  C     0.50003   0.91337   0.75014   0.00000  Uiso   1.00
C1122  C     0.46112   0.81061   0.90557   0.00000  Uiso   1.00
C1123  C     0.54196   0.97890   0.74758   0.00000  Uiso   1.00
C1124  C     0.47470   0.82589   0.85021   0.00000  Uiso   1.00
C1125  C     0.54193   0.68813   0.74748   0.00000  Uiso   1.00
C1126  C     0.49994   0.70915   0.75008   0.00000  Uiso   1.00
C1127  C     0.45800   0.68780   0.75293   0.00000  Uiso   1.00
C1128  C     0.45800   0.97858   0.75306   0.00000  Uiso   1.00
C1129  C     0.50002   0.95754   0.75029   0.00000  Uiso   1.00
C1130  C     0.64885   0.80149   0.72702   0.00000  Uiso   1.00
C1131  C     0.36433   0.80170   0.72553   0.00000  Uiso   1.00
C1132  C     0.48180   0.80936   0.98751   0.00000  Uiso   1.00
C1133  C     0.35066   0.86481   0.77379   0.00000  Uiso   1.00
C1134  C     0.63619   0.86488   0.77357   0.00000  Uiso   1.00
C1135  C     0.49997   0.75330   0.74989   0.00000  Uiso   1.00
C1136  C     0.52601   0.83353   0.64819   0.00000  Uiso   1.00
C1137  C     0.60189   0.82212   0.50506   0.00000  Uiso   1.00
C1138  C     0.54118   0.83011   0.59038   0.00000  Uiso   1.00
C1139  C     0.41331   0.80086   0.93407   0.00000  Uiso   1.00
C1140  C     0.39948   0.79824   0.98958   0.00000  Uiso   1.00
C1141  C     0.43265   0.80493   0.51623   0.00000  Uiso   1.00
C1142  C     0.39125   0.75351   0.65560   0.00000  Uiso   1.00
C1143  C     0.49611   0.80630   0.93152   0.00000  Uiso   1.00
C1144  C     0.37136   0.70938   0.66273   0.00000  Uiso   1.00
C1145  C     0.38852   0.75049   0.88878   0.00000  Uiso   1.00
C1146  C     0.35150   0.73813   0.86252   0.00000  Uiso   1.00
C1147  C     0.51747   0.81603   0.51211   0.00000  Uiso   1.00
C1148  C     0.56647   0.81470   0.98130   0.00000  Uiso   1.00
C1149  C     0.57954   0.80491   0.92742   0.00000  Uiso   1.00
C1150  C     0.54478   0.79875   0.90341   0.00000  Uiso   1.00
C1151  C     0.50584   0.82531   0.56615   0.00000  Uiso   1.00
C1152  C     0.58938   0.82907   0.55974   0.00000  Uiso   1.00
H1153  H     0.61716   0.83329   0.57796   0.00000  Uiso   1.00
H1154  H     0.46917   0.82907   0.59022   0.00000  Uiso   1.00
H1155  H     0.41912   0.80391   0.55905   0.00000  Uiso   1.00
H1156  H     0.36293   0.79106   0.51235   0.00000  Uiso   1.00
H1157  H     0.55676   0.78727   0.86282   0.00000  Uiso   1.00
H1158  H     0.57471   0.96288   0.74539   0.00000  Uiso   1.00
H1159  H     0.42786   0.75236   0.62660   0.00000  Uiso   1.00
H1160  H     0.37005   0.77337   0.63708   0.00000  Uiso   1.00
H1161  H     0.33546   0.70863   0.69314   0.00000  Uiso   1.00
H1162  H     0.36856   0.69767   0.62421   0.00000  Uiso   1.00
H1163  H     0.39544   0.68860   0.67574   0.00000  Uiso   1.00
H1164  H     0.57467   0.70441   0.74524   0.00000  Uiso   1.00
H1165  H     0.38573   0.72825   0.92194   0.00000  Uiso   1.00
H1166  H     0.42439   0.74743   0.85836   0.00000  Uiso   1.00
H1167  H     0.35069   0.76129   0.83175   0.00000  Uiso   1.00
H1168  H     0.36050   0.70721   0.84318   0.00000  Uiso   1.00
H1169  H     0.64911   0.73585   0.89307   0.00000  Uiso   1.00
H1170  H     0.42530   0.70381   0.75513   0.00000  Uiso   1.00
H1171  H     0.42523   0.96234   0.75534   0.00000  Uiso   1.00
H1172  H     0.63455   0.77592   0.71019   0.00000  Uiso   1.00
H1173  H     0.36338   0.88995   0.79306   0.00000  Uiso   1.00
H1174  H     0.61284   0.89014   0.79256   0.00000  Uiso   1.00
H1175  H     0.61669   0.80235   0.90365   0.00000  Uiso   1.00
H1176  H     0.63911   0.82203   0.98133   0.00000  Uiso   1.00
N1177  N     0.38093   0.83334   0.75001   0.00000  Uiso   1.00
N1178  N     0.61906   0.83331   0.75001   0.00000  Uiso   1.00
O1179  O     0.46179   0.89442   0.75000   0.00000  Uiso   1.00
O1180  O     0.38047   0.79183   0.90812   0.00000  Uiso   1.00
O1181  O     0.53823   0.89441   0.75000   0.00000  Uiso   1.00
O1182  O     0.44280   0.83333   0.82681   0.00000  Uiso   1.00
O1183  O     0.51924   0.83332   0.82681   0.00000  Uiso   1.00
O1184  O     0.46177   0.77226   0.74999   0.00000  Uiso   1.00
O1185  O     0.53821   0.77225   0.75000   0.00000  Uiso   1.00
O1186  O     0.48076   0.83335   0.67319   0.00000  Uiso   1.00
O1187  O     0.55720   0.83334   0.67319   0.00000  Uiso   1.00
O1188  O     0.39471   0.76867   0.70466   0.00000  Uiso   1.00
Zn1189 Zn    0.44896   0.83334   0.75000   0.00000  Uiso   1.00
Zn1190 Zn    0.55104   0.83333   0.75000   0.00000  Uiso   1.00
C1191  C     0.83337   0.91337   0.75014   0.00000  Uiso   1.00
C1192  C     0.79445   0.81061   0.90557   0.00000  Uiso   1.00
C1193  C     0.87529   0.97890   0.74758   0.00000  Uiso   1.00
C1194  C     0.80803   0.82589   0.85021   0.00000  Uiso   1.00
C1195  C     0.87526   0.68813   0.74748   0.00000  Uiso   1.00
C1196  C     0.83328   0.70915   0.75008   0.00000  Uiso   1.00
C1197  C     0.79133   0.68780   0.75293   0.00000  Uiso   1.00
C1198  C     0.79134   0.97858   0.75306   0.00000  Uiso   1.00
C1199  C     0.83335   0.95754   0.75029   0.00000  Uiso   1.00
C1200  C     0.98219   0.80149   0.72702   0.00000  Uiso   1.00
C1201  C     0.69767   0.80170   0.72553   0.00000  Uiso   1.00
C1202  C     0.81513   0.80936   0.98751   0.00000  Uiso   1.00
C1203  C     0.68399   0.86481   0.77379   0.00000  Uiso   1.00
C1204  C     0.96952   0.86488   0.77357   0.00000  Uiso   1.00
C1205  C     0.83330   0.75330   0.74989   0.00000  Uiso   1.00
C1206  C     0.85935   0.83353   0.64819   0.00000  Uiso   1.00
C1207  C     0.93522   0.82212   0.50506   0.00000  Uiso   1.00
C1208  C     0.87451   0.83011   0.59038   0.00000  Uiso   1.00
C1209  C     0.74665   0.80086   0.93407   0.00000  Uiso   1.00
C1210  C     0.73282   0.79824   0.98958   0.00000  Uiso   1.00
C1211  C     0.76599   0.80493   0.51623   0.00000  Uiso   1.00
C1212  C     0.72458   0.75351   0.65560   0.00000  Uiso   1.00
C1213  C     0.82944   0.80630   0.93152   0.00000  Uiso   1.00
C1214  C     0.70469   0.70938   0.66273   0.00000  Uiso   1.00
C1215  C     0.72185   0.75049   0.88878   0.00000  Uiso   1.00
C1216  C     0.68483   0.73813   0.86252   0.00000  Uiso   1.00
C1217  C     0.85081   0.81603   0.51211   0.00000  Uiso   1.00
C1218  C     0.89981   0.81470   0.98130   0.00000  Uiso   1.00
C1219  C     0.91288   0.80491   0.92742   0.00000  Uiso   1.00
C1220  C     0.87811   0.79875   0.90341   0.00000  Uiso   1.00
C1221  C     0.83918   0.82531   0.56615   0.00000  Uiso   1.00
C1222  C     0.92271   0.82907   0.55974   0.00000  Uiso   1.00
H1223  H     0.95049   0.83329   0.57796   0.00000  Uiso   1.00
H1224  H     0.80251   0.82907   0.59022   0.00000  Uiso   1.00
H1225  H     0.75246   0.80391   0.55905   0.00000  Uiso   1.00
H1226  H     0.69626   0.79106   0.51235   0.00000  Uiso   1.00
H1227  H     0.89009   0.78727   0.86282   0.00000  Uiso   1.00
H1228  H     0.90804   0.96288   0.74539   0.00000  Uiso   1.00
H1229  H     0.76119   0.75236   0.62660   0.00000  Uiso   1.00
H1230  H     0.70339   0.77337   0.63708   0.00000  Uiso   1.00
H1231  H     0.66879   0.70863   0.69314   0.00000  Uiso   1.00
H1232  H     0.70189   0.69767   0.62421   0.00000  Uiso   1.00
H1233  H     0.72877   0.68860   0.67574   0.00000  Uiso   1.00
H1234  H     0.90800   0.70441   0.74524   0.00000  Uiso   1.00
H1235  H     0.71906   0.72825   0.92194   0.00000  Uiso   1.00
H1236  H     0.75772   0.74743   0.85836   0.00000  Uiso   1.00
H1237  H     0.68402   0.76129   0.83175   0.00000  Uiso   1.00
H1238  H     0.69384   0.70721   0.84318   0.00000  Uiso   1.00
H1239  H     0.98244   0.73585   0.89307   0.00000  Uiso   1.00
H1240  H     0.75863   0.70381   0.75513   0.00000  Uiso   1.00
H1241  H     0.75856   0.96234   0.75534   0.00000  Uiso   1.00
H1242  H     0.96789   0.77592   0.71019   0.00000  Uiso   1.00
H1243  H     0.69671   0.88995   0.79306   0.00000  Uiso   1.00
H1244  H     0.94617   0.89014   0.79256   0.00000  Uiso   1.00
H1245  H     0.95003   0.80235   0.90365   0.00000  Uiso   1.00
H1246  H     0.97244   0.82203   0.98133   0.00000  Uiso   1.00
N1247  N     0.71426   0.83334   0.75001   0.00000  Uiso   1.00
N1248  N     0.95239   0.83331   0.75001   0.00000  Uiso   1.00
O1249  O     0.79512   0.89442   0.75000   0.00000  Uiso   1.00
O1250  O     0.71380   0.79183   0.90812   0.00000  Uiso   1.00
O1251  O     0.87157   0.89441   0.75000   0.00000  Uiso   1.00
O1252  O     0.77613   0.83333   0.82681   0.00000  Uiso   1.00
O1253  O     0.85258   0.83332   0.82681   0.00000  Uiso   1.00
O1254  O     0.79510   0.77226   0.74999   0.00000  Uiso   1.00
O1255  O     0.87154   0.77225   0.75000   0.00000  Uiso   1.00
O1256  O     0.81409   0.83335   0.67319   0.00000  Uiso   1.00
O1257  O     0.89053   0.83334   0.67319   0.00000  Uiso   1.00
O1258  O     0.72805   0.76867   0.70466   0.00000  Uiso   1.00
Zn1259 Zn    0.78229   0.83334   0.75000   0.00000  Uiso   1.00
Zn1260 Zn    0.88438   0.83333   0.75000   0.00000  Uiso   1.00
loop_
_geom_bond_atom_site_label_1
_geom_bond_atom_site_label_2
_geom_bond_distance
_geom_bond_site_symmetry_2
_ccdc_geom_bond_type
C1     O59     1.283   .     A
C1     C9      1.421   .     S
C1     O61     1.285   .     A
C2     C4      1.473   .     S
C2     C19     1.409   .     A
C2     C23     1.418   .     A
C3     C9      1.397   .     A
C3     H38     1.084   .     S
C3     C215    1.369   .     S
C4     O63     1.287   .     A
C4     O62     1.304   .     A
C5     H44     1.084   .     S
C5     C6      1.398   .     A
C5     C423    1.369   1_545 S
C6     C15     1.420   .     S
C6     C7      1.396   .     A
C7     H50     1.082   .     S
C7     C428    1.369   1_545 S
C8     H51     1.084   .     S
C8     C9      1.398   .     A
C8     C217    1.369   .     S
C10    H52     1.080   .     S
C10    N58     1.362   .     A
C10    C81     1.431   .     S
C11    N57     1.373   .     A
C11    O68     1.389   .     S
C11    C150    1.431   1_455 S
C12    C23     1.406   .     A
C12    C651    1.416   .     S
C12    C657    1.418   .     S
C13    H53     1.082   .     S
C13    N57     1.366   .     A
C13    C154    1.415   1_455 S
C14    H54     1.082   .     S
C14    N58     1.366   .     A
C14    C83     1.415   .     S
C15    O64     1.285   .     A
C15    O65     1.283   .     A
C16    O67     1.293   .     A
C16    O66     1.290   .     A
C16    C18     1.452   .     S
C17    C32     1.389   .     A
C17    C658    1.400   1_554 S
C17    H686    1.080   1_554 S
C18    C32     1.398   .     A
C18    C31     1.395   .     A
C19    O60     1.383   .     S
C19    C20     1.394   .     A
C20    C651    1.392   .     S
C20    H666    1.081   .     S
C21    H35     1.074   .     S
C21    C642    1.416   1_554 S
C21    C650    1.392   1_554 S
C22    H40     1.114   .     S
C22    O68     1.416   .     S
C22    H39     1.111   .     S
C22    C24     1.524   .     S
C23    C30     1.416   .     A
C24    H42     1.110   .     S
C24    H41     1.109   .     S
C24    H43     1.110   .     S
C25    O60     1.416   .     S
C25    H45     1.115   .     S
C25    H46     1.113   .     S
C25    C26     1.521   .     S
C26    H48     1.110   .     S
C26    H47     1.110   .     S
C26    H189    1.109   1_455 S
C27    C31     1.389   .     A
C27    C642    1.418   1_554 S
C27    C658    1.419   1_554 S
C28    C29     1.386   .     A
C28    C647    1.400   .     S
C28    C657    1.419   .     S
C29    C30     1.381   .     A
C29    H55     1.081   .     S
C30    H37     1.080   .     S
C31    H34     1.076   .     S
C32    H33     1.083   .     S
H36    C650    1.081   1_554 S
H49    C96     1.109   .     S
H56    C647    1.080   .     S
N57    Zn69    2.011   .     S
N58    Zn70    2.011   .     S
O59    Zn69    1.999   .     S
O61    Zn70    2.003   .     S
O62    Zn69    1.978   .     S
O63    Zn70    1.946   .     S
O64    Zn69    2.003   .     S
O65    Zn70    1.999   .     S
O66    Zn69    1.946   .     S
O67    Zn70    1.978   .     S
C71    O129    1.283   .     A
C71    C79     1.421   .     S
C71    O131    1.285   .     A
C72    C74     1.473   .     S
C72    C89     1.409   .     A
C72    C93     1.418   .     A
C73    C79     1.397   .     A
C73    H108    1.084   .     S
C73    C285    1.369   .     S
C74    O133    1.287   .     A
C74    O132    1.304   .     A
C75    H114    1.084   .     S
C75    C76     1.398   .     A
C75    C493    1.369   1_545 S
C76    C85     1.420   .     S
C76    C77     1.396   .     A
C77    H120    1.082   .     S
C77    C498    1.369   1_545 S
C78    H121    1.084   .     S
C78    C79     1.398   .     A
C78    C287    1.369   .     S
C80    H122    1.080   .     S
C80    N128    1.362   .     A
C80    C151    1.431   .     S
C81    N127    1.373   .     A
C81    O138    1.389   .     S
C82    C93     1.406   .     A
C82    C721    1.416   .     S
C82    C727    1.418   .     S
C83    H123    1.082   .     S
C83    N127    1.366   .     A
C84    H124    1.082   .     S
C84    N128    1.366   .     A
C84    C153    1.415   .     S
C85    O134    1.285   .     A
C85    O135    1.283   .     A
C86    O137    1.293   .     A
C86    O136    1.290   .     A
C86    C88     1.452   .     S
C87    C102    1.389   .     A
C87    C728    1.400   1_554 S
C87    H756    1.080   1_554 S
C88    C102    1.398   .     A
C88    C101    1.395   .     A
C89    O130    1.383   .     S
C89    C90     1.394   .     A
C90    C721    1.392   .     S
C90    H736    1.081   .     S
C91    H105    1.074   .     S
C91    C712    1.416   1_554 S
C91    C720    1.392   1_554 S
C92    H110    1.114   .     S
C92    O138    1.416   .     S
C92    H109    1.111   .     S
C92    C94     1.524   .     S
C93    C100    1.416   .     A
C94    H112    1.110   .     S
C94    H111    1.109   .     S
C94    H113    1.110   .     S
C95    O130    1.416   .     S
C95    H115    1.115   .     S
C95    H116    1.113   .     S
C95    C96     1.521   .     S
C96    H118    1.110   .     S
C96    H117    1.110   .     S
C97    C101    1.389   .     A
C97    C712    1.418   1_554 S
C97    C728    1.419   1_554 S
C98    C99     1.386   .     A
C98    C717    1.400   .     S
C98    C727    1.419   .     S
C99    C100    1.381   .     A
C99    H125    1.081   .     S
C100   H107    1.080   .     S
C101   H104    1.076   .     S
C102   H103    1.083   .     S
H106   C720    1.081   1_554 S
H119   C166    1.109   .     S
H126   C717    1.080   .     S
N127   Zn139   2.011   .     S
N128   Zn140   2.011   .     S
O129   Zn139   1.999   .     S
O131   Zn140   2.003   .     S
O132   Zn139   1.978   .     S
O133   Zn140   1.946   .     S
O134   Zn139   2.003   .     S
O135   Zn140   1.999   .     S
O136   Zn139   1.946   .     S
O137   Zn140   1.978   .     S
C141   O199    1.283   .     A
C141   C149    1.421   .     S
C141   O201    1.285   .     A
C142   C144    1.473   .     S
C142   C159    1.409   .     A
C142   C163    1.418   .     A
C143   C149    1.397   .     A
C143   H178    1.084   .     S
C143   C355    1.369   .     S
C144   O203    1.287   .     A
C144   O202    1.304   .     A
C145   H184    1.084   .     S
C145   C146    1.398   .     A
C145   C563    1.369   1_545 S
C146   C155    1.420   .     S
C146   C147    1.396   .     A
C147   H190    1.082   .     S
C147   C568    1.369   1_545 S
C148   H191    1.084   .     S
C148   C149    1.398   .     A
C148   C357    1.369   .     S
C150   H192    1.080   .     S
C150   N198    1.362   .     A
C150   C11     1.431   1_655 S
C151   N197    1.373   .     A
C151   O208    1.389   .     S
C152   C163    1.406   .     A
C152   C791    1.416   .     S
C152   C797    1.418   .     S
C153   H193    1.082   .     S
C153   N197    1.366   .     A
C154   H194    1.082   .     S
C154   N198    1.366   .     A
C154   C13     1.415   1_655 S
C155   O204    1.285   .     A
C155   O205    1.283   .     A
C156   O207    1.293   .     A
C156   O206    1.290   .     A
C156   C158    1.452   .     S
C157   C172    1.389   .     A
C157   C798    1.400   1_554 S
C157   H826    1.080   1_554 S
C158   C172    1.398   .     A
C158   C171    1.395   .     A
C159   O200    1.383   .     S
C159   C160    1.394   .     A
C160   C791    1.392   .     S
C160   H806    1.081   .     S
C161   H175    1.074   .     S
C161   C782    1.416   1_554 S
C161   C790    1.392   1_554 S
C162   H180    1.114   .     S
C162   O208    1.416   .     S
C162   H179    1.111   .     S
C162   C164    1.524   .     S
C163   C170    1.416   .     A
C164   H182    1.110   .     S
C164   H181    1.109   .     S
C164   H183    1.110   .     S
C165   O200    1.416   .     S
C165   H185    1.115   .     S
C165   H186    1.113   .     S
C165   C166    1.521   .     S
C166   H188    1.110   .     S
C166   H187    1.110   .     S
C167   C171    1.389   .     A
C167   C782    1.418   1_554 S
C167   C798    1.419   1_554 S
C168   C169    1.386   .     A
C168   C787    1.400   .     S
C168   C797    1.419   .     S
C169   C170    1.381   .     A
C169   H195    1.081   .     S
C170   H177    1.080   .     S
C171   H174    1.076   .     S
C172   H173    1.083   .     S
H176   C790    1.081   1_554 S
H189   C26     1.109   1_655 S
H196   C787    1.080   .     S
N197   Zn209   2.011   .     S
N198   Zn210   2.011   .     S
O199   Zn209   1.999   .     S
O201   Zn210   2.003   .     S
O202   Zn209   1.978   .     S
O203   Zn210   1.946   .     S
O204   Zn209   2.003   .     S
O205   Zn210   1.999   .     S
O206   Zn209   1.946   .     S
O207   Zn210   1.978   .     S
C211   O269    1.283   .     A
C211   C219    1.421   .     S
C211   O271    1.285   .     A
C212   C214    1.473   .     S
C212   C229    1.409   .     A
C212   C233    1.418   .     A
C213   C219    1.397   .     A
C213   H248    1.084   .     S
C213   C425    1.369   .     S
C214   O273    1.287   .     A
C214   O272    1.304   .     A
C215   H254    1.084   .     S
C215   C216    1.398   .     A
C216   C225    1.420   .     S
C216   C217    1.396   .     A
C217   H260    1.082   .     S
C218   H261    1.084   .     S
C218   C219    1.398   .     A
C218   C427    1.369   .     S
C220   H262    1.080   .     S
C220   N268    1.362   .     A
C220   C291    1.431   .     S
C221   N267    1.373   .     A
C221   O278    1.389   .     S
C221   C360    1.431   1_455 S
C222   C233    1.406   .     A
C222   C861    1.416   .     S
C222   C867    1.418   .     S
C223   H263    1.082   .     S
C223   N267    1.366   .     A
C223   C364    1.415   1_455 S
C224   H264    1.082   .     S
C224   N268    1.366   .     A
C224   C293    1.415   .     S
C225   O274    1.285   .     A
C225   O275    1.283   .     A
C226   O277    1.293   .     A
C226   O276    1.290   .     A
C226   C228    1.452   .     S
C227   C242    1.389   .     A
C227   C868    1.400   1_554 S
C227   H896    1.080   1_554 S
C228   C242    1.398   .     A
C228   C241    1.395   .     A
C229   O270    1.383   .     S
C229   C230    1.394   .     A
C230   C861    1.392   .     S
C230   H876    1.081   .     S
C231   H245    1.074   .     S
C231   C852    1.416   1_554 S
C231   C860    1.392   1_554 S
C232   H250    1.114   .     S
C232   O278    1.416   .     S
C232   H249    1.111   .     S
C232   C234    1.524   .     S
C233   C240    1.416   .     A
C234   H252    1.110   .     S
C234   H251    1.109   .     S
C234   H253    1.110   .     S
C235   O270    1.416   .     S
C235   H255    1.115   .     S
C235   H256    1.113   .     S
C235   C236    1.521   .     S
C236   H258    1.110   .     S
C236   H257    1.110   .     S
C236   H399    1.109   1_455 S
C237   C241    1.389   .     A
C237   C852    1.418   1_554 S
C237   C868    1.419   1_554 S
C238   C239    1.386   .     A
C238   C857    1.400   .     S
C238   C867    1.419   .     S
C239   C240    1.381   .     A
C239   H265    1.081   .     S
C240   H247    1.080   .     S
C241   H244    1.076   .     S
C242   H243    1.083   .     S
H246   C860    1.081   1_554 S
H259   C306    1.109   .     S
H266   C857    1.080   .     S
N267   Zn279   2.011   .     S
N268   Zn280   2.011   .     S
O269   Zn279   1.999   .     S
O271   Zn280   2.003   .     S
O272   Zn279   1.978   .     S
O273   Zn280   1.946   .     S
O274   Zn279   2.003   .     S
O275   Zn280   1.999   .     S
O276   Zn279   1.946   .     S
O277   Zn280   1.978   .     S
C281   O339    1.283   .     A
C281   C289    1.421   .     S
C281   O341    1.285   .     A
C282   C284    1.473   .     S
C282   C299    1.409   .     A
C282   C303    1.418   .     A
C283   C289    1.397   .     A
C283   H318    1.084   .     S
C283   C495    1.369   .     S
C284   O343    1.287   .     A
C284   O342    1.304   .     A
C285   H324    1.084   .     S
C285   C286    1.398   .     A
C286   C295    1.420   .     S
C286   C287    1.396   .     A
C287   H330    1.082   .     S
C288   H331    1.084   .     S
C288   C289    1.398   .     A
C288   C497    1.369   .     S
C290   H332    1.080   .     S
C290   N338    1.362   .     A
C290   C361    1.431   .     S
C291   N337    1.373   .     A
C291   O348    1.389   .     S
C292   C303    1.406   .     A
C292   C931    1.416   .     S
C292   C937    1.418   .     S
C293   H333    1.082   .     S
C293   N337    1.366   .     A
C294   H334    1.082   .     S
C294   N338    1.366   .     A
C294   C363    1.415   .     S
C295   O344    1.285   .     A
C295   O345    1.283   .     A
C296   O347    1.293   .     A
C296   O346    1.290   .     A
C296   C298    1.452   .     S
C297   C312    1.389   .     A
C297   C938    1.400   1_554 S
C297   H966    1.080   1_554 S
C298   C312    1.398   .     A
C298   C311    1.395   .     A
C299   O340    1.383   .     S
C299   C300    1.394   .     A
C300   C931    1.392   .     S
C300   H946    1.081   .     S
C301   H315    1.074   .     S
C301   C922    1.416   1_554 S
C301   C930    1.392   1_554 S
C302   H320    1.114   .     S
C302   O348    1.416   .     S
C302   H319    1.111   .     S
C302   C304    1.524   .     S
C303   C310    1.416   .     A
C304   H322    1.110   .     S
C304   H321    1.109   .     S
C304   H323    1.110   .     S
C305   O340    1.416   .     S
C305   H325    1.115   .     S
C305   H326    1.113   .     S
C305   C306    1.521   .     S
C306   H328    1.110   .     S
C306   H327    1.110   .     S
C307   C311    1.389   .     A
C307   C922    1.418   1_554 S
C307   C938    1.419   1_554 S
C308   C309    1.386   .     A
C308   C927    1.400   .     S
C308   C937    1.419   .     S
C309   C310    1.381   .     A
C309   H335    1.081   .     S
C310   H317    1.080   .     S
C311   H314    1.076   .     S
C312   H313    1.083   .     S
H316   C930    1.081   1_554 S
H329   C376    1.109   .     S
H336   C927    1.080   .     S
N337   Zn349   2.011   .     S
N338   Zn350   2.011   .     S
O339   Zn349   1.999   .     S
O341   Zn350   2.003   .     S
O342   Zn349   1.978   .     S
O343   Zn350   1.946   .     S
O344   Zn349   2.003   .     S
O345   Zn350   1.999   .     S
O346   Zn349   1.946   .     S
O347   Zn350   1.978   .     S
C351   O409    1.283   .     A
C351   C359    1.421   .     S
C351   O411    1.285   .     A
C352   C354    1.473   .     S
C352   C369    1.409   .     A
C352   C373    1.418   .     A
C353   C359    1.397   .     A
C353   H388    1.084   .     S
C353   C565    1.369   .     S
C354   O413    1.287   .     A
C354   O412    1.304   .     A
C355   H394    1.084   .     S
C355   C356    1.398   .     A
C356   C365    1.420   .     S
C356   C357    1.396   .     A
C357   H400    1.082   .     S
C358   H401    1.084   .     S
C358   C359    1.398   .     A
C358   C567    1.369   .     S
C360   H402    1.080   .     S
C360   N408    1.362   .     A
C360   C221    1.431   1_655 S
C361   N407    1.373   .     A
C361   O418    1.389   .     S
C362   C373    1.406   .     A
C362   C1001   1.416   .     S
C362   C1007   1.418   .     S
C363   H403    1.082   .     S
C363   N407    1.366   .     A
C364   H404    1.082   .     S
C364   N408    1.366   .     A
C364   C223    1.415   1_655 S
C365   O414    1.285   .     A
C365   O415    1.283   .     A
C366   O417    1.293   .     A
C366   O416    1.290   .     A
C366   C368    1.452   .     S
C367   C382    1.389   .     A
C367   C1008   1.400   1_554 S
C367   H1036   1.080   1_554 S
C368   C382    1.398   .     A
C368   C381    1.395   .     A
C369   O410    1.383   .     S
C369   C370    1.394   .     A
C370   C1001   1.392   .     S
C370   H1016   1.081   .     S
C371   H385    1.074   .     S
C371   C992    1.416   1_554 S
C371   C1000   1.392   1_554 S
C372   H390    1.114   .     S
C372   O418    1.416   .     S
C372   H389    1.111   .     S
C372   C374    1.524   .     S
C373   C380    1.416   .     A
C374   H392    1.110   .     S
C374   H391    1.109   .     S
C374   H393    1.110   .     S
C375   O410    1.416   .     S
C375   H395    1.115   .     S
C375   H396    1.113   .     S
C375   C376    1.521   .     S
C376   H398    1.110   .     S
C376   H397    1.110   .     S
C377   C381    1.389   .     A
C377   C992    1.418   1_554 S
C377   C1008   1.419   1_554 S
C378   C379    1.386   .     A
C378   C997    1.400   .     S
C378   C1007   1.419   .     S
C379   C380    1.381   .     A
C379   H405    1.081   .     S
C380   H387    1.080   .     S
C381   H384    1.076   .     S
C382   H383    1.083   .     S
H386   C1000   1.081   1_554 S
H399   C236    1.109   1_655 S
H406   C997    1.080   .     S
N407   Zn419   2.011   .     S
N408   Zn420   2.011   .     S
O409   Zn419   1.999   .     S
O411   Zn420   2.003   .     S
O412   Zn419   1.978   .     S
O413   Zn420   1.946   .     S
O414   Zn419   2.003   .     S
O415   Zn420   1.999   .     S
O416   Zn419   1.946   .     S
O417   Zn420   1.978   .     S
C421   O479    1.283   .     A
C421   C429    1.421   .     S
C421   O481    1.285   .     A
C422   C424    1.473   .     S
C422   C439    1.409   .     A
C422   C443    1.418   .     A
C423   C429    1.397   .     A
C423   H458    1.084   .     S
C423   C5      1.369   1_565 S
C424   O483    1.287   .     A
C424   O482    1.304   .     A
C425   H464    1.084   .     S
C425   C426    1.398   .     A
C426   C435    1.420   .     S
C426   C427    1.396   .     A
C427   H470    1.082   .     S
C428   H471    1.084   .     S
C428   C429    1.398   .     A
C428   C7      1.369   1_565 S
C430   H472    1.080   .     S
C430   N478    1.362   .     A
C430   C501    1.431   .     S
C431   N477    1.373   .     A
C431   O488    1.389   .     S
C431   C570    1.431   1_455 S
C432   C443    1.406   .     A
C432   C1071   1.416   .     S
C432   C1077   1.418   .     S
C433   H473    1.082   .     S
C433   N477    1.366   .     A
C433   C574    1.415   1_455 S
C434   H474    1.082   .     S
C434   N478    1.366   .     A
C434   C503    1.415   .     S
C435   O484    1.285   .     A
C435   O485    1.283   .     A
C436   O487    1.293   .     A
C436   O486    1.290   .     A
C436   C438    1.452   .     S
C437   C452    1.389   .     A
C437   C1078   1.400   1_554 S
C437   H1106   1.080   1_554 S
C438   C452    1.398   .     A
C438   C451    1.395   .     A
C439   O480    1.383   .     S
C439   C440    1.394   .     A
C440   C1071   1.392   .     S
C440   H1086   1.081   .     S
C441   H455    1.074   .     S
C441   C1062   1.416   1_554 S
C441   C1070   1.392   1_554 S
C442   H460    1.114   .     S
C442   O488    1.416   .     S
C442   H459    1.111   .     S
C442   C444    1.524   .     S
C443   C450    1.416   .     A
C444   H462    1.110   .     S
C444   H461    1.109   .     S
C444   H463    1.110   .     S
C445   O480    1.416   .     S
C445   H465    1.115   .     S
C445   H466    1.113   .     S
C445   C446    1.521   .     S
C446   H468    1.110   .     S
C446   H467    1.110   .     S
C446   H609    1.109   1_455 S
C447   C451    1.389   .     A
C447   C1062   1.418   1_554 S
C447   C1078   1.419   1_554 S
C448   C449    1.386   .     A
C448   C1067   1.400   .     S
C448   C1077   1.419   .     S
C449   C450    1.381   .     A
C449   H475    1.081   .     S
C450   H457    1.080   .     S
C451   H454    1.076   .     S
C452   H453    1.083   .     S
H456   C1070   1.081   1_554 S
H469   C516    1.109   .     S
H476   C1067   1.080   .     S
N477   Zn489   2.011   .     S
N478   Zn490   2.011   .     S
O479   Zn489   1.999   .     S
O481   Zn490   2.003   .     S
O482   Zn489   1.978   .     S
O483   Zn490   1.946   .     S
O484   Zn489   2.003   .     S
O485   Zn490   1.999   .     S
O486   Zn489   1.946   .     S
O487   Zn490   1.978   .     S
C491   O549    1.283   .     A
C491   C499    1.421   .     S
C491   O551    1.285   .     A
C492   C494    1.473   .     S
C492   C509    1.409   .     A
C492   C513    1.418   .     A
C493   C499    1.397   .     A
C493   H528    1.084   .     S
C493   C75     1.369   1_565 S
C494   O553    1.287   .     A
C494   O552    1.304   .     A
C495   H534    1.084   .     S
C495   C496    1.398   .     A
C496   C505    1.420   .     S
C496   C497    1.396   .     A
C497   H540    1.082   .     S
C498   H541    1.084   .     S
C498   C499    1.398   .     A
C498   C77     1.369   1_565 S
C500   H542    1.080   .     S
C500   N548    1.362   .     A
C500   C571    1.431   .     S
C501   N547    1.373   .     A
C501   O558    1.389   .     S
C502   C513    1.406   .     A
C502   C1141   1.416   .     S
C502   C1147   1.418   .     S
C503   H543    1.082   .     S
C503   N547    1.366   .     A
C504   H544    1.082   .     S
C504   N548    1.366   .     A
C504   C573    1.415   .     S
C505   O554    1.285   .     A
C505   O555    1.283   .     A
C506   O557    1.293   .     A
C506   O556    1.290   .     A
C506   C508    1.452   .     S
C507   C522    1.389   .     A
C507   C1148   1.400   1_554 S
C507   H1176   1.080   1_554 S
C508   C522    1.398   .     A
C508   C521    1.395   .     A
C509   O550    1.383   .     S
C509   C510    1.394   .     A
C510   C1141   1.392   .     S
C510   H1156   1.081   .     S
C511   H525    1.074   .     S
C511   C1132   1.416   1_554 S
C511   C1140   1.392   1_554 S
C512   H530    1.114   .     S
C512   O558    1.416   .     S
C512   H529    1.111   .     S
C512   C514    1.524   .     S
C513   C520    1.416   .     A
C514   H532    1.110   .     S
C514   H531    1.109   .     S
C514   H533    1.110   .     S
C515   O550    1.416   .     S
C515   H535    1.115   .     S
C515   H536    1.113   .     S
C515   C516    1.521   .     S
C516   H538    1.110   .     S
C516   H537    1.110   .     S
C517   C521    1.389   .     A
C517   C1132   1.418   1_554 S
C517   C1148   1.419   1_554 S
C518   C519    1.386   .     A
C518   C1137   1.400   .     S
C518   C1147   1.419   .     S
C519   C520    1.381   .     A
C519   H545    1.081   .     S
C520   H527    1.080   .     S
C521   H524    1.076   .     S
C522   H523    1.083   .     S
H526   C1140   1.081   1_554 S
H539   C586    1.109   .     S
H546   C1137   1.080   .     S
N547   Zn559   2.011   .     S
N548   Zn560   2.011   .     S
O549   Zn559   1.999   .     S
O551   Zn560   2.003   .     S
O552   Zn559   1.978   .     S
O553   Zn560   1.946   .     S
O554   Zn559   2.003   .     S
O555   Zn560   1.999   .     S
O556   Zn559   1.946   .     S
O557   Zn560   1.978   .     S
C561   O619    1.283   .     A
C561   C569    1.421   .     S
C561   O621    1.285   .     A
C562   C564    1.473   .     S
C562   C579    1.409   .     A
C562   C583    1.418   .     A
C563   C569    1.397   .     A
C563   H598    1.084   .     S
C563   C145    1.369   1_565 S
C564   O623    1.287   .     A
C564   O622    1.304   .     A
C565   H604    1.084   .     S
C565   C566    1.398   .     A
C566   C575    1.420   .     S
C566   C567    1.396   .     A
C567   H610    1.082   .     S
C568   H611    1.084   .     S
C568   C569    1.398   .     A
C568   C147    1.369   1_565 S
C570   H612    1.080   .     S
C570   N618    1.362   .     A
C570   C431    1.431   1_655 S
C571   N617    1.373   .     A
C571   O628    1.389   .     S
C572   C583    1.406   .     A
C572   C1211   1.416   .     S
C572   C1217   1.418   .     S
C573   H613    1.082   .     S
C573   N617    1.366   .     A
C574   H614    1.082   .     S
C574   N618    1.366   .     A
C574   C433    1.415   1_655 S
C575   O624    1.285   .     A
C575   O625    1.283   .     A
C576   O627    1.293   .     A
C576   O626    1.290   .     A
C576   C578    1.452   .     S
C577   C592    1.389   .     A
C577   C1218   1.400   1_554 S
C577   H1246   1.080   1_554 S
C578   C592    1.398   .     A
C578   C591    1.395   .     A
C579   O620    1.383   .     S
C579   C580    1.394   .     A
C580   C1211   1.392   .     S
C580   H1226   1.081   .     S
C581   H595    1.074   .     S
C581   C1202   1.416   1_554 S
C581   C1210   1.392   1_554 S
C582   H600    1.114   .     S
C582   O628    1.416   .     S
C582   H599    1.111   .     S
C582   C584    1.524   .     S
C583   C590    1.416   .     A
C584   H602    1.110   .     S
C584   H601    1.109   .     S
C584   H603    1.110   .     S
C585   O620    1.416   .     S
C585   H605    1.115   .     S
C585   H606    1.113   .     S
C585   C586    1.521   .     S
C586   H608    1.110   .     S
C586   H607    1.110   .     S
C587   C591    1.389   .     A
C587   C1202   1.418   1_554 S
C587   C1218   1.419   1_554 S
C588   C589    1.386   .     A
C588   C1207   1.400   .     S
C588   C1217   1.419   .     S
C589   C590    1.381   .     A
C589   H615    1.081   .     S
C590   H597    1.080   .     S
C591   H594    1.076   .     S
C592   H593    1.083   .     S
H596   C1210   1.081   1_554 S
H609   C446    1.109   1_655 S
H616   C1207   1.080   .     S
N617   Zn629   2.011   .     S
N618   Zn630   2.011   .     S
O619   Zn629   1.999   .     S
O621   Zn630   2.003   .     S
O622   Zn629   1.978   .     S
O623   Zn630   1.946   .     S
O624   Zn629   2.003   .     S
O625   Zn630   1.999   .     S
O626   Zn629   1.946   .     S
O627   Zn630   1.978   .     S
C631   O689    1.283   .     A
C631   C639    1.421   .     S
C631   O691    1.285   .     A
C632   C634    1.473   .     S
C632   C649    1.409   .     A
C632   C653    1.418   .     A
C633   C639    1.397   .     A
C633   H668    1.084   .     S
C633   C845    1.369   .     S
C634   O693    1.287   .     A
C634   O692    1.304   .     A
C635   H674    1.084   .     S
C635   C636    1.398   .     A
C635   C1053   1.369   1_545 S
C636   C645    1.420   .     S
C636   C637    1.396   .     A
C637   H680    1.082   .     S
C637   C1058   1.369   1_545 S
C638   H681    1.084   .     S
C638   C639    1.398   .     A
C638   C847    1.369   .     S
C640   H682    1.080   .     S
C640   N688    1.362   .     A
C640   C711    1.431   .     S
C641   N687    1.373   .     A
C641   O698    1.389   .     S
C641   C780    1.431   1_455 S
C642   C653    1.406   .     A
C642   C21     1.416   1_556 S
C642   C27     1.418   1_556 S
C643   H683    1.082   .     S
C643   N687    1.366   .     A
C643   C784    1.415   1_455 S
C644   H684    1.082   .     S
C644   N688    1.366   .     A
C644   C713    1.415   .     S
C645   O694    1.285   .     A
C645   O695    1.283   .     A
C646   O697    1.293   .     A
C646   O696    1.290   .     A
C646   C648    1.452   .     S
C647   C662    1.389   .     A
C648   C662    1.398   .     A
C648   C661    1.395   .     A
C649   O690    1.383   .     S
C649   C650    1.394   .     A
C650   C21     1.392   1_556 S
C650   H36     1.081   1_556 S
C651   H665    1.074   .     S
C652   H670    1.114   .     S
C652   O698    1.416   .     S
C652   H669    1.111   .     S
C652   C654    1.524   .     S
C653   C660    1.416   .     A
C654   H672    1.110   .     S
C654   H671    1.109   .     S
C654   H673    1.110   .     S
C655   O690    1.416   .     S
C655   H675    1.115   .     S
C655   H676    1.113   .     S
C655   C656    1.521   .     S
C656   H678    1.110   .     S
C656   H677    1.110   .     S
C656   H819    1.109   1_455 S
C657   C661    1.389   .     A
C658   C659    1.386   .     A
C658   C17     1.400   1_556 S
C658   C27     1.419   1_556 S
C659   C660    1.381   .     A
C659   H685    1.081   .     S
C660   H667    1.080   .     S
C661   H664    1.076   .     S
C662   H663    1.083   .     S
H679   C726    1.109   .     S
H686   C17     1.080   1_556 S
N687   Zn699   2.011   .     S
N688   Zn700   2.011   .     S
O689   Zn699   1.999   .     S
O691   Zn700   2.003   .     S
O692   Zn699   1.978   .     S
O693   Zn700   1.946   .     S
O694   Zn699   2.003   .     S
O695   Zn700   1.999   .     S
O696   Zn699   1.946   .     S
O697   Zn700   1.978   .     S
C701   O759    1.283   .     A
C701   C709    1.421   .     S
C701   O761    1.285   .     A
C702   C704    1.473   .     S
C702   C719    1.409   .     A
C702   C723    1.418   .     A
C703   C709    1.397   .     A
C703   H738    1.084   .     S
C703   C915    1.369   .     S
C704   O763    1.287   .     A
C704   O762    1.304   .     A
C705   H744    1.084   .     S
C705   C706    1.398   .     A
C705   C1123   1.369   1_545 S
C706   C715    1.420   .     S
C706   C707    1.396   .     A
C707   H750    1.082   .     S
C707   C1128   1.369   1_545 S
C708   H751    1.084   .     S
C708   C709    1.398   .     A
C708   C917    1.369   .     S
C710   H752    1.080   .     S
C710   N758    1.362   .     A
C710   C781    1.431   .     S
C711   N757    1.373   .     A
C711   O768    1.389   .     S
C712   C723    1.406   .     A
C712   C91     1.416   1_556 S
C712   C97     1.418   1_556 S
C713   H753    1.082   .     S
C713   N757    1.366   .     A
C714   H754    1.082   .     S
C714   N758    1.366   .     A
C714   C783    1.415   .     S
C715   O764    1.285   .     A
C715   O765    1.283   .     A
C716   O767    1.293   .     A
C716   O766    1.290   .     A
C716   C718    1.452   .     S
C717   C732    1.389   .     A
C718   C732    1.398   .     A
C718   C731    1.395   .     A
C719   O760    1.383   .     S
C719   C720    1.394   .     A
C720   C91     1.392   1_556 S
C720   H106    1.081   1_556 S
C721   H735    1.074   .     S
C722   H740    1.114   .     S
C722   O768    1.416   .     S
C722   H739    1.111   .     S
C722   C724    1.524   .     S
C723   C730    1.416   .     A
C724   H742    1.110   .     S
C724   H741    1.109   .     S
C724   H743    1.110   .     S
C725   O760    1.416   .     S
C725   H745    1.115   .     S
C725   H746    1.113   .     S
C725   C726    1.521   .     S
C726   H748    1.110   .     S
C726   H747    1.110   .     S
C727   C731    1.389   .     A
C728   C729    1.386   .     A
C728   C87     1.400   1_556 S
C728   C97     1.419   1_556 S
C729   C730    1.381   .     A
C729   H755    1.081   .     S
C730   H737    1.080   .     S
C731   H734    1.076   .     S
C732   H733    1.083   .     S
H749   C796    1.109   .     S
H756   C87     1.080   1_556 S
N757   Zn769   2.011   .     S
N758   Zn770   2.011   .     S
O759   Zn769   1.999   .     S
O761   Zn770   2.003   .     S
O762   Zn769   1.978   .     S
O763   Zn770   1.946   .     S
O764   Zn769   2.003   .     S
O765   Zn770   1.999   .     S
O766   Zn769   1.946   .     S
O767   Zn770   1.978   .     S
C771   O829    1.283   .     A
C771   C779    1.421   .     S
C771   O831    1.285   .     A
C772   C774    1.473   .     S
C772   C789    1.409   .     A
C772   C793    1.418   .     A
C773   C779    1.397   .     A
C773   H808    1.084   .     S
C773   C985    1.369   .     S
C774   O833    1.287   .     A
C774   O832    1.304   .     A
C775   H814    1.084   .     S
C775   C776    1.398   .     A
C775   C1193   1.369   1_545 S
C776   C785    1.420   .     S
C776   C777    1.396   .     A
C777   H820    1.082   .     S
C777   C1198   1.369   1_545 S
C778   H821    1.084   .     S
C778   C779    1.398   .     A
C778   C987    1.369   .     S
C780   H822    1.080   .     S
C780   N828    1.362   .     A
C780   C641    1.431   1_655 S
C781   N827    1.373   .     A
C781   O838    1.389   .     S
C782   C793    1.406   .     A
C782   C161    1.416   1_556 S
C782   C167    1.418   1_556 S
C783   H823    1.082   .     S
C783   N827    1.366   .     A
C784   H824    1.082   .     S
C784   N828    1.366   .     A
C784   C643    1.415   1_655 S
C785   O834    1.285   .     A
C785   O835    1.283   .     A
C786   O837    1.293   .     A
C786   O836    1.290   .     A
C786   C788    1.452   .     S
C787   C802    1.389   .     A
C788   C802    1.398   .     A
C788   C801    1.395   .     A
C789   O830    1.383   .     S
C789   C790    1.394   .     A
C790   C161    1.392   1_556 S
C790   H176    1.081   1_556 S
C791   H805    1.074   .     S
C792   H810    1.114   .     S
C792   O838    1.416   .     S
C792   H809    1.111   .     S
C792   C794    1.524   .     S
C793   C800    1.416   .     A
C794   H812    1.110   .     S
C794   H811    1.109   .     S
C794   H813    1.110   .     S
C795   O830    1.416   .     S
C795   H815    1.115   .     S
C795   H816    1.113   .     S
C795   C796    1.521   .     S
C796   H818    1.110   .     S
C796   H817    1.110   .     S
C797   C801    1.389   .     A
C798   C799    1.386   .     A
C798   C157    1.400   1_556 S
C798   C167    1.419   1_556 S
C799   C800    1.381   .     A
C799   H825    1.081   .     S
C800   H807    1.080   .     S
C801   H804    1.076   .     S
C802   H803    1.083   .     S
H819   C656    1.109   1_655 S
H826   C157    1.080   1_556 S
N827   Zn839   2.011   .     S
N828   Zn840   2.011   .     S
O829   Zn839   1.999   .     S
O831   Zn840   2.003   .     S
O832   Zn839   1.978   .     S
O833   Zn840   1.946   .     S
O834   Zn839   2.003   .     S
O835   Zn840   1.999   .     S
O836   Zn839   1.946   .     S
O837   Zn840   1.978   .     S
C841   O899    1.283   .     A
C841   C849    1.421   .     S
C841   O901    1.285   .     A
C842   C844    1.473   .     S
C842   C859    1.409   .     A
C842   C863    1.418   .     A
C843   C849    1.397   .     A
C843   H878    1.084   .     S
C843   C1055   1.369   .     S
C844   O903    1.287   .     A
C844   O902    1.304   .     A
C845   H884    1.084   .     S
C845   C846    1.398   .     A
C846   C855    1.420   .     S
C846   C847    1.396   .     A
C847   H890    1.082   .     S
C848   H891    1.084   .     S
C848   C849    1.398   .     A
C848   C1057   1.369   .     S
C850   H892    1.080   .     S
C850   N898    1.362   .     A
C850   C921    1.431   .     S
C851   N897    1.373   .     A
C851   O908    1.389   .     S
C851   C990    1.431   1_455 S
C852   C863    1.406   .     A
C852   C231    1.416   1_556 S
C852   C237    1.418   1_556 S
C853   H893    1.082   .     S
C853   N897    1.366   .     A
C853   C994    1.415   1_455 S
C854   H894    1.082   .     S
C854   N898    1.366   .     A
C854   C923    1.415   .     S
C855   O904    1.285   .     A
C855   O905    1.283   .     A
C856   O907    1.293   .     A
C856   O906    1.290   .     A
C856   C858    1.452   .     S
C857   C872    1.389   .     A
C858   C872    1.398   .     A
C858   C871    1.395   .     A
C859   O900    1.383   .     S
C859   C860    1.394   .     A
C860   C231    1.392   1_556 S
C860   H246    1.081   1_556 S
C861   H875    1.074   .     S
C862   H880    1.114   .     S
C862   O908    1.416   .     S
C862   H879    1.111   .     S
C862   C864    1.524   .     S
C863   C870    1.416   .     A
C864   H882    1.110   .     S
C864   H881    1.109   .     S
C864   H883    1.110   .     S
C865   O900    1.416   .     S
C865   H885    1.115   .     S
C865   H886    1.113   .     S
C865   C866    1.521   .     S
C866   H888    1.110   .     S
C866   H887    1.110   .     S
C866   H1029   1.109   1_455 S
C867   C871    1.389   .     A
C868   C869    1.386   .     A
C868   C227    1.400   1_556 S
C868   C237    1.419   1_556 S
C869   C870    1.381   .     A
C869   H895    1.081   .     S
C870   H877    1.080   .     S
C871   H874    1.076   .     S
C872   H873    1.083   .     S
H889   C936    1.109   .     S
H896   C227    1.080   1_556 S
N897   Zn909   2.011   .     S
N898   Zn910   2.011   .     S
O899   Zn909   1.999   .     S
O901   Zn910   2.003   .     S
O902   Zn909   1.978   .     S
O903   Zn910   1.946   .     S
O904   Zn909   2.003   .     S
O905   Zn910   1.999   .     S
O906   Zn909   1.946   .     S
O907   Zn910   1.978   .     S
C911   O969    1.283   .     A
C911   C919    1.421   .     S
C911   O971    1.285   .     A
C912   C914    1.473   .     S
C912   C929    1.409   .     A
C912   C933    1.418   .     A
C913   C919    1.397   .     A
C913   H948    1.084   .     S
C913   C1125   1.369   .     S
C914   O973    1.287   .     A
C914   O972    1.304   .     A
C915   H954    1.084   .     S
C915   C916    1.398   .     A
C916   C925    1.420   .     S
C916   C917    1.396   .     A
C917   H960    1.082   .     S
C918   H961    1.084   .     S
C918   C919    1.398   .     A
C918   C1127   1.369   .     S
C920   H962    1.080   .     S
C920   N968    1.362   .     A
C920   C991    1.431   .     S
C921   N967    1.373   .     A
C921   O978    1.389   .     S
C922   C933    1.406   .     A
C922   C301    1.416   1_556 S
C922   C307    1.418   1_556 S
C923   H963    1.082   .     S
C923   N967    1.366   .     A
C924   H964    1.082   .     S
C924   N968    1.366   .     A
C924   C993    1.415   .     S
C925   O974    1.285   .     A
C925   O975    1.283   .     A
C926   O977    1.293   .     A
C926   O976    1.290   .     A
C926   C928    1.452   .     S
C927   C942    1.389   .     A
C928   C942    1.398   .     A
C928   C941    1.395   .     A
C929   O970    1.383   .     S
C929   C930    1.394   .     A
C930   C301    1.392   1_556 S
C930   H316    1.081   1_556 S
C931   H945    1.074   .     S
C932   H950    1.114   .     S
C932   O978    1.416   .     S
C932   H949    1.111   .     S
C932   C934    1.524   .     S
C933   C940    1.416   .     A
C934   H952    1.110   .     S
C934   H951    1.109   .     S
C934   H953    1.110   .     S
C935   O970    1.416   .     S
C935   H955    1.115   .     S
C935   H956    1.113   .     S
C935   C936    1.521   .     S
C936   H958    1.110   .     S
C936   H957    1.110   .     S
C937   C941    1.389   .     A
C938   C939    1.386   .     A
C938   C297    1.400   1_556 S
C938   C307    1.419   1_556 S
C939   C940    1.381   .     A
C939   H965    1.081   .     S
C940   H947    1.080   .     S
C941   H944    1.076   .     S
C942   H943    1.083   .     S
H959   C1006   1.109   .     S
H966   C297    1.080   1_556 S
N967   Zn979   2.011   .     S
N968   Zn980   2.011   .     S
O969   Zn979   1.999   .     S
O971   Zn980   2.003   .     S
O972   Zn979   1.978   .     S
O973   Zn980   1.946   .     S
O974   Zn979   2.003   .     S
O975   Zn980   1.999   .     S
O976   Zn979   1.946   .     S
O977   Zn980   1.978   .     S
C981   O1039   1.283   .     A
C981   C989    1.421   .     S
C981   O1041   1.285   .     A
C982   C984    1.473   .     S
C982   C999    1.409   .     A
C982   C1003   1.418   .     A
C983   C989    1.397   .     A
C983   H1018   1.084   .     S
C983   C1195   1.369   .     S
C984   O1043   1.287   .     A
C984   O1042   1.304   .     A
C985   H1024   1.084   .     S
C985   C986    1.398   .     A
C986   C995    1.420   .     S
C986   C987    1.396   .     A
C987   H1030   1.082   .     S
C988   H1031   1.084   .     S
C988   C989    1.398   .     A
C988   C1197   1.369   .     S
C990   H1032   1.080   .     S
C990   N1038   1.362   .     A
C990   C851    1.431   1_655 S
C991   N1037   1.373   .     A
C991   O1048   1.389   .     S
C992   C1003   1.406   .     A
C992   C371    1.416   1_556 S
C992   C377    1.418   1_556 S
C993   H1033   1.082   .     S
C993   N1037   1.366   .     A
C994   H1034   1.082   .     S
C994   N1038   1.366   .     A
C994   C853    1.415   1_655 S
C995   O1044   1.285   .     A
C995   O1045   1.283   .     A
C996   O1047   1.293   .     A
C996   O1046   1.290   .     A
C996   C998    1.452   .     S
C997   C1012   1.389   .     A
C998   C1012   1.398   .     A
C998   C1011   1.395   .     A
C999   O1040   1.383   .     S
C999   C1000   1.394   .     A
C1000  C371    1.392   1_556 S
C1000  H386    1.081   1_556 S
C1001  H1015   1.074   .     S
C1002  H1020   1.114   .     S
C1002  O1048   1.416   .     S
C1002  H1019   1.111   .     S
C1002  C1004   1.524   .     S
C1003  C1010   1.416   .     A
C1004  H1022   1.110   .     S
C1004  H1021   1.109   .     S
C1004  H1023   1.110   .     S
C1005  O1040   1.416   .     S
C1005  H1025   1.115   .     S
C1005  H1026   1.113   .     S
C1005  C1006   1.521   .     S
C1006  H1028   1.110   .     S
C1006  H1027   1.110   .     S
C1007  C1011   1.389   .     A
C1008  C1009   1.386   .     A
C1008  C367    1.400   1_556 S
C1008  C377    1.419   1_556 S
C1009  C1010   1.381   .     A
C1009  H1035   1.081   .     S
C1010  H1017   1.080   .     S
C1011  H1014   1.076   .     S
C1012  H1013   1.083   .     S
H1029  C866    1.109   1_655 S
H1036  C367    1.080   1_556 S
N1037  Zn1049  2.011   .     S
N1038  Zn1050  2.011   .     S
O1039  Zn1049  1.999   .     S
O1041  Zn1050  2.003   .     S
O1042  Zn1049  1.978   .     S
O1043  Zn1050  1.946   .     S
O1044  Zn1049  2.003   .     S
O1045  Zn1050  1.999   .     S
O1046  Zn1049  1.946   .     S
O1047  Zn1050  1.978   .     S
C1051  O1109   1.283   .     A
C1051  C1059   1.421   .     S
C1051  O1111   1.285   .     A
C1052  C1054   1.473   .     S
C1052  C1069   1.409   .     A
C1052  C1073   1.418   .     A
C1053  C1059   1.397   .     A
C1053  H1088   1.084   .     S
C1053  C635    1.369   1_565 S
C1054  O1113   1.287   .     A
C1054  O1112   1.304   .     A
C1055  H1094   1.084   .     S
C1055  C1056   1.398   .     A
C1056  C1065   1.420   .     S
C1056  C1057   1.396   .     A
C1057  H1100   1.082   .     S
C1058  H1101   1.084   .     S
C1058  C1059   1.398   .     A
C1058  C637    1.369   1_565 S
C1060  H1102   1.080   .     S
C1060  N1108   1.362   .     A
C1060  C1131   1.431   .     S
C1061  N1107   1.373   .     A
C1061  O1118   1.389   .     S
C1061  C1200   1.431   1_455 S
C1062  C1073   1.406   .     A
C1062  C441    1.416   1_556 S
C1062  C447    1.418   1_556 S
C1063  H1103   1.082   .     S
C1063  N1107   1.366   .     A
C1063  C1204   1.415   1_455 S
C1064  H1104   1.082   .     S
C1064  N1108   1.366   .     A
C1064  C1133   1.415   .     S
C1065  O1114   1.285   .     A
C1065  O1115   1.283   .     A
C1066  O1117   1.293   .     A
C1066  O1116   1.290   .     A
C1066  C1068   1.452   .     S
C1067  C1082   1.389   .     A
C1068  C1082   1.398   .     A
C1068  C1081   1.395   .     A
C1069  O1110   1.383   .     S
C1069  C1070   1.394   .     A
C1070  C441    1.392   1_556 S
C1070  H456    1.081   1_556 S
C1071  H1085   1.074   .     S
C1072  H1090   1.114   .     S
C1072  O1118   1.416   .     S
C1072  H1089   1.111   .     S
C1072  C1074   1.524   .     S
C1073  C1080   1.416   .     A
C1074  H1092   1.110   .     S
C1074  H1091   1.109   .     S
C1074  H1093   1.110   .     S
C1075  O1110   1.416   .     S
C1075  H1095   1.115   .     S
C1075  H1096   1.113   .     S
C1075  C1076   1.521   .     S
C1076  H1098   1.110   .     S
C1076  H1097   1.110   .     S
C1076  H1239   1.109   1_455 S
C1077  C1081   1.389   .     A
C1078  C1079   1.386   .     A
C1078  C437    1.400   1_556 S
C1078  C447    1.419   1_556 S
C1079  C1080   1.381   .     A
C1079  H1105   1.081   .     S
C1080  H1087   1.080   .     S
C1081  H1084   1.076   .     S
C1082  H1083   1.083   .     S
H1099  C1146   1.109   .     S
H1106  C437    1.080   1_556 S
N1107  Zn1119  2.011   .     S
N1108  Zn1120  2.011   .     S
O1109  Zn1119  1.999   .     S
O1111  Zn1120  2.003   .     S
O1112  Zn1119  1.978   .     S
O1113  Zn1120  1.946   .     S
O1114  Zn1119  2.003   .     S
O1115  Zn1120  1.999   .     S
O1116  Zn1119  1.946   .     S
O1117  Zn1120  1.978   .     S
C1121  O1179   1.283   .     A
C1121  C1129   1.421   .     S
C1121  O1181   1.285   .     A
C1122  C1124   1.473   .     S
C1122  C1139   1.409   .     A
C1122  C1143   1.418   .     A
C1123  C1129   1.397   .     A
C1123  H1158   1.084   .     S
C1123  C705    1.369   1_565 S
C1124  O1183   1.287   .     A
C1124  O1182   1.304   .     A
C1125  H1164   1.084   .     S
C1125  C1126   1.398   .     A
C1126  C1135   1.420   .     S
C1126  C1127   1.396   .     A
C1127  H1170   1.082   .     S
C1128  H1171   1.084   .     S
C1128  C1129   1.398   .     A
C1128  C707    1.369   1_565 S
C1130  H1172   1.080   .     S
C1130  N1178   1.362   .     A
C1130  C1201   1.431   .     S
C1131  N1177   1.373   .     A
C1131  O1188   1.389   .     S
C1132  C1143   1.406   .     A
C1132  C511    1.416   1_556 S
C1132  C517    1.418   1_556 S
C1133  H1173   1.082   .     S
C1133  N1177   1.366   .     A
C1134  H1174   1.082   .     S
C1134  N1178   1.366   .     A
C1134  C1203   1.415   .     S
C1135  O1184   1.285   .     A
C1135  O1185   1.283   .     A
C1136  O1187   1.293   .     A
C1136  O1186   1.290   .     A
C1136  C1138   1.452   .     S
C1137  C1152   1.389   .     A
C1138  C1152   1.398   .     A
C1138  C1151   1.395   .     A
C1139  O1180   1.383   .     S
C1139  C1140   1.394   .     A
C1140  C511    1.392   1_556 S
C1140  H526    1.081   1_556 S
C1141  H1155   1.074   .     S
C1142  H1160   1.114   .     S
C1142  O1188   1.416   .     S
C1142  H1159   1.111   .     S
C1142  C1144   1.524   .     S
C1143  C1150   1.416   .     A
C1144  H1162   1.110   .     S
C1144  H1161   1.109   .     S
C1144  H1163   1.110   .     S
C1145  O1180   1.416   .     S
C1145  H1165   1.115   .     S
C1145  H1166   1.113   .     S
C1145  C1146   1.521   .     S
C1146  H1168   1.110   .     S
C1146  H1167   1.110   .     S
C1147  C1151   1.389   .     A
C1148  C1149   1.386   .     A
C1148  C507    1.400   1_556 S
C1148  C517    1.419   1_556 S
C1149  C1150   1.381   .     A
C1149  H1175   1.081   .     S
C1150  H1157   1.080   .     S
C1151  H1154   1.076   .     S
C1152  H1153   1.083   .     S
H1169  C1216   1.109   .     S
H1176  C507    1.080   1_556 S
N1177  Zn1189  2.011   .     S
N1178  Zn1190  2.011   .     S
O1179  Zn1189  1.999   .     S
O1181  Zn1190  2.003   .     S
O1182  Zn1189  1.978   .     S
O1183  Zn1190  1.946   .     S
O1184  Zn1189  2.003   .     S
O1185  Zn1190  1.999   .     S
O1186  Zn1189  1.946   .     S
O1187  Zn1190  1.978   .     S
C1191  O1249   1.283   .     A
C1191  C1199   1.421   .     S
C1191  O1251   1.285   .     A
C1192  C1194   1.473   .     S
C1192  C1209   1.409   .     A
C1192  C1213   1.418   .     A
C1193  C1199   1.397   .     A
C1193  H1228   1.084   .     S
C1193  C775    1.369   1_565 S
C1194  O1253   1.287   .     A
C1194  O1252   1.304   .     A
C1195  H1234   1.084   .     S
C1195  C1196   1.398   .     A
C1196  C1205   1.420   .     S
C1196  C1197   1.396   .     A
C1197  H1240   1.082   .     S
C1198  H1241   1.084   .     S
C1198  C1199   1.398   .     A
C1198  C777    1.369   1_565 S
C1200  H1242   1.080   .     S
C1200  N1248   1.362   .     A
C1200  C1061   1.431   1_655 S
C1201  N1247   1.373   .     A
C1201  O1258   1.389   .     S
C1202  C1213   1.406   .     A
C1202  C581    1.416   1_556 S
C1202  C587    1.418   1_556 S
C1203  H1243   1.082   .     S
C1203  N1247   1.366   .     A
C1204  H1244   1.082   .     S
C1204  N1248   1.366   .     A
C1204  C1063   1.415   1_655 S
C1205  O1254   1.285   .     A
C1205  O1255   1.283   .     A
C1206  O1257   1.293   .     A
C1206  O1256   1.290   .     A
C1206  C1208   1.452   .     S
C1207  C1222   1.389   .     A
C1208  C1222   1.398   .     A
C1208  C1221   1.395   .     A
C1209  O1250   1.383   .     S
C1209  C1210   1.394   .     A
C1210  C581    1.392   1_556 S
C1210  H596    1.081   1_556 S
C1211  H1225   1.074   .     S
C1212  H1230   1.114   .     S
C1212  O1258   1.416   .     S
C1212  H1229   1.111   .     S
C1212  C1214   1.524   .     S
C1213  C1220   1.416   .     A
C1214  H1232   1.110   .     S
C1214  H1231   1.109   .     S
C1214  H1233   1.110   .     S
C1215  O1250   1.416   .     S
C1215  H1235   1.115   .     S
C1215  H1236   1.113   .     S
C1215  C1216   1.521   .     S
C1216  H1238   1.110   .     S
C1216  H1237   1.110   .     S
C1217  C1221   1.389   .     A
C1218  C1219   1.386   .     A
C1218  C577    1.400   1_556 S
C1218  C587    1.419   1_556 S
C1219  C1220   1.381   .     A
C1219  H1245   1.081   .     S
C1220  H1227   1.080   .     S
C1221  H1224   1.076   .     S
C1222  H1223   1.083   .     S
H1239  C1076   1.109   1_655 S
H1246  C577    1.080   1_556 S
N1247  Zn1259  2.011   .     S
N1248  Zn1260  2.011   .     S
O1249  Zn1259  1.999   .     S
O1251  Zn1260  2.003   .     S
O1252  Zn1259  1.978   .     S
O1253  Zn1260  1.946   .     S
O1254  Zn1259  2.003   .     S
O1255  Zn1260  1.999   .     S
O1256  Zn1259  1.946   .     S
O1257  Zn1260  1.978   .     S
