data_str_m3_o1_o2_pcu_sym.49
_audit_creation_date              2020-01-03
_audit_creation_method            'Materials Studio'
_symmetry_space_group_name_H-M    'P1'
_symmetry_Int_Tables_number       1
_symmetry_cell_setting            triclinic
loop_
_symmetry_equiv_pos_as_xyz
  x,y,z
_cell_length_a                    31.3135
_cell_length_b                    30.6036
_cell_length_c                    30.0564
_cell_angle_alpha                 90.0073
_cell_angle_beta                  94.0042
_cell_angle_gamma                 90.2800
loop_
_atom_site_label
_atom_site_type_symbol
_atom_site_fract_x
_atom_site_fract_y
_atom_site_fract_z
_atom_site_U_iso_or_equiv
_atom_site_adp_type
_atom_site_occupancy
O1     O     0.10559   0.20487   0.25000   0.00000  Uiso   1.00
O2     O     0.22774   0.12846   0.25001   0.00000  Uiso   1.00
O3     O     0.22774   0.20487   0.25001   0.00000  Uiso   1.00
O4     O     0.10559   0.12846   0.25000   0.00000  Uiso   1.00
N5     N     0.16667   0.28573   0.25000   0.00000  Uiso   1.00
N6     N     0.16667   0.04760   0.25000   0.00000  Uiso   1.00
C7     C     0.08720   0.16645   0.24979   0.00000  Uiso   1.00
C8     C     0.24614   0.16662   0.25018   0.00000  Uiso   1.00
O9     O     0.16666   0.20489   0.18453   0.00000  Uiso   1.00
O10    O     0.16667   0.12845   0.31547   0.00000  Uiso   1.00
O11    O     0.16667   0.20489   0.31547   0.00000  Uiso   1.00
O12    O     0.16666   0.12845   0.18453   0.00000  Uiso   1.00
C13    C     0.16864   0.16668   0.16438   0.00000  Uiso   1.00
C14    C     0.16605   0.16672   0.33586   0.00000  Uiso   1.00
Zn15   Zn    0.16667   0.21771   0.25000   0.00000  Uiso   1.00
Zn16   Zn    0.16667   0.11563   0.25000   0.00000  Uiso   1.00
C17    C     0.20198   0.02384   0.26671   0.00000  Uiso   1.00
C18    C     0.12962   0.31009   0.24027   0.00000  Uiso   1.00
C19    C     0.13146   0.02350   0.23302   0.00000  Uiso   1.00
C20    C     0.20375   0.31043   0.25952   0.00000  Uiso   1.00
C21    C     0.01906   0.15981   0.20958   0.00000  Uiso   1.00
C22    C     0.31430   0.16865   0.29082   0.00000  Uiso   1.00
C23    C     0.30861   0.16036   0.20963   0.00000  Uiso   1.00
C24    C     0.02474   0.16894   0.29069   0.00000  Uiso   1.00
C25    C     0.16479   0.20046   0.04422   0.00000  Uiso   1.00
C26    C     0.16303   0.12685   0.45391   0.00000  Uiso   1.00
C27    C     0.19426   0.19945   0.45444   0.00000  Uiso   1.00
C28    C     0.19725   0.12888   0.05099   0.00000  Uiso   1.00
H29    H     0.15302   0.22752   0.02354   0.00000  Uiso   1.00
H30    H     0.15177   0.09893   0.47210   0.00000  Uiso   1.00
H31    H     0.20794   0.22720   0.47301   0.00000  Uiso   1.00
H32    H     0.21165   0.10106   0.03552   0.00000  Uiso   1.00
C33    C     0.16223   0.20284   0.08970   0.00000  Uiso   1.00
C34    C     0.15545   0.12882   0.40795   0.00000  Uiso   1.00
C35    C     0.18520   0.20307   0.40905   0.00000  Uiso   1.00
C36    C     0.19433   0.13002   0.09682   0.00000  Uiso   1.00
C37    C     0.17488   0.16650   0.11661   0.00000  Uiso   1.00
C38    C     0.16805   0.16658   0.38464   0.00000  Uiso   1.00
H39    H     0.03423   0.15625   0.17845   0.00000  Uiso   1.00
H40    H     0.29914   0.17147   0.32204   0.00000  Uiso   1.00
H41    H     0.28907   0.15706   0.17857   0.00000  Uiso   1.00
H42    H     0.04427   0.17219   0.32177   0.00000  Uiso   1.00
C43    C     0.18199   0.16373   0.02491   0.00000  Uiso   1.00
C44    C     0.18229   0.16208   0.47692   0.00000  Uiso   1.00
C45    C     0.29039   0.16596   0.25014   0.00000  Uiso   1.00
C46    C     0.04297   0.16550   0.24997   0.00000  Uiso   1.00
C47    C     0.24109   0.04632   0.29137   0.00000  Uiso   1.00
C48    C     0.23204   0.06864   0.33561   0.00000  Uiso   1.00
C49    C     0.26228   0.05462   0.37520   0.00000  Uiso   1.00
H50    H     0.25792   0.01944   0.38255   0.00000  Uiso   1.00
H51    H     0.29611   0.06093   0.36808   0.00000  Uiso   1.00
H52    H     0.25506   0.07367   0.40521   0.00000  Uiso   1.00
H53    H     0.23690   0.10430   0.33204   0.00000  Uiso   1.00
H54    H     0.19899   0.06101   0.34422   0.00000  Uiso   1.00
H55    H     0.26727   0.02403   0.30050   0.00000  Uiso   1.00
H56    H     0.25849   0.06669   0.26864   0.00000  Uiso   1.00
C57    C     0.08514   0.29001   0.24135   0.00000  Uiso   1.00
C58    C     0.06763   0.27286   0.19485   0.00000  Uiso   1.00
C59    C     0.01881   0.27142   0.18982   0.00000  Uiso   1.00
H60    H     0.00630   0.24780   0.21340   0.00000  Uiso   1.00
H61    H     0.00521   0.30417   0.19582   0.00000  Uiso   1.00
H62    H     0.00809   0.26090   0.15547   0.00000  Uiso   1.00
H63    H     0.07812   0.29451   0.16835   0.00000  Uiso   1.00
H64    H     0.08035   0.24051   0.18656   0.00000  Uiso   1.00
H65    H     0.08282   0.26794   0.26992   0.00000  Uiso   1.00
H66    H     0.06285   0.31479   0.25336   0.00000  Uiso   1.00
C67    C     0.09270   0.04559   0.20774   0.00000  Uiso   1.00
C68    C     0.10240   0.06748   0.16339   0.00000  Uiso   1.00
C69    C     0.07278   0.05257   0.12354   0.00000  Uiso   1.00
H70    H     0.07765   0.01747   0.11645   0.00000  Uiso   1.00
H71    H     0.03876   0.05818   0.13015   0.00000  Uiso   1.00
H72    H     0.08014   0.07160   0.09353   0.00000  Uiso   1.00
H73    H     0.09716   0.10307   0.16648   0.00000  Uiso   1.00
H74    H     0.13573   0.06046   0.15534   0.00000  Uiso   1.00
H75    H     0.06622   0.02325   0.19872   0.00000  Uiso   1.00
H76    H     0.07547   0.06639   0.23003   0.00000  Uiso   1.00
C77    C     0.24819   0.29077   0.25801   0.00000  Uiso   1.00
C78    C     0.26644   0.27444   0.30450   0.00000  Uiso   1.00
C79    C     0.31527   0.27654   0.30984   0.00000  Uiso   1.00
H80    H     0.32934   0.25611   0.28453   0.00000  Uiso   1.00
H81    H     0.32690   0.31062   0.30645   0.00000  Uiso   1.00
H82    H     0.32655   0.26426   0.34336   0.00000  Uiso   1.00
H83    H     0.25456   0.29494   0.33114   0.00000  Uiso   1.00
H84    H     0.25562   0.24115   0.31234   0.00000  Uiso   1.00
H85    H     0.25018   0.26828   0.22976   0.00000  Uiso   1.00
H86    H     0.27016   0.31571   0.24530   0.00000  Uiso   1.00
C87    C     0.14830   0.24410   0.10677   0.00000  Uiso   1.00
N88    N     0.13792   0.27768   0.11981   0.00000  Uiso   1.00
C89    C     0.13106   0.09340   0.38658   0.00000  Uiso   1.00
N90    N     0.11148   0.06509   0.36954   0.00000  Uiso   1.00
C91    C     0.18932   0.24630   0.39048   0.00000  Uiso   1.00
N92    N     0.19168   0.28129   0.37628   0.00000  Uiso   1.00
C93    C     0.21387   0.09440   0.12240   0.00000  Uiso   1.00
N94    N     0.22957   0.06593   0.14282   0.00000  Uiso   1.00
O95    O     0.43892   0.20487   0.25000   0.00000  Uiso   1.00
O96    O     0.56108   0.12846   0.25001   0.00000  Uiso   1.00
O97    O     0.56108   0.20487   0.25001   0.00000  Uiso   1.00
O98    O     0.43892   0.12846   0.25000   0.00000  Uiso   1.00
N99    N     0.50000   0.28573   0.25000   0.00000  Uiso   1.00
N100   N     0.50000   0.04760   0.25000   0.00000  Uiso   1.00
C101   C     0.42053   0.16645   0.24979   0.00000  Uiso   1.00
C102   C     0.57947   0.16662   0.25018   0.00000  Uiso   1.00
O103   O     0.50000   0.20489   0.18453   0.00000  Uiso   1.00
O104   O     0.50000   0.12845   0.31547   0.00000  Uiso   1.00
O105   O     0.50000   0.20489   0.31547   0.00000  Uiso   1.00
O106   O     0.50000   0.12845   0.18453   0.00000  Uiso   1.00
C107   C     0.50198   0.16668   0.16438   0.00000  Uiso   1.00
C108   C     0.49939   0.16672   0.33586   0.00000  Uiso   1.00
Zn109  Zn    0.50000   0.21771   0.25000   0.00000  Uiso   1.00
Zn110  Zn    0.50000   0.11563   0.25000   0.00000  Uiso   1.00
C111   C     0.53531   0.02384   0.26671   0.00000  Uiso   1.00
C112   C     0.46296   0.31009   0.24027   0.00000  Uiso   1.00
C113   C     0.46480   0.02350   0.23302   0.00000  Uiso   1.00
C114   C     0.53708   0.31043   0.25952   0.00000  Uiso   1.00
C115   C     0.35239   0.15981   0.20958   0.00000  Uiso   1.00
C116   C     0.64763   0.16865   0.29082   0.00000  Uiso   1.00
C117   C     0.64194   0.16036   0.20963   0.00000  Uiso   1.00
C118   C     0.35807   0.16894   0.29069   0.00000  Uiso   1.00
C119   C     0.49812   0.20046   0.04422   0.00000  Uiso   1.00
C120   C     0.49636   0.12685   0.45391   0.00000  Uiso   1.00
C121   C     0.52759   0.19945   0.45444   0.00000  Uiso   1.00
C122   C     0.53058   0.12888   0.05099   0.00000  Uiso   1.00
H123   H     0.48635   0.22752   0.02354   0.00000  Uiso   1.00
H124   H     0.48510   0.09893   0.47210   0.00000  Uiso   1.00
H125   H     0.54127   0.22720   0.47301   0.00000  Uiso   1.00
H126   H     0.54499   0.10106   0.03552   0.00000  Uiso   1.00
C127   C     0.49556   0.20284   0.08970   0.00000  Uiso   1.00
C128   C     0.48879   0.12882   0.40795   0.00000  Uiso   1.00
C129   C     0.51853   0.20307   0.40905   0.00000  Uiso   1.00
C130   C     0.52766   0.13002   0.09682   0.00000  Uiso   1.00
C131   C     0.50821   0.16650   0.11661   0.00000  Uiso   1.00
C132   C     0.50138   0.16658   0.38464   0.00000  Uiso   1.00
H133   H     0.36757   0.15625   0.17845   0.00000  Uiso   1.00
H134   H     0.63247   0.17147   0.32204   0.00000  Uiso   1.00
H135   H     0.62240   0.15706   0.17857   0.00000  Uiso   1.00
H136   H     0.37761   0.17219   0.32177   0.00000  Uiso   1.00
C137   C     0.51532   0.16373   0.02491   0.00000  Uiso   1.00
C138   C     0.51562   0.16208   0.47692   0.00000  Uiso   1.00
C139   C     0.62372   0.16596   0.25014   0.00000  Uiso   1.00
C140   C     0.37630   0.16550   0.24997   0.00000  Uiso   1.00
C141   C     0.57442   0.04632   0.29137   0.00000  Uiso   1.00
C142   C     0.56537   0.06864   0.33561   0.00000  Uiso   1.00
C143   C     0.59561   0.05462   0.37520   0.00000  Uiso   1.00
H144   H     0.59125   0.01944   0.38255   0.00000  Uiso   1.00
H145   H     0.62944   0.06093   0.36808   0.00000  Uiso   1.00
H146   H     0.58839   0.07367   0.40521   0.00000  Uiso   1.00
H147   H     0.57023   0.10430   0.33204   0.00000  Uiso   1.00
H148   H     0.53232   0.06101   0.34422   0.00000  Uiso   1.00
H149   H     0.60061   0.02403   0.30050   0.00000  Uiso   1.00
H150   H     0.59182   0.06669   0.26864   0.00000  Uiso   1.00
C151   C     0.41848   0.29001   0.24135   0.00000  Uiso   1.00
C152   C     0.40096   0.27286   0.19485   0.00000  Uiso   1.00
C153   C     0.35214   0.27142   0.18982   0.00000  Uiso   1.00
H154   H     0.33964   0.24780   0.21340   0.00000  Uiso   1.00
H155   H     0.33854   0.30417   0.19582   0.00000  Uiso   1.00
H156   H     0.34142   0.26090   0.15547   0.00000  Uiso   1.00
H157   H     0.41146   0.29451   0.16835   0.00000  Uiso   1.00
H158   H     0.41368   0.24051   0.18656   0.00000  Uiso   1.00
H159   H     0.41615   0.26794   0.26992   0.00000  Uiso   1.00
H160   H     0.39618   0.31479   0.25336   0.00000  Uiso   1.00
C161   C     0.42604   0.04559   0.20774   0.00000  Uiso   1.00
C162   C     0.43573   0.06748   0.16339   0.00000  Uiso   1.00
C163   C     0.40611   0.05257   0.12354   0.00000  Uiso   1.00
H164   H     0.41098   0.01747   0.11645   0.00000  Uiso   1.00
H165   H     0.37209   0.05818   0.13015   0.00000  Uiso   1.00
H166   H     0.41347   0.07160   0.09353   0.00000  Uiso   1.00
H167   H     0.43050   0.10307   0.16648   0.00000  Uiso   1.00
H168   H     0.46906   0.06046   0.15534   0.00000  Uiso   1.00
H169   H     0.39955   0.02325   0.19872   0.00000  Uiso   1.00
H170   H     0.40880   0.06639   0.23003   0.00000  Uiso   1.00
C171   C     0.58152   0.29077   0.25801   0.00000  Uiso   1.00
C172   C     0.59977   0.27444   0.30450   0.00000  Uiso   1.00
C173   C     0.64860   0.27654   0.30984   0.00000  Uiso   1.00
H174   H     0.66268   0.25611   0.28453   0.00000  Uiso   1.00
H175   H     0.66024   0.31062   0.30645   0.00000  Uiso   1.00
H176   H     0.65988   0.26426   0.34336   0.00000  Uiso   1.00
H177   H     0.58789   0.29494   0.33114   0.00000  Uiso   1.00
H178   H     0.58896   0.24115   0.31234   0.00000  Uiso   1.00
H179   H     0.58351   0.26828   0.22976   0.00000  Uiso   1.00
H180   H     0.60350   0.31571   0.24530   0.00000  Uiso   1.00
C181   C     0.48164   0.24410   0.10677   0.00000  Uiso   1.00
N182   N     0.47125   0.27768   0.11981   0.00000  Uiso   1.00
C183   C     0.46439   0.09340   0.38658   0.00000  Uiso   1.00
N184   N     0.44481   0.06509   0.36954   0.00000  Uiso   1.00
C185   C     0.52266   0.24630   0.39048   0.00000  Uiso   1.00
N186   N     0.52501   0.28129   0.37628   0.00000  Uiso   1.00
C187   C     0.54720   0.09440   0.12240   0.00000  Uiso   1.00
N188   N     0.56291   0.06593   0.14282   0.00000  Uiso   1.00
O189   O     0.77226   0.20487   0.25000   0.00000  Uiso   1.00
O190   O     0.89441   0.12846   0.25001   0.00000  Uiso   1.00
O191   O     0.89441   0.20487   0.25001   0.00000  Uiso   1.00
O192   O     0.77226   0.12846   0.25000   0.00000  Uiso   1.00
N193   N     0.83333   0.28573   0.25000   0.00000  Uiso   1.00
N194   N     0.83333   0.04760   0.25000   0.00000  Uiso   1.00
C195   C     0.75386   0.16645   0.24979   0.00000  Uiso   1.00
C196   C     0.91281   0.16662   0.25018   0.00000  Uiso   1.00
O197   O     0.83333   0.20489   0.18453   0.00000  Uiso   1.00
O198   O     0.83334   0.12845   0.31547   0.00000  Uiso   1.00
O199   O     0.83334   0.20489   0.31547   0.00000  Uiso   1.00
O200   O     0.83333   0.12845   0.18453   0.00000  Uiso   1.00
C201   C     0.83531   0.16668   0.16438   0.00000  Uiso   1.00
C202   C     0.83272   0.16672   0.33586   0.00000  Uiso   1.00
Zn203  Zn    0.83333   0.21771   0.25000   0.00000  Uiso   1.00
Zn204  Zn    0.83333   0.11563   0.25000   0.00000  Uiso   1.00
C205   C     0.86865   0.02384   0.26671   0.00000  Uiso   1.00
C206   C     0.79629   0.31009   0.24027   0.00000  Uiso   1.00
C207   C     0.79813   0.02350   0.23302   0.00000  Uiso   1.00
C208   C     0.87041   0.31043   0.25952   0.00000  Uiso   1.00
C209   C     0.68573   0.15981   0.20958   0.00000  Uiso   1.00
C210   C     0.98097   0.16865   0.29082   0.00000  Uiso   1.00
C211   C     0.97528   0.16036   0.20963   0.00000  Uiso   1.00
C212   C     0.69141   0.16894   0.29069   0.00000  Uiso   1.00
C213   C     0.83146   0.20046   0.04422   0.00000  Uiso   1.00
C214   C     0.82970   0.12685   0.45391   0.00000  Uiso   1.00
C215   C     0.86092   0.19945   0.45444   0.00000  Uiso   1.00
C216   C     0.86392   0.12888   0.05099   0.00000  Uiso   1.00
H217   H     0.81969   0.22752   0.02354   0.00000  Uiso   1.00
H218   H     0.81844   0.09893   0.47210   0.00000  Uiso   1.00
H219   H     0.87460   0.22720   0.47301   0.00000  Uiso   1.00
H220   H     0.87832   0.10106   0.03552   0.00000  Uiso   1.00
C221   C     0.82889   0.20284   0.08970   0.00000  Uiso   1.00
C222   C     0.82212   0.12882   0.40795   0.00000  Uiso   1.00
C223   C     0.85186   0.20307   0.40905   0.00000  Uiso   1.00
C224   C     0.86099   0.13002   0.09682   0.00000  Uiso   1.00
C225   C     0.84154   0.16650   0.11661   0.00000  Uiso   1.00
C226   C     0.83471   0.16658   0.38464   0.00000  Uiso   1.00
H227   H     0.70090   0.15625   0.17845   0.00000  Uiso   1.00
H228   H     0.96580   0.17147   0.32204   0.00000  Uiso   1.00
H229   H     0.95573   0.15706   0.17857   0.00000  Uiso   1.00
H230   H     0.71094   0.17219   0.32177   0.00000  Uiso   1.00
C231   C     0.84865   0.16373   0.02491   0.00000  Uiso   1.00
C232   C     0.84896   0.16208   0.47692   0.00000  Uiso   1.00
C233   C     0.95706   0.16596   0.25014   0.00000  Uiso   1.00
C234   C     0.70963   0.16550   0.24997   0.00000  Uiso   1.00
C235   C     0.90776   0.04632   0.29137   0.00000  Uiso   1.00
C236   C     0.89870   0.06864   0.33561   0.00000  Uiso   1.00
C237   C     0.92895   0.05462   0.37520   0.00000  Uiso   1.00
H238   H     0.92458   0.01944   0.38255   0.00000  Uiso   1.00
H239   H     0.96277   0.06093   0.36808   0.00000  Uiso   1.00
H240   H     0.92173   0.07367   0.40521   0.00000  Uiso   1.00
H241   H     0.90356   0.10430   0.33204   0.00000  Uiso   1.00
H242   H     0.86565   0.06101   0.34422   0.00000  Uiso   1.00
H243   H     0.93394   0.02403   0.30050   0.00000  Uiso   1.00
H244   H     0.92516   0.06669   0.26864   0.00000  Uiso   1.00
C245   C     0.75181   0.29001   0.24135   0.00000  Uiso   1.00
C246   C     0.73430   0.27286   0.19485   0.00000  Uiso   1.00
C247   C     0.68548   0.27142   0.18982   0.00000  Uiso   1.00
H248   H     0.67297   0.24780   0.21340   0.00000  Uiso   1.00
H249   H     0.67188   0.30417   0.19582   0.00000  Uiso   1.00
H250   H     0.67476   0.26090   0.15547   0.00000  Uiso   1.00
H251   H     0.74479   0.29451   0.16835   0.00000  Uiso   1.00
H252   H     0.74702   0.24051   0.18656   0.00000  Uiso   1.00
H253   H     0.74948   0.26794   0.26992   0.00000  Uiso   1.00
H254   H     0.72952   0.31479   0.25336   0.00000  Uiso   1.00
C255   C     0.75937   0.04559   0.20774   0.00000  Uiso   1.00
C256   C     0.76907   0.06748   0.16339   0.00000  Uiso   1.00
C257   C     0.73944   0.05257   0.12354   0.00000  Uiso   1.00
H258   H     0.74432   0.01747   0.11645   0.00000  Uiso   1.00
H259   H     0.70543   0.05818   0.13015   0.00000  Uiso   1.00
H260   H     0.74680   0.07160   0.09353   0.00000  Uiso   1.00
H261   H     0.76383   0.10307   0.16648   0.00000  Uiso   1.00
H262   H     0.80240   0.06046   0.15534   0.00000  Uiso   1.00
H263   H     0.73288   0.02325   0.19872   0.00000  Uiso   1.00
H264   H     0.74213   0.06639   0.23003   0.00000  Uiso   1.00
C265   C     0.91485   0.29077   0.25801   0.00000  Uiso   1.00
C266   C     0.93311   0.27444   0.30450   0.00000  Uiso   1.00
C267   C     0.98194   0.27654   0.30984   0.00000  Uiso   1.00
H268   H     0.99601   0.25611   0.28453   0.00000  Uiso   1.00
H269   H     0.99357   0.31062   0.30645   0.00000  Uiso   1.00
H270   H     0.99321   0.26426   0.34336   0.00000  Uiso   1.00
H271   H     0.92122   0.29494   0.33114   0.00000  Uiso   1.00
H272   H     0.92229   0.24115   0.31234   0.00000  Uiso   1.00
H273   H     0.91684   0.26828   0.22976   0.00000  Uiso   1.00
H274   H     0.93683   0.31571   0.24530   0.00000  Uiso   1.00
C275   C     0.81497   0.24410   0.10677   0.00000  Uiso   1.00
N276   N     0.80459   0.27768   0.11981   0.00000  Uiso   1.00
C277   C     0.79772   0.09340   0.38658   0.00000  Uiso   1.00
N278   N     0.77814   0.06509   0.36954   0.00000  Uiso   1.00
C279   C     0.85599   0.24630   0.39048   0.00000  Uiso   1.00
N280   N     0.85834   0.28129   0.37628   0.00000  Uiso   1.00
C281   C     0.88053   0.09440   0.12240   0.00000  Uiso   1.00
N282   N     0.89624   0.06593   0.14282   0.00000  Uiso   1.00
O283   O     0.10559   0.53821   0.25000   0.00000  Uiso   1.00
O284   O     0.22774   0.46179   0.25001   0.00000  Uiso   1.00
O285   O     0.22774   0.53821   0.25001   0.00000  Uiso   1.00
O286   O     0.10559   0.46179   0.25000   0.00000  Uiso   1.00
N287   N     0.16667   0.61907   0.25000   0.00000  Uiso   1.00
N288   N     0.16667   0.38093   0.25000   0.00000  Uiso   1.00
C289   C     0.08720   0.49978   0.24979   0.00000  Uiso   1.00
C290   C     0.24614   0.49995   0.25018   0.00000  Uiso   1.00
O291   O     0.16666   0.53822   0.18453   0.00000  Uiso   1.00
O292   O     0.16667   0.46178   0.31547   0.00000  Uiso   1.00
O293   O     0.16667   0.53822   0.31547   0.00000  Uiso   1.00
O294   O     0.16666   0.46178   0.18453   0.00000  Uiso   1.00
C295   C     0.16864   0.50001   0.16438   0.00000  Uiso   1.00
C296   C     0.16605   0.50006   0.33586   0.00000  Uiso   1.00
Zn297  Zn    0.16667   0.55104   0.25000   0.00000  Uiso   1.00
Zn298  Zn    0.16667   0.44896   0.25000   0.00000  Uiso   1.00
C299   C     0.20198   0.35718   0.26671   0.00000  Uiso   1.00
C300   C     0.12962   0.64343   0.24027   0.00000  Uiso   1.00
C301   C     0.13146   0.35684   0.23302   0.00000  Uiso   1.00
C302   C     0.20375   0.64377   0.25952   0.00000  Uiso   1.00
C303   C     0.01906   0.49314   0.20958   0.00000  Uiso   1.00
C304   C     0.31430   0.50199   0.29082   0.00000  Uiso   1.00
C305   C     0.30861   0.49369   0.20963   0.00000  Uiso   1.00
C306   C     0.02474   0.50227   0.29069   0.00000  Uiso   1.00
C307   C     0.16479   0.53379   0.04422   0.00000  Uiso   1.00
C308   C     0.16303   0.46019   0.45391   0.00000  Uiso   1.00
C309   C     0.19426   0.53278   0.45444   0.00000  Uiso   1.00
C310   C     0.19725   0.46222   0.05099   0.00000  Uiso   1.00
H311   H     0.15302   0.56085   0.02354   0.00000  Uiso   1.00
H312   H     0.15177   0.43226   0.47210   0.00000  Uiso   1.00
H313   H     0.20794   0.56054   0.47301   0.00000  Uiso   1.00
H314   H     0.21165   0.43439   0.03552   0.00000  Uiso   1.00
C315   C     0.16223   0.53617   0.08970   0.00000  Uiso   1.00
C316   C     0.15545   0.46215   0.40795   0.00000  Uiso   1.00
C317   C     0.18520   0.53640   0.40905   0.00000  Uiso   1.00
C318   C     0.19433   0.46336   0.09682   0.00000  Uiso   1.00
C319   C     0.17488   0.49983   0.11661   0.00000  Uiso   1.00
C320   C     0.16805   0.49991   0.38464   0.00000  Uiso   1.00
H321   H     0.03423   0.48958   0.17845   0.00000  Uiso   1.00
H322   H     0.29914   0.50480   0.32204   0.00000  Uiso   1.00
H323   H     0.28907   0.49039   0.17857   0.00000  Uiso   1.00
H324   H     0.04427   0.50553   0.32177   0.00000  Uiso   1.00
C325   C     0.18199   0.49707   0.02491   0.00000  Uiso   1.00
C326   C     0.18229   0.49541   0.47692   0.00000  Uiso   1.00
C327   C     0.29039   0.49930   0.25014   0.00000  Uiso   1.00
C328   C     0.04297   0.49883   0.24997   0.00000  Uiso   1.00
C329   C     0.24109   0.37965   0.29137   0.00000  Uiso   1.00
C330   C     0.23204   0.40197   0.33561   0.00000  Uiso   1.00
C331   C     0.26228   0.38796   0.37520   0.00000  Uiso   1.00
H332   H     0.25792   0.35277   0.38255   0.00000  Uiso   1.00
H333   H     0.29611   0.39426   0.36808   0.00000  Uiso   1.00
H334   H     0.25506   0.40700   0.40521   0.00000  Uiso   1.00
H335   H     0.23690   0.43763   0.33204   0.00000  Uiso   1.00
H336   H     0.19899   0.39434   0.34422   0.00000  Uiso   1.00
H337   H     0.26727   0.35737   0.30050   0.00000  Uiso   1.00
H338   H     0.25849   0.40002   0.26864   0.00000  Uiso   1.00
C339   C     0.08514   0.62334   0.24135   0.00000  Uiso   1.00
C340   C     0.06763   0.60620   0.19485   0.00000  Uiso   1.00
C341   C     0.01881   0.60475   0.18982   0.00000  Uiso   1.00
H342   H     0.00630   0.58114   0.21340   0.00000  Uiso   1.00
H343   H     0.00521   0.63750   0.19582   0.00000  Uiso   1.00
H344   H     0.00809   0.59423   0.15547   0.00000  Uiso   1.00
H345   H     0.07812   0.62784   0.16835   0.00000  Uiso   1.00
H346   H     0.08035   0.57384   0.18656   0.00000  Uiso   1.00
H347   H     0.08282   0.60127   0.26992   0.00000  Uiso   1.00
H348   H     0.06285   0.64813   0.25336   0.00000  Uiso   1.00
C349   C     0.09270   0.37893   0.20774   0.00000  Uiso   1.00
C350   C     0.10240   0.40081   0.16339   0.00000  Uiso   1.00
C351   C     0.07278   0.38591   0.12354   0.00000  Uiso   1.00
H352   H     0.07765   0.35080   0.11645   0.00000  Uiso   1.00
H353   H     0.03876   0.39152   0.13015   0.00000  Uiso   1.00
H354   H     0.08014   0.40493   0.09353   0.00000  Uiso   1.00
H355   H     0.09716   0.43641   0.16648   0.00000  Uiso   1.00
H356   H     0.13573   0.39379   0.15534   0.00000  Uiso   1.00
H357   H     0.06622   0.35658   0.19872   0.00000  Uiso   1.00
H358   H     0.07547   0.39972   0.23003   0.00000  Uiso   1.00
C359   C     0.24819   0.62410   0.25801   0.00000  Uiso   1.00
C360   C     0.26644   0.60777   0.30450   0.00000  Uiso   1.00
C361   C     0.31527   0.60987   0.30984   0.00000  Uiso   1.00
H362   H     0.32934   0.58944   0.28453   0.00000  Uiso   1.00
H363   H     0.32690   0.64395   0.30645   0.00000  Uiso   1.00
H364   H     0.32655   0.59759   0.34336   0.00000  Uiso   1.00
H365   H     0.25456   0.62828   0.33114   0.00000  Uiso   1.00
H366   H     0.25562   0.57448   0.31234   0.00000  Uiso   1.00
H367   H     0.25018   0.60161   0.22976   0.00000  Uiso   1.00
H368   H     0.27016   0.64904   0.24530   0.00000  Uiso   1.00
C369   C     0.14830   0.57743   0.10677   0.00000  Uiso   1.00
N370   N     0.13792   0.61101   0.11981   0.00000  Uiso   1.00
C371   C     0.13106   0.42674   0.38658   0.00000  Uiso   1.00
N372   N     0.11148   0.39842   0.36954   0.00000  Uiso   1.00
C373   C     0.18932   0.57963   0.39048   0.00000  Uiso   1.00
N374   N     0.19168   0.61462   0.37628   0.00000  Uiso   1.00
C375   C     0.21387   0.42774   0.12240   0.00000  Uiso   1.00
N376   N     0.22957   0.39926   0.14282   0.00000  Uiso   1.00
O377   O     0.43892   0.53821   0.25000   0.00000  Uiso   1.00
O378   O     0.56108   0.46179   0.25001   0.00000  Uiso   1.00
O379   O     0.56108   0.53821   0.25001   0.00000  Uiso   1.00
O380   O     0.43892   0.46179   0.25000   0.00000  Uiso   1.00
N381   N     0.50000   0.61907   0.25000   0.00000  Uiso   1.00
N382   N     0.50000   0.38093   0.25000   0.00000  Uiso   1.00
C383   C     0.42053   0.49978   0.24979   0.00000  Uiso   1.00
C384   C     0.57947   0.49995   0.25018   0.00000  Uiso   1.00
O385   O     0.50000   0.53822   0.18453   0.00000  Uiso   1.00
O386   O     0.50000   0.46178   0.31547   0.00000  Uiso   1.00
O387   O     0.50000   0.53822   0.31547   0.00000  Uiso   1.00
O388   O     0.50000   0.46178   0.18453   0.00000  Uiso   1.00
C389   C     0.50198   0.50001   0.16438   0.00000  Uiso   1.00
C390   C     0.49939   0.50006   0.33586   0.00000  Uiso   1.00
Zn391  Zn    0.50000   0.55104   0.25000   0.00000  Uiso   1.00
Zn392  Zn    0.50000   0.44896   0.25000   0.00000  Uiso   1.00
C393   C     0.53531   0.35718   0.26671   0.00000  Uiso   1.00
C394   C     0.46296   0.64343   0.24027   0.00000  Uiso   1.00
C395   C     0.46480   0.35684   0.23302   0.00000  Uiso   1.00
C396   C     0.53708   0.64377   0.25952   0.00000  Uiso   1.00
C397   C     0.35239   0.49314   0.20958   0.00000  Uiso   1.00
C398   C     0.64763   0.50199   0.29082   0.00000  Uiso   1.00
C399   C     0.64194   0.49369   0.20963   0.00000  Uiso   1.00
C400   C     0.35807   0.50227   0.29069   0.00000  Uiso   1.00
C401   C     0.49812   0.53379   0.04422   0.00000  Uiso   1.00
C402   C     0.49636   0.46019   0.45391   0.00000  Uiso   1.00
C403   C     0.52759   0.53278   0.45444   0.00000  Uiso   1.00
C404   C     0.53058   0.46222   0.05099   0.00000  Uiso   1.00
H405   H     0.48635   0.56085   0.02354   0.00000  Uiso   1.00
H406   H     0.48510   0.43226   0.47210   0.00000  Uiso   1.00
H407   H     0.54127   0.56054   0.47301   0.00000  Uiso   1.00
H408   H     0.54499   0.43439   0.03552   0.00000  Uiso   1.00
C409   C     0.49556   0.53617   0.08970   0.00000  Uiso   1.00
C410   C     0.48879   0.46215   0.40795   0.00000  Uiso   1.00
C411   C     0.51853   0.53640   0.40905   0.00000  Uiso   1.00
C412   C     0.52766   0.46336   0.09682   0.00000  Uiso   1.00
C413   C     0.50821   0.49983   0.11661   0.00000  Uiso   1.00
C414   C     0.50138   0.49991   0.38464   0.00000  Uiso   1.00
H415   H     0.36757   0.48958   0.17845   0.00000  Uiso   1.00
H416   H     0.63247   0.50480   0.32204   0.00000  Uiso   1.00
H417   H     0.62240   0.49039   0.17857   0.00000  Uiso   1.00
H418   H     0.37761   0.50553   0.32177   0.00000  Uiso   1.00
C419   C     0.51532   0.49707   0.02491   0.00000  Uiso   1.00
C420   C     0.51562   0.49541   0.47692   0.00000  Uiso   1.00
C421   C     0.62372   0.49930   0.25014   0.00000  Uiso   1.00
C422   C     0.37630   0.49883   0.24997   0.00000  Uiso   1.00
C423   C     0.57442   0.37965   0.29137   0.00000  Uiso   1.00
C424   C     0.56537   0.40197   0.33561   0.00000  Uiso   1.00
C425   C     0.59561   0.38796   0.37520   0.00000  Uiso   1.00
H426   H     0.59125   0.35277   0.38255   0.00000  Uiso   1.00
H427   H     0.62944   0.39426   0.36808   0.00000  Uiso   1.00
H428   H     0.58839   0.40700   0.40521   0.00000  Uiso   1.00
H429   H     0.57023   0.43763   0.33204   0.00000  Uiso   1.00
H430   H     0.53232   0.39434   0.34422   0.00000  Uiso   1.00
H431   H     0.60061   0.35737   0.30050   0.00000  Uiso   1.00
H432   H     0.59182   0.40002   0.26864   0.00000  Uiso   1.00
C433   C     0.41848   0.62334   0.24135   0.00000  Uiso   1.00
C434   C     0.40096   0.60620   0.19485   0.00000  Uiso   1.00
C435   C     0.35214   0.60475   0.18982   0.00000  Uiso   1.00
H436   H     0.33964   0.58114   0.21340   0.00000  Uiso   1.00
H437   H     0.33854   0.63750   0.19582   0.00000  Uiso   1.00
H438   H     0.34142   0.59423   0.15547   0.00000  Uiso   1.00
H439   H     0.41146   0.62784   0.16835   0.00000  Uiso   1.00
H440   H     0.41368   0.57384   0.18656   0.00000  Uiso   1.00
H441   H     0.41615   0.60127   0.26992   0.00000  Uiso   1.00
H442   H     0.39618   0.64813   0.25336   0.00000  Uiso   1.00
C443   C     0.42604   0.37893   0.20774   0.00000  Uiso   1.00
C444   C     0.43573   0.40081   0.16339   0.00000  Uiso   1.00
C445   C     0.40611   0.38591   0.12354   0.00000  Uiso   1.00
H446   H     0.41098   0.35080   0.11645   0.00000  Uiso   1.00
H447   H     0.37209   0.39152   0.13015   0.00000  Uiso   1.00
H448   H     0.41347   0.40493   0.09353   0.00000  Uiso   1.00
H449   H     0.43050   0.43641   0.16648   0.00000  Uiso   1.00
H450   H     0.46906   0.39379   0.15534   0.00000  Uiso   1.00
H451   H     0.39955   0.35658   0.19872   0.00000  Uiso   1.00
H452   H     0.40880   0.39972   0.23003   0.00000  Uiso   1.00
C453   C     0.58152   0.62410   0.25801   0.00000  Uiso   1.00
C454   C     0.59977   0.60777   0.30450   0.00000  Uiso   1.00
C455   C     0.64860   0.60987   0.30984   0.00000  Uiso   1.00
H456   H     0.66268   0.58944   0.28453   0.00000  Uiso   1.00
H457   H     0.66024   0.64395   0.30645   0.00000  Uiso   1.00
H458   H     0.65988   0.59759   0.34336   0.00000  Uiso   1.00
H459   H     0.58789   0.62828   0.33114   0.00000  Uiso   1.00
H460   H     0.58896   0.57448   0.31234   0.00000  Uiso   1.00
H461   H     0.58351   0.60161   0.22976   0.00000  Uiso   1.00
H462   H     0.60350   0.64904   0.24530   0.00000  Uiso   1.00
C463   C     0.48164   0.57743   0.10677   0.00000  Uiso   1.00
N464   N     0.47125   0.61101   0.11981   0.00000  Uiso   1.00
C465   C     0.46439   0.42674   0.38658   0.00000  Uiso   1.00
N466   N     0.44481   0.39842   0.36954   0.00000  Uiso   1.00
C467   C     0.52266   0.57963   0.39048   0.00000  Uiso   1.00
N468   N     0.52501   0.61462   0.37628   0.00000  Uiso   1.00
C469   C     0.54720   0.42774   0.12240   0.00000  Uiso   1.00
N470   N     0.56291   0.39926   0.14282   0.00000  Uiso   1.00
O471   O     0.77226   0.53821   0.25000   0.00000  Uiso   1.00
O472   O     0.89441   0.46179   0.25001   0.00000  Uiso   1.00
O473   O     0.89441   0.53821   0.25001   0.00000  Uiso   1.00
O474   O     0.77226   0.46179   0.25000   0.00000  Uiso   1.00
N475   N     0.83333   0.61907   0.25000   0.00000  Uiso   1.00
N476   N     0.83333   0.38093   0.25000   0.00000  Uiso   1.00
C477   C     0.75386   0.49978   0.24979   0.00000  Uiso   1.00
C478   C     0.91281   0.49995   0.25018   0.00000  Uiso   1.00
O479   O     0.83333   0.53822   0.18453   0.00000  Uiso   1.00
O480   O     0.83334   0.46178   0.31547   0.00000  Uiso   1.00
O481   O     0.83334   0.53822   0.31547   0.00000  Uiso   1.00
O482   O     0.83333   0.46178   0.18453   0.00000  Uiso   1.00
C483   C     0.83531   0.50001   0.16438   0.00000  Uiso   1.00
C484   C     0.83272   0.50006   0.33586   0.00000  Uiso   1.00
Zn485  Zn    0.83333   0.55104   0.25000   0.00000  Uiso   1.00
Zn486  Zn    0.83333   0.44896   0.25000   0.00000  Uiso   1.00
C487   C     0.86865   0.35718   0.26671   0.00000  Uiso   1.00
C488   C     0.79629   0.64343   0.24027   0.00000  Uiso   1.00
C489   C     0.79813   0.35684   0.23302   0.00000  Uiso   1.00
C490   C     0.87041   0.64377   0.25952   0.00000  Uiso   1.00
C491   C     0.68573   0.49314   0.20958   0.00000  Uiso   1.00
C492   C     0.98097   0.50199   0.29082   0.00000  Uiso   1.00
C493   C     0.97528   0.49369   0.20963   0.00000  Uiso   1.00
C494   C     0.69141   0.50227   0.29069   0.00000  Uiso   1.00
C495   C     0.83146   0.53379   0.04422   0.00000  Uiso   1.00
C496   C     0.82970   0.46019   0.45391   0.00000  Uiso   1.00
C497   C     0.86092   0.53278   0.45444   0.00000  Uiso   1.00
C498   C     0.86392   0.46222   0.05099   0.00000  Uiso   1.00
H499   H     0.81969   0.56085   0.02354   0.00000  Uiso   1.00
H500   H     0.81844   0.43226   0.47210   0.00000  Uiso   1.00
H501   H     0.87460   0.56054   0.47301   0.00000  Uiso   1.00
H502   H     0.87832   0.43439   0.03552   0.00000  Uiso   1.00
C503   C     0.82889   0.53617   0.08970   0.00000  Uiso   1.00
C504   C     0.82212   0.46215   0.40795   0.00000  Uiso   1.00
C505   C     0.85186   0.53640   0.40905   0.00000  Uiso   1.00
C506   C     0.86099   0.46336   0.09682   0.00000  Uiso   1.00
C507   C     0.84154   0.49983   0.11661   0.00000  Uiso   1.00
C508   C     0.83471   0.49991   0.38464   0.00000  Uiso   1.00
H509   H     0.70090   0.48958   0.17845   0.00000  Uiso   1.00
H510   H     0.96580   0.50480   0.32204   0.00000  Uiso   1.00
H511   H     0.95573   0.49039   0.17857   0.00000  Uiso   1.00
H512   H     0.71094   0.50553   0.32177   0.00000  Uiso   1.00
C513   C     0.84865   0.49707   0.02491   0.00000  Uiso   1.00
C514   C     0.84896   0.49541   0.47692   0.00000  Uiso   1.00
C515   C     0.95706   0.49930   0.25014   0.00000  Uiso   1.00
C516   C     0.70963   0.49883   0.24997   0.00000  Uiso   1.00
C517   C     0.90776   0.37965   0.29137   0.00000  Uiso   1.00
C518   C     0.89870   0.40197   0.33561   0.00000  Uiso   1.00
C519   C     0.92895   0.38796   0.37520   0.00000  Uiso   1.00
H520   H     0.92458   0.35277   0.38255   0.00000  Uiso   1.00
H521   H     0.96277   0.39426   0.36808   0.00000  Uiso   1.00
H522   H     0.92173   0.40700   0.40521   0.00000  Uiso   1.00
H523   H     0.90356   0.43763   0.33204   0.00000  Uiso   1.00
H524   H     0.86565   0.39434   0.34422   0.00000  Uiso   1.00
H525   H     0.93394   0.35737   0.30050   0.00000  Uiso   1.00
H526   H     0.92516   0.40002   0.26864   0.00000  Uiso   1.00
C527   C     0.75181   0.62334   0.24135   0.00000  Uiso   1.00
C528   C     0.73430   0.60620   0.19485   0.00000  Uiso   1.00
C529   C     0.68548   0.60475   0.18982   0.00000  Uiso   1.00
H530   H     0.67297   0.58114   0.21340   0.00000  Uiso   1.00
H531   H     0.67188   0.63750   0.19582   0.00000  Uiso   1.00
H532   H     0.67476   0.59423   0.15547   0.00000  Uiso   1.00
H533   H     0.74479   0.62784   0.16835   0.00000  Uiso   1.00
H534   H     0.74702   0.57384   0.18656   0.00000  Uiso   1.00
H535   H     0.74948   0.60127   0.26992   0.00000  Uiso   1.00
H536   H     0.72952   0.64813   0.25336   0.00000  Uiso   1.00
C537   C     0.75937   0.37893   0.20774   0.00000  Uiso   1.00
C538   C     0.76907   0.40081   0.16339   0.00000  Uiso   1.00
C539   C     0.73944   0.38591   0.12354   0.00000  Uiso   1.00
H540   H     0.74432   0.35080   0.11645   0.00000  Uiso   1.00
H541   H     0.70543   0.39152   0.13015   0.00000  Uiso   1.00
H542   H     0.74680   0.40493   0.09353   0.00000  Uiso   1.00
H543   H     0.76383   0.43641   0.16648   0.00000  Uiso   1.00
H544   H     0.80240   0.39379   0.15534   0.00000  Uiso   1.00
H545   H     0.73288   0.35658   0.19872   0.00000  Uiso   1.00
H546   H     0.74213   0.39972   0.23003   0.00000  Uiso   1.00
C547   C     0.91485   0.62410   0.25801   0.00000  Uiso   1.00
C548   C     0.93311   0.60777   0.30450   0.00000  Uiso   1.00
C549   C     0.98194   0.60987   0.30984   0.00000  Uiso   1.00
H550   H     0.99601   0.58944   0.28453   0.00000  Uiso   1.00
H551   H     0.99357   0.64395   0.30645   0.00000  Uiso   1.00
H552   H     0.99321   0.59759   0.34336   0.00000  Uiso   1.00
H553   H     0.92122   0.62828   0.33114   0.00000  Uiso   1.00
H554   H     0.92229   0.57448   0.31234   0.00000  Uiso   1.00
H555   H     0.91684   0.60161   0.22976   0.00000  Uiso   1.00
H556   H     0.93683   0.64904   0.24530   0.00000  Uiso   1.00
C557   C     0.81497   0.57743   0.10677   0.00000  Uiso   1.00
N558   N     0.80459   0.61101   0.11981   0.00000  Uiso   1.00
C559   C     0.79772   0.42674   0.38658   0.00000  Uiso   1.00
N560   N     0.77814   0.39842   0.36954   0.00000  Uiso   1.00
C561   C     0.85599   0.57963   0.39048   0.00000  Uiso   1.00
N562   N     0.85834   0.61462   0.37628   0.00000  Uiso   1.00
C563   C     0.88053   0.42774   0.12240   0.00000  Uiso   1.00
N564   N     0.89624   0.39926   0.14282   0.00000  Uiso   1.00
O565   O     0.10559   0.87154   0.25000   0.00000  Uiso   1.00
O566   O     0.22774   0.79513   0.25001   0.00000  Uiso   1.00
O567   O     0.22774   0.87154   0.25001   0.00000  Uiso   1.00
O568   O     0.10559   0.79513   0.25000   0.00000  Uiso   1.00
N569   N     0.16667   0.95240   0.25000   0.00000  Uiso   1.00
N570   N     0.16667   0.71427   0.25000   0.00000  Uiso   1.00
C571   C     0.08720   0.83312   0.24979   0.00000  Uiso   1.00
C572   C     0.24614   0.83329   0.25018   0.00000  Uiso   1.00
O573   O     0.16666   0.87155   0.18453   0.00000  Uiso   1.00
O574   O     0.16667   0.79511   0.31547   0.00000  Uiso   1.00
O575   O     0.16667   0.87155   0.31547   0.00000  Uiso   1.00
O576   O     0.16666   0.79511   0.18453   0.00000  Uiso   1.00
C577   C     0.16864   0.83335   0.16438   0.00000  Uiso   1.00
C578   C     0.16605   0.83339   0.33586   0.00000  Uiso   1.00
Zn579  Zn    0.16667   0.88437   0.25000   0.00000  Uiso   1.00
Zn580  Zn    0.16667   0.78229   0.25000   0.00000  Uiso   1.00
C581   C     0.20198   0.69051   0.26671   0.00000  Uiso   1.00
C582   C     0.12962   0.97676   0.24027   0.00000  Uiso   1.00
C583   C     0.13146   0.69017   0.23302   0.00000  Uiso   1.00
C584   C     0.20375   0.97710   0.25952   0.00000  Uiso   1.00
C585   C     0.01906   0.82647   0.20958   0.00000  Uiso   1.00
C586   C     0.31430   0.83532   0.29082   0.00000  Uiso   1.00
C587   C     0.30861   0.82703   0.20963   0.00000  Uiso   1.00
C588   C     0.02474   0.83561   0.29069   0.00000  Uiso   1.00
C589   C     0.16479   0.86713   0.04422   0.00000  Uiso   1.00
C590   C     0.16303   0.79352   0.45391   0.00000  Uiso   1.00
C591   C     0.19426   0.86612   0.45444   0.00000  Uiso   1.00
C592   C     0.19725   0.79555   0.05099   0.00000  Uiso   1.00
H593   H     0.15302   0.89418   0.02354   0.00000  Uiso   1.00
H594   H     0.15177   0.76559   0.47210   0.00000  Uiso   1.00
H595   H     0.20794   0.89387   0.47301   0.00000  Uiso   1.00
H596   H     0.21165   0.76773   0.03552   0.00000  Uiso   1.00
C597   C     0.16223   0.86950   0.08970   0.00000  Uiso   1.00
C598   C     0.15545   0.79548   0.40795   0.00000  Uiso   1.00
C599   C     0.18520   0.86974   0.40905   0.00000  Uiso   1.00
C600   C     0.19433   0.79669   0.09682   0.00000  Uiso   1.00
C601   C     0.17488   0.83316   0.11661   0.00000  Uiso   1.00
C602   C     0.16805   0.83325   0.38464   0.00000  Uiso   1.00
H603   H     0.03423   0.82292   0.17845   0.00000  Uiso   1.00
H604   H     0.29914   0.83814   0.32204   0.00000  Uiso   1.00
H605   H     0.28907   0.82372   0.17857   0.00000  Uiso   1.00
H606   H     0.04427   0.83886   0.32177   0.00000  Uiso   1.00
C607   C     0.18199   0.83040   0.02491   0.00000  Uiso   1.00
C608   C     0.18229   0.82875   0.47692   0.00000  Uiso   1.00
C609   C     0.29039   0.83263   0.25014   0.00000  Uiso   1.00
C610   C     0.04297   0.83217   0.24997   0.00000  Uiso   1.00
C611   C     0.24109   0.71299   0.29137   0.00000  Uiso   1.00
C612   C     0.23204   0.73531   0.33561   0.00000  Uiso   1.00
C613   C     0.26228   0.72129   0.37520   0.00000  Uiso   1.00
H614   H     0.25792   0.68610   0.38255   0.00000  Uiso   1.00
H615   H     0.29611   0.72759   0.36808   0.00000  Uiso   1.00
H616   H     0.25506   0.74034   0.40521   0.00000  Uiso   1.00
H617   H     0.23690   0.77096   0.33204   0.00000  Uiso   1.00
H618   H     0.19899   0.72768   0.34422   0.00000  Uiso   1.00
H619   H     0.26727   0.69070   0.30050   0.00000  Uiso   1.00
H620   H     0.25849   0.73336   0.26864   0.00000  Uiso   1.00
C621   C     0.08514   0.95668   0.24135   0.00000  Uiso   1.00
C622   C     0.06763   0.93953   0.19485   0.00000  Uiso   1.00
C623   C     0.01881   0.93809   0.18982   0.00000  Uiso   1.00
H624   H     0.00630   0.91447   0.21340   0.00000  Uiso   1.00
H625   H     0.00521   0.97084   0.19582   0.00000  Uiso   1.00
H626   H     0.00809   0.92756   0.15547   0.00000  Uiso   1.00
H627   H     0.07812   0.96118   0.16835   0.00000  Uiso   1.00
H628   H     0.08035   0.90718   0.18656   0.00000  Uiso   1.00
H629   H     0.08282   0.93461   0.26992   0.00000  Uiso   1.00
H630   H     0.06285   0.98146   0.25336   0.00000  Uiso   1.00
C631   C     0.09270   0.71226   0.20774   0.00000  Uiso   1.00
C632   C     0.10240   0.73414   0.16339   0.00000  Uiso   1.00
C633   C     0.07278   0.71924   0.12354   0.00000  Uiso   1.00
H634   H     0.07765   0.68414   0.11645   0.00000  Uiso   1.00
H635   H     0.03876   0.72485   0.13015   0.00000  Uiso   1.00
H636   H     0.08014   0.73826   0.09353   0.00000  Uiso   1.00
H637   H     0.09716   0.76974   0.16648   0.00000  Uiso   1.00
H638   H     0.13573   0.72713   0.15534   0.00000  Uiso   1.00
H639   H     0.06622   0.68992   0.19872   0.00000  Uiso   1.00
H640   H     0.07547   0.73306   0.23003   0.00000  Uiso   1.00
C641   C     0.24819   0.95744   0.25801   0.00000  Uiso   1.00
C642   C     0.26644   0.94111   0.30450   0.00000  Uiso   1.00
C643   C     0.31527   0.94321   0.30984   0.00000  Uiso   1.00
H644   H     0.32934   0.92277   0.28453   0.00000  Uiso   1.00
H645   H     0.32690   0.97729   0.30645   0.00000  Uiso   1.00
H646   H     0.32655   0.93093   0.34336   0.00000  Uiso   1.00
H647   H     0.25456   0.96161   0.33114   0.00000  Uiso   1.00
H648   H     0.25562   0.90781   0.31234   0.00000  Uiso   1.00
H649   H     0.25018   0.93495   0.22976   0.00000  Uiso   1.00
H650   H     0.27016   0.98238   0.24530   0.00000  Uiso   1.00
C651   C     0.14830   0.91076   0.10677   0.00000  Uiso   1.00
N652   N     0.13792   0.94434   0.11981   0.00000  Uiso   1.00
C653   C     0.13106   0.76007   0.38658   0.00000  Uiso   1.00
N654   N     0.11148   0.73176   0.36954   0.00000  Uiso   1.00
C655   C     0.18932   0.91297   0.39048   0.00000  Uiso   1.00
N656   N     0.19168   0.94796   0.37628   0.00000  Uiso   1.00
C657   C     0.21387   0.76107   0.12240   0.00000  Uiso   1.00
N658   N     0.22957   0.73259   0.14282   0.00000  Uiso   1.00
O659   O     0.43892   0.87154   0.25000   0.00000  Uiso   1.00
O660   O     0.56108   0.79513   0.25001   0.00000  Uiso   1.00
O661   O     0.56108   0.87154   0.25001   0.00000  Uiso   1.00
O662   O     0.43892   0.79513   0.25000   0.00000  Uiso   1.00
N663   N     0.50000   0.95240   0.25000   0.00000  Uiso   1.00
N664   N     0.50000   0.71427   0.25000   0.00000  Uiso   1.00
C665   C     0.42053   0.83312   0.24979   0.00000  Uiso   1.00
C666   C     0.57947   0.83329   0.25018   0.00000  Uiso   1.00
O667   O     0.50000   0.87155   0.18453   0.00000  Uiso   1.00
O668   O     0.50000   0.79511   0.31547   0.00000  Uiso   1.00
O669   O     0.50000   0.87155   0.31547   0.00000  Uiso   1.00
O670   O     0.50000   0.79511   0.18453   0.00000  Uiso   1.00
C671   C     0.50198   0.83335   0.16438   0.00000  Uiso   1.00
C672   C     0.49939   0.83339   0.33586   0.00000  Uiso   1.00
Zn673  Zn    0.50000   0.88437   0.25000   0.00000  Uiso   1.00
Zn674  Zn    0.50000   0.78229   0.25000   0.00000  Uiso   1.00
C675   C     0.53531   0.69051   0.26671   0.00000  Uiso   1.00
C676   C     0.46296   0.97676   0.24027   0.00000  Uiso   1.00
C677   C     0.46480   0.69017   0.23302   0.00000  Uiso   1.00
C678   C     0.53708   0.97710   0.25952   0.00000  Uiso   1.00
C679   C     0.35239   0.82647   0.20958   0.00000  Uiso   1.00
C680   C     0.64763   0.83532   0.29082   0.00000  Uiso   1.00
C681   C     0.64194   0.82703   0.20963   0.00000  Uiso   1.00
C682   C     0.35807   0.83561   0.29069   0.00000  Uiso   1.00
C683   C     0.49812   0.86713   0.04422   0.00000  Uiso   1.00
C684   C     0.49636   0.79352   0.45391   0.00000  Uiso   1.00
C685   C     0.52759   0.86612   0.45444   0.00000  Uiso   1.00
C686   C     0.53058   0.79555   0.05099   0.00000  Uiso   1.00
H687   H     0.48635   0.89418   0.02354   0.00000  Uiso   1.00
H688   H     0.48510   0.76559   0.47210   0.00000  Uiso   1.00
H689   H     0.54127   0.89387   0.47301   0.00000  Uiso   1.00
H690   H     0.54499   0.76773   0.03552   0.00000  Uiso   1.00
C691   C     0.49556   0.86950   0.08970   0.00000  Uiso   1.00
C692   C     0.48879   0.79548   0.40795   0.00000  Uiso   1.00
C693   C     0.51853   0.86974   0.40905   0.00000  Uiso   1.00
C694   C     0.52766   0.79669   0.09682   0.00000  Uiso   1.00
C695   C     0.50821   0.83316   0.11661   0.00000  Uiso   1.00
C696   C     0.50138   0.83325   0.38464   0.00000  Uiso   1.00
H697   H     0.36757   0.82292   0.17845   0.00000  Uiso   1.00
H698   H     0.63247   0.83814   0.32204   0.00000  Uiso   1.00
H699   H     0.62240   0.82372   0.17857   0.00000  Uiso   1.00
H700   H     0.37761   0.83886   0.32177   0.00000  Uiso   1.00
C701   C     0.51532   0.83040   0.02491   0.00000  Uiso   1.00
C702   C     0.51562   0.82875   0.47692   0.00000  Uiso   1.00
C703   C     0.62372   0.83263   0.25014   0.00000  Uiso   1.00
C704   C     0.37630   0.83217   0.24997   0.00000  Uiso   1.00
C705   C     0.57442   0.71299   0.29137   0.00000  Uiso   1.00
C706   C     0.56537   0.73531   0.33561   0.00000  Uiso   1.00
C707   C     0.59561   0.72129   0.37520   0.00000  Uiso   1.00
H708   H     0.59125   0.68610   0.38255   0.00000  Uiso   1.00
H709   H     0.62944   0.72759   0.36808   0.00000  Uiso   1.00
H710   H     0.58839   0.74034   0.40521   0.00000  Uiso   1.00
H711   H     0.57023   0.77096   0.33204   0.00000  Uiso   1.00
H712   H     0.53232   0.72768   0.34422   0.00000  Uiso   1.00
H713   H     0.60061   0.69070   0.30050   0.00000  Uiso   1.00
H714   H     0.59182   0.73336   0.26864   0.00000  Uiso   1.00
C715   C     0.41848   0.95668   0.24135   0.00000  Uiso   1.00
C716   C     0.40096   0.93953   0.19485   0.00000  Uiso   1.00
C717   C     0.35214   0.93809   0.18982   0.00000  Uiso   1.00
H718   H     0.33964   0.91447   0.21340   0.00000  Uiso   1.00
H719   H     0.33854   0.97084   0.19582   0.00000  Uiso   1.00
H720   H     0.34142   0.92756   0.15547   0.00000  Uiso   1.00
H721   H     0.41146   0.96118   0.16835   0.00000  Uiso   1.00
H722   H     0.41368   0.90718   0.18656   0.00000  Uiso   1.00
H723   H     0.41615   0.93461   0.26992   0.00000  Uiso   1.00
H724   H     0.39618   0.98146   0.25336   0.00000  Uiso   1.00
C725   C     0.42604   0.71226   0.20774   0.00000  Uiso   1.00
C726   C     0.43573   0.73414   0.16339   0.00000  Uiso   1.00
C727   C     0.40611   0.71924   0.12354   0.00000  Uiso   1.00
H728   H     0.41098   0.68414   0.11645   0.00000  Uiso   1.00
H729   H     0.37209   0.72485   0.13015   0.00000  Uiso   1.00
H730   H     0.41347   0.73826   0.09353   0.00000  Uiso   1.00
H731   H     0.43050   0.76974   0.16648   0.00000  Uiso   1.00
H732   H     0.46906   0.72713   0.15534   0.00000  Uiso   1.00
H733   H     0.39955   0.68992   0.19872   0.00000  Uiso   1.00
H734   H     0.40880   0.73306   0.23003   0.00000  Uiso   1.00
C735   C     0.58152   0.95744   0.25801   0.00000  Uiso   1.00
C736   C     0.59977   0.94111   0.30450   0.00000  Uiso   1.00
C737   C     0.64860   0.94321   0.30984   0.00000  Uiso   1.00
H738   H     0.66268   0.92277   0.28453   0.00000  Uiso   1.00
H739   H     0.66024   0.97729   0.30645   0.00000  Uiso   1.00
H740   H     0.65988   0.93093   0.34336   0.00000  Uiso   1.00
H741   H     0.58789   0.96161   0.33114   0.00000  Uiso   1.00
H742   H     0.58896   0.90781   0.31234   0.00000  Uiso   1.00
H743   H     0.58351   0.93495   0.22976   0.00000  Uiso   1.00
H744   H     0.60350   0.98238   0.24530   0.00000  Uiso   1.00
C745   C     0.48164   0.91076   0.10677   0.00000  Uiso   1.00
N746   N     0.47125   0.94434   0.11981   0.00000  Uiso   1.00
C747   C     0.46439   0.76007   0.38658   0.00000  Uiso   1.00
N748   N     0.44481   0.73176   0.36954   0.00000  Uiso   1.00
C749   C     0.52266   0.91297   0.39048   0.00000  Uiso   1.00
N750   N     0.52501   0.94796   0.37628   0.00000  Uiso   1.00
C751   C     0.54720   0.76107   0.12240   0.00000  Uiso   1.00
N752   N     0.56291   0.73259   0.14282   0.00000  Uiso   1.00
O753   O     0.77226   0.87154   0.25000   0.00000  Uiso   1.00
O754   O     0.89441   0.79513   0.25001   0.00000  Uiso   1.00
O755   O     0.89441   0.87154   0.25001   0.00000  Uiso   1.00
O756   O     0.77226   0.79513   0.25000   0.00000  Uiso   1.00
N757   N     0.83333   0.95240   0.25000   0.00000  Uiso   1.00
N758   N     0.83333   0.71427   0.25000   0.00000  Uiso   1.00
C759   C     0.75386   0.83312   0.24979   0.00000  Uiso   1.00
C760   C     0.91281   0.83329   0.25018   0.00000  Uiso   1.00
O761   O     0.83333   0.87155   0.18453   0.00000  Uiso   1.00
O762   O     0.83334   0.79511   0.31547   0.00000  Uiso   1.00
O763   O     0.83334   0.87155   0.31547   0.00000  Uiso   1.00
O764   O     0.83333   0.79511   0.18453   0.00000  Uiso   1.00
C765   C     0.83531   0.83335   0.16438   0.00000  Uiso   1.00
C766   C     0.83272   0.83339   0.33586   0.00000  Uiso   1.00
Zn767  Zn    0.83333   0.88437   0.25000   0.00000  Uiso   1.00
Zn768  Zn    0.83333   0.78229   0.25000   0.00000  Uiso   1.00
C769   C     0.86865   0.69051   0.26671   0.00000  Uiso   1.00
C770   C     0.79629   0.97676   0.24027   0.00000  Uiso   1.00
C771   C     0.79813   0.69017   0.23302   0.00000  Uiso   1.00
C772   C     0.87041   0.97710   0.25952   0.00000  Uiso   1.00
C773   C     0.68573   0.82647   0.20958   0.00000  Uiso   1.00
C774   C     0.98097   0.83532   0.29082   0.00000  Uiso   1.00
C775   C     0.97528   0.82703   0.20963   0.00000  Uiso   1.00
C776   C     0.69141   0.83561   0.29069   0.00000  Uiso   1.00
C777   C     0.83146   0.86713   0.04422   0.00000  Uiso   1.00
C778   C     0.82970   0.79352   0.45391   0.00000  Uiso   1.00
C779   C     0.86092   0.86612   0.45444   0.00000  Uiso   1.00
C780   C     0.86392   0.79555   0.05099   0.00000  Uiso   1.00
H781   H     0.81969   0.89418   0.02354   0.00000  Uiso   1.00
H782   H     0.81844   0.76559   0.47210   0.00000  Uiso   1.00
H783   H     0.87460   0.89387   0.47301   0.00000  Uiso   1.00
H784   H     0.87832   0.76773   0.03552   0.00000  Uiso   1.00
C785   C     0.82889   0.86950   0.08970   0.00000  Uiso   1.00
C786   C     0.82212   0.79548   0.40795   0.00000  Uiso   1.00
C787   C     0.85186   0.86974   0.40905   0.00000  Uiso   1.00
C788   C     0.86099   0.79669   0.09682   0.00000  Uiso   1.00
C789   C     0.84154   0.83316   0.11661   0.00000  Uiso   1.00
C790   C     0.83471   0.83325   0.38464   0.00000  Uiso   1.00
H791   H     0.70090   0.82292   0.17845   0.00000  Uiso   1.00
H792   H     0.96580   0.83814   0.32204   0.00000  Uiso   1.00
H793   H     0.95573   0.82372   0.17857   0.00000  Uiso   1.00
H794   H     0.71094   0.83886   0.32177   0.00000  Uiso   1.00
C795   C     0.84865   0.83040   0.02491   0.00000  Uiso   1.00
C796   C     0.84896   0.82875   0.47692   0.00000  Uiso   1.00
C797   C     0.95706   0.83263   0.25014   0.00000  Uiso   1.00
C798   C     0.70963   0.83217   0.24997   0.00000  Uiso   1.00
C799   C     0.90776   0.71299   0.29137   0.00000  Uiso   1.00
C800   C     0.89870   0.73531   0.33561   0.00000  Uiso   1.00
C801   C     0.92895   0.72129   0.37520   0.00000  Uiso   1.00
H802   H     0.92458   0.68610   0.38255   0.00000  Uiso   1.00
H803   H     0.96277   0.72759   0.36808   0.00000  Uiso   1.00
H804   H     0.92173   0.74034   0.40521   0.00000  Uiso   1.00
H805   H     0.90356   0.77096   0.33204   0.00000  Uiso   1.00
H806   H     0.86565   0.72768   0.34422   0.00000  Uiso   1.00
H807   H     0.93394   0.69070   0.30050   0.00000  Uiso   1.00
H808   H     0.92516   0.73336   0.26864   0.00000  Uiso   1.00
C809   C     0.75181   0.95668   0.24135   0.00000  Uiso   1.00
C810   C     0.73430   0.93953   0.19485   0.00000  Uiso   1.00
C811   C     0.68548   0.93809   0.18982   0.00000  Uiso   1.00
H812   H     0.67297   0.91447   0.21340   0.00000  Uiso   1.00
H813   H     0.67188   0.97084   0.19582   0.00000  Uiso   1.00
H814   H     0.67476   0.92756   0.15547   0.00000  Uiso   1.00
H815   H     0.74479   0.96118   0.16835   0.00000  Uiso   1.00
H816   H     0.74702   0.90718   0.18656   0.00000  Uiso   1.00
H817   H     0.74948   0.93461   0.26992   0.00000  Uiso   1.00
H818   H     0.72952   0.98146   0.25336   0.00000  Uiso   1.00
C819   C     0.75937   0.71226   0.20774   0.00000  Uiso   1.00
C820   C     0.76907   0.73414   0.16339   0.00000  Uiso   1.00
C821   C     0.73944   0.71924   0.12354   0.00000  Uiso   1.00
H822   H     0.74432   0.68414   0.11645   0.00000  Uiso   1.00
H823   H     0.70543   0.72485   0.13015   0.00000  Uiso   1.00
H824   H     0.74680   0.73826   0.09353   0.00000  Uiso   1.00
H825   H     0.76383   0.76974   0.16648   0.00000  Uiso   1.00
H826   H     0.80240   0.72713   0.15534   0.00000  Uiso   1.00
H827   H     0.73288   0.68992   0.19872   0.00000  Uiso   1.00
H828   H     0.74213   0.73306   0.23003   0.00000  Uiso   1.00
C829   C     0.91485   0.95744   0.25801   0.00000  Uiso   1.00
C830   C     0.93311   0.94111   0.30450   0.00000  Uiso   1.00
C831   C     0.98194   0.94321   0.30984   0.00000  Uiso   1.00
H832   H     0.99601   0.92277   0.28453   0.00000  Uiso   1.00
H833   H     0.99357   0.97729   0.30645   0.00000  Uiso   1.00
H834   H     0.99321   0.93093   0.34336   0.00000  Uiso   1.00
H835   H     0.92122   0.96161   0.33114   0.00000  Uiso   1.00
H836   H     0.92229   0.90781   0.31234   0.00000  Uiso   1.00
H837   H     0.91684   0.93495   0.22976   0.00000  Uiso   1.00
H838   H     0.93683   0.98238   0.24530   0.00000  Uiso   1.00
C839   C     0.81497   0.91076   0.10677   0.00000  Uiso   1.00
N840   N     0.80459   0.94434   0.11981   0.00000  Uiso   1.00
C841   C     0.79772   0.76007   0.38658   0.00000  Uiso   1.00
N842   N     0.77814   0.73176   0.36954   0.00000  Uiso   1.00
C843   C     0.85599   0.91297   0.39048   0.00000  Uiso   1.00
N844   N     0.85834   0.94796   0.37628   0.00000  Uiso   1.00
C845   C     0.88053   0.76107   0.12240   0.00000  Uiso   1.00
N846   N     0.89624   0.73259   0.14282   0.00000  Uiso   1.00
O847   O     0.10559   0.20487   0.75000   0.00000  Uiso   1.00
O848   O     0.22774   0.12846   0.75001   0.00000  Uiso   1.00
O849   O     0.22774   0.20487   0.75001   0.00000  Uiso   1.00
O850   O     0.10559   0.12846   0.75000   0.00000  Uiso   1.00
N851   N     0.16667   0.28573   0.75000   0.00000  Uiso   1.00
N852   N     0.16667   0.04760   0.75000   0.00000  Uiso   1.00
C853   C     0.08720   0.16645   0.74979   0.00000  Uiso   1.00
C854   C     0.24614   0.16662   0.75018   0.00000  Uiso   1.00
O855   O     0.16666   0.20489   0.68453   0.00000  Uiso   1.00
O856   O     0.16667   0.12845   0.81547   0.00000  Uiso   1.00
O857   O     0.16667   0.20489   0.81547   0.00000  Uiso   1.00
O858   O     0.16666   0.12845   0.68453   0.00000  Uiso   1.00
C859   C     0.16864   0.16668   0.66438   0.00000  Uiso   1.00
C860   C     0.16605   0.16672   0.83586   0.00000  Uiso   1.00
Zn861  Zn    0.16667   0.21771   0.75000   0.00000  Uiso   1.00
Zn862  Zn    0.16667   0.11563   0.75000   0.00000  Uiso   1.00
C863   C     0.20198   0.02384   0.76671   0.00000  Uiso   1.00
C864   C     0.12962   0.31009   0.74027   0.00000  Uiso   1.00
C865   C     0.13146   0.02350   0.73302   0.00000  Uiso   1.00
C866   C     0.20375   0.31043   0.75952   0.00000  Uiso   1.00
C867   C     0.01906   0.15981   0.70958   0.00000  Uiso   1.00
C868   C     0.31430   0.16865   0.79082   0.00000  Uiso   1.00
C869   C     0.30861   0.16036   0.70963   0.00000  Uiso   1.00
C870   C     0.02474   0.16894   0.79069   0.00000  Uiso   1.00
C871   C     0.16479   0.20046   0.54422   0.00000  Uiso   1.00
C872   C     0.16303   0.12685   0.95391   0.00000  Uiso   1.00
C873   C     0.19426   0.19945   0.95444   0.00000  Uiso   1.00
C874   C     0.19725   0.12888   0.55099   0.00000  Uiso   1.00
H875   H     0.15302   0.22752   0.52354   0.00000  Uiso   1.00
H876   H     0.15177   0.09893   0.97210   0.00000  Uiso   1.00
H877   H     0.20794   0.22720   0.97301   0.00000  Uiso   1.00
H878   H     0.21165   0.10106   0.53552   0.00000  Uiso   1.00
C879   C     0.16223   0.20284   0.58970   0.00000  Uiso   1.00
C880   C     0.15545   0.12882   0.90795   0.00000  Uiso   1.00
C881   C     0.18520   0.20307   0.90905   0.00000  Uiso   1.00
C882   C     0.19433   0.13002   0.59682   0.00000  Uiso   1.00
C883   C     0.17488   0.16650   0.61661   0.00000  Uiso   1.00
C884   C     0.16805   0.16658   0.88464   0.00000  Uiso   1.00
H885   H     0.03423   0.15625   0.67845   0.00000  Uiso   1.00
H886   H     0.29914   0.17147   0.82204   0.00000  Uiso   1.00
H887   H     0.28907   0.15706   0.67857   0.00000  Uiso   1.00
H888   H     0.04427   0.17219   0.82177   0.00000  Uiso   1.00
C889   C     0.18199   0.16373   0.52491   0.00000  Uiso   1.00
C890   C     0.18229   0.16208   0.97692   0.00000  Uiso   1.00
C891   C     0.29039   0.16596   0.75014   0.00000  Uiso   1.00
C892   C     0.04297   0.16550   0.74997   0.00000  Uiso   1.00
C893   C     0.24109   0.04632   0.79137   0.00000  Uiso   1.00
C894   C     0.23204   0.06864   0.83561   0.00000  Uiso   1.00
C895   C     0.26228   0.05462   0.87520   0.00000  Uiso   1.00
H896   H     0.25792   0.01944   0.88255   0.00000  Uiso   1.00
H897   H     0.29611   0.06093   0.86808   0.00000  Uiso   1.00
H898   H     0.25506   0.07367   0.90521   0.00000  Uiso   1.00
H899   H     0.23690   0.10430   0.83204   0.00000  Uiso   1.00
H900   H     0.19899   0.06101   0.84422   0.00000  Uiso   1.00
H901   H     0.26727   0.02403   0.80050   0.00000  Uiso   1.00
H902   H     0.25849   0.06669   0.76864   0.00000  Uiso   1.00
C903   C     0.08514   0.29001   0.74135   0.00000  Uiso   1.00
C904   C     0.06763   0.27286   0.69485   0.00000  Uiso   1.00
C905   C     0.01881   0.27142   0.68982   0.00000  Uiso   1.00
H906   H     0.00630   0.24780   0.71340   0.00000  Uiso   1.00
H907   H     0.00521   0.30417   0.69582   0.00000  Uiso   1.00
H908   H     0.00809   0.26090   0.65547   0.00000  Uiso   1.00
H909   H     0.07812   0.29451   0.66835   0.00000  Uiso   1.00
H910   H     0.08035   0.24051   0.68656   0.00000  Uiso   1.00
H911   H     0.08282   0.26794   0.76992   0.00000  Uiso   1.00
H912   H     0.06285   0.31479   0.75336   0.00000  Uiso   1.00
C913   C     0.09270   0.04559   0.70774   0.00000  Uiso   1.00
C914   C     0.10240   0.06748   0.66339   0.00000  Uiso   1.00
C915   C     0.07278   0.05257   0.62354   0.00000  Uiso   1.00
H916   H     0.07765   0.01747   0.61645   0.00000  Uiso   1.00
H917   H     0.03876   0.05818   0.63015   0.00000  Uiso   1.00
H918   H     0.08014   0.07160   0.59353   0.00000  Uiso   1.00
H919   H     0.09716   0.10307   0.66648   0.00000  Uiso   1.00
H920   H     0.13573   0.06046   0.65534   0.00000  Uiso   1.00
H921   H     0.06622   0.02325   0.69872   0.00000  Uiso   1.00
H922   H     0.07547   0.06639   0.73003   0.00000  Uiso   1.00
C923   C     0.24819   0.29077   0.75801   0.00000  Uiso   1.00
C924   C     0.26644   0.27444   0.80450   0.00000  Uiso   1.00
C925   C     0.31527   0.27654   0.80984   0.00000  Uiso   1.00
H926   H     0.32934   0.25611   0.78453   0.00000  Uiso   1.00
H927   H     0.32690   0.31062   0.80645   0.00000  Uiso   1.00
H928   H     0.32655   0.26426   0.84336   0.00000  Uiso   1.00
H929   H     0.25456   0.29494   0.83114   0.00000  Uiso   1.00
H930   H     0.25562   0.24115   0.81234   0.00000  Uiso   1.00
H931   H     0.25018   0.26828   0.72976   0.00000  Uiso   1.00
H932   H     0.27016   0.31571   0.74530   0.00000  Uiso   1.00
C933   C     0.14830   0.24410   0.60677   0.00000  Uiso   1.00
N934   N     0.13792   0.27768   0.61981   0.00000  Uiso   1.00
C935   C     0.13106   0.09340   0.88658   0.00000  Uiso   1.00
N936   N     0.11148   0.06509   0.86954   0.00000  Uiso   1.00
C937   C     0.18932   0.24630   0.89048   0.00000  Uiso   1.00
N938   N     0.19168   0.28129   0.87628   0.00000  Uiso   1.00
C939   C     0.21387   0.09440   0.62240   0.00000  Uiso   1.00
N940   N     0.22957   0.06593   0.64282   0.00000  Uiso   1.00
O941   O     0.43892   0.20487   0.75000   0.00000  Uiso   1.00
O942   O     0.56108   0.12846   0.75001   0.00000  Uiso   1.00
O943   O     0.56108   0.20487   0.75001   0.00000  Uiso   1.00
O944   O     0.43892   0.12846   0.75000   0.00000  Uiso   1.00
N945   N     0.50000   0.28573   0.75000   0.00000  Uiso   1.00
N946   N     0.50000   0.04760   0.75000   0.00000  Uiso   1.00
C947   C     0.42053   0.16645   0.74979   0.00000  Uiso   1.00
C948   C     0.57947   0.16662   0.75018   0.00000  Uiso   1.00
O949   O     0.50000   0.20489   0.68453   0.00000  Uiso   1.00
O950   O     0.50000   0.12845   0.81547   0.00000  Uiso   1.00
O951   O     0.50000   0.20489   0.81547   0.00000  Uiso   1.00
O952   O     0.50000   0.12845   0.68453   0.00000  Uiso   1.00
C953   C     0.50198   0.16668   0.66438   0.00000  Uiso   1.00
C954   C     0.49939   0.16672   0.83586   0.00000  Uiso   1.00
Zn955  Zn    0.50000   0.21771   0.75000   0.00000  Uiso   1.00
Zn956  Zn    0.50000   0.11563   0.75000   0.00000  Uiso   1.00
C957   C     0.53531   0.02384   0.76671   0.00000  Uiso   1.00
C958   C     0.46296   0.31009   0.74027   0.00000  Uiso   1.00
C959   C     0.46480   0.02350   0.73302   0.00000  Uiso   1.00
C960   C     0.53708   0.31043   0.75952   0.00000  Uiso   1.00
C961   C     0.35239   0.15981   0.70958   0.00000  Uiso   1.00
C962   C     0.64763   0.16865   0.79082   0.00000  Uiso   1.00
C963   C     0.64194   0.16036   0.70963   0.00000  Uiso   1.00
C964   C     0.35807   0.16894   0.79069   0.00000  Uiso   1.00
C965   C     0.49812   0.20046   0.54422   0.00000  Uiso   1.00
C966   C     0.49636   0.12685   0.95391   0.00000  Uiso   1.00
C967   C     0.52759   0.19945   0.95444   0.00000  Uiso   1.00
C968   C     0.53058   0.12888   0.55099   0.00000  Uiso   1.00
H969   H     0.48635   0.22752   0.52354   0.00000  Uiso   1.00
H970   H     0.48510   0.09893   0.97210   0.00000  Uiso   1.00
H971   H     0.54127   0.22720   0.97301   0.00000  Uiso   1.00
H972   H     0.54499   0.10106   0.53552   0.00000  Uiso   1.00
C973   C     0.49556   0.20284   0.58970   0.00000  Uiso   1.00
C974   C     0.48879   0.12882   0.90795   0.00000  Uiso   1.00
C975   C     0.51853   0.20307   0.90905   0.00000  Uiso   1.00
C976   C     0.52766   0.13002   0.59682   0.00000  Uiso   1.00
C977   C     0.50821   0.16650   0.61661   0.00000  Uiso   1.00
C978   C     0.50138   0.16658   0.88464   0.00000  Uiso   1.00
H979   H     0.36757   0.15625   0.67845   0.00000  Uiso   1.00
H980   H     0.63247   0.17147   0.82204   0.00000  Uiso   1.00
H981   H     0.62240   0.15706   0.67857   0.00000  Uiso   1.00
H982   H     0.37761   0.17219   0.82177   0.00000  Uiso   1.00
C983   C     0.51532   0.16373   0.52491   0.00000  Uiso   1.00
C984   C     0.51562   0.16208   0.97692   0.00000  Uiso   1.00
C985   C     0.62372   0.16596   0.75014   0.00000  Uiso   1.00
C986   C     0.37630   0.16550   0.74997   0.00000  Uiso   1.00
C987   C     0.57442   0.04632   0.79137   0.00000  Uiso   1.00
C988   C     0.56537   0.06864   0.83561   0.00000  Uiso   1.00
C989   C     0.59561   0.05462   0.87520   0.00000  Uiso   1.00
H990   H     0.59125   0.01944   0.88255   0.00000  Uiso   1.00
H991   H     0.62944   0.06093   0.86808   0.00000  Uiso   1.00
H992   H     0.58839   0.07367   0.90521   0.00000  Uiso   1.00
H993   H     0.57023   0.10430   0.83204   0.00000  Uiso   1.00
H994   H     0.53232   0.06101   0.84422   0.00000  Uiso   1.00
H995   H     0.60061   0.02403   0.80050   0.00000  Uiso   1.00
H996   H     0.59182   0.06669   0.76864   0.00000  Uiso   1.00
C997   C     0.41848   0.29001   0.74135   0.00000  Uiso   1.00
C998   C     0.40096   0.27286   0.69485   0.00000  Uiso   1.00
C999   C     0.35214   0.27142   0.68982   0.00000  Uiso   1.00
H1000  H     0.33964   0.24780   0.71340   0.00000  Uiso   1.00
H1001  H     0.33854   0.30417   0.69582   0.00000  Uiso   1.00
H1002  H     0.34142   0.26090   0.65547   0.00000  Uiso   1.00
H1003  H     0.41146   0.29451   0.66835   0.00000  Uiso   1.00
H1004  H     0.41368   0.24051   0.68656   0.00000  Uiso   1.00
H1005  H     0.41615   0.26794   0.76992   0.00000  Uiso   1.00
H1006  H     0.39618   0.31479   0.75336   0.00000  Uiso   1.00
C1007  C     0.42604   0.04559   0.70774   0.00000  Uiso   1.00
C1008  C     0.43573   0.06748   0.66339   0.00000  Uiso   1.00
C1009  C     0.40611   0.05257   0.62354   0.00000  Uiso   1.00
H1010  H     0.41098   0.01747   0.61645   0.00000  Uiso   1.00
H1011  H     0.37209   0.05818   0.63015   0.00000  Uiso   1.00
H1012  H     0.41347   0.07160   0.59353   0.00000  Uiso   1.00
H1013  H     0.43050   0.10307   0.66648   0.00000  Uiso   1.00
H1014  H     0.46906   0.06046   0.65534   0.00000  Uiso   1.00
H1015  H     0.39955   0.02325   0.69872   0.00000  Uiso   1.00
H1016  H     0.40880   0.06639   0.73003   0.00000  Uiso   1.00
C1017  C     0.58152   0.29077   0.75801   0.00000  Uiso   1.00
C1018  C     0.59977   0.27444   0.80450   0.00000  Uiso   1.00
C1019  C     0.64860   0.27654   0.80984   0.00000  Uiso   1.00
H1020  H     0.66268   0.25611   0.78453   0.00000  Uiso   1.00
H1021  H     0.66024   0.31062   0.80645   0.00000  Uiso   1.00
H1022  H     0.65988   0.26426   0.84336   0.00000  Uiso   1.00
H1023  H     0.58789   0.29494   0.83114   0.00000  Uiso   1.00
H1024  H     0.58896   0.24115   0.81234   0.00000  Uiso   1.00
H1025  H     0.58351   0.26828   0.72976   0.00000  Uiso   1.00
H1026  H     0.60350   0.31571   0.74530   0.00000  Uiso   1.00
C1027  C     0.48164   0.24410   0.60677   0.00000  Uiso   1.00
N1028  N     0.47125   0.27768   0.61981   0.00000  Uiso   1.00
C1029  C     0.46439   0.09340   0.88658   0.00000  Uiso   1.00
N1030  N     0.44481   0.06509   0.86954   0.00000  Uiso   1.00
C1031  C     0.52266   0.24630   0.89048   0.00000  Uiso   1.00
N1032  N     0.52501   0.28129   0.87628   0.00000  Uiso   1.00
C1033  C     0.54720   0.09440   0.62240   0.00000  Uiso   1.00
N1034  N     0.56291   0.06593   0.64282   0.00000  Uiso   1.00
O1035  O     0.77226   0.20487   0.75000   0.00000  Uiso   1.00
O1036  O     0.89441   0.12846   0.75001   0.00000  Uiso   1.00
O1037  O     0.89441   0.20487   0.75001   0.00000  Uiso   1.00
O1038  O     0.77226   0.12846   0.75000   0.00000  Uiso   1.00
N1039  N     0.83333   0.28573   0.75000   0.00000  Uiso   1.00
N1040  N     0.83333   0.04760   0.75000   0.00000  Uiso   1.00
C1041  C     0.75386   0.16645   0.74979   0.00000  Uiso   1.00
C1042  C     0.91281   0.16662   0.75018   0.00000  Uiso   1.00
O1043  O     0.83333   0.20489   0.68453   0.00000  Uiso   1.00
O1044  O     0.83334   0.12845   0.81547   0.00000  Uiso   1.00
O1045  O     0.83334   0.20489   0.81547   0.00000  Uiso   1.00
O1046  O     0.83333   0.12845   0.68453   0.00000  Uiso   1.00
C1047  C     0.83531   0.16668   0.66438   0.00000  Uiso   1.00
C1048  C     0.83272   0.16672   0.83586   0.00000  Uiso   1.00
Zn1049 Zn    0.83333   0.21771   0.75000   0.00000  Uiso   1.00
Zn1050 Zn    0.83333   0.11563   0.75000   0.00000  Uiso   1.00
C1051  C     0.86865   0.02384   0.76671   0.00000  Uiso   1.00
C1052  C     0.79629   0.31009   0.74027   0.00000  Uiso   1.00
C1053  C     0.79813   0.02350   0.73302   0.00000  Uiso   1.00
C1054  C     0.87041   0.31043   0.75952   0.00000  Uiso   1.00
C1055  C     0.68573   0.15981   0.70958   0.00000  Uiso   1.00
C1056  C     0.98097   0.16865   0.79082   0.00000  Uiso   1.00
C1057  C     0.97528   0.16036   0.70963   0.00000  Uiso   1.00
C1058  C     0.69141   0.16894   0.79069   0.00000  Uiso   1.00
C1059  C     0.83146   0.20046   0.54422   0.00000  Uiso   1.00
C1060  C     0.82970   0.12685   0.95391   0.00000  Uiso   1.00
C1061  C     0.86092   0.19945   0.95444   0.00000  Uiso   1.00
C1062  C     0.86392   0.12888   0.55099   0.00000  Uiso   1.00
H1063  H     0.81969   0.22752   0.52354   0.00000  Uiso   1.00
H1064  H     0.81844   0.09893   0.97210   0.00000  Uiso   1.00
H1065  H     0.87460   0.22720   0.97301   0.00000  Uiso   1.00
H1066  H     0.87832   0.10106   0.53552   0.00000  Uiso   1.00
C1067  C     0.82889   0.20284   0.58970   0.00000  Uiso   1.00
C1068  C     0.82212   0.12882   0.90795   0.00000  Uiso   1.00
C1069  C     0.85186   0.20307   0.90905   0.00000  Uiso   1.00
C1070  C     0.86099   0.13002   0.59682   0.00000  Uiso   1.00
C1071  C     0.84154   0.16650   0.61661   0.00000  Uiso   1.00
C1072  C     0.83471   0.16658   0.88464   0.00000  Uiso   1.00
H1073  H     0.70090   0.15625   0.67845   0.00000  Uiso   1.00
H1074  H     0.96580   0.17147   0.82204   0.00000  Uiso   1.00
H1075  H     0.95573   0.15706   0.67857   0.00000  Uiso   1.00
H1076  H     0.71094   0.17219   0.82177   0.00000  Uiso   1.00
C1077  C     0.84865   0.16373   0.52491   0.00000  Uiso   1.00
C1078  C     0.84896   0.16208   0.97692   0.00000  Uiso   1.00
C1079  C     0.95706   0.16596   0.75014   0.00000  Uiso   1.00
C1080  C     0.70963   0.16550   0.74997   0.00000  Uiso   1.00
C1081  C     0.90776   0.04632   0.79137   0.00000  Uiso   1.00
C1082  C     0.89870   0.06864   0.83561   0.00000  Uiso   1.00
C1083  C     0.92895   0.05462   0.87520   0.00000  Uiso   1.00
H1084  H     0.92458   0.01944   0.88255   0.00000  Uiso   1.00
H1085  H     0.96277   0.06093   0.86808   0.00000  Uiso   1.00
H1086  H     0.92173   0.07367   0.90521   0.00000  Uiso   1.00
H1087  H     0.90356   0.10430   0.83204   0.00000  Uiso   1.00
H1088  H     0.86565   0.06101   0.84422   0.00000  Uiso   1.00
H1089  H     0.93394   0.02403   0.80050   0.00000  Uiso   1.00
H1090  H     0.92516   0.06669   0.76864   0.00000  Uiso   1.00
C1091  C     0.75181   0.29001   0.74135   0.00000  Uiso   1.00
C1092  C     0.73430   0.27286   0.69485   0.00000  Uiso   1.00
C1093  C     0.68548   0.27142   0.68982   0.00000  Uiso   1.00
H1094  H     0.67297   0.24780   0.71340   0.00000  Uiso   1.00
H1095  H     0.67188   0.30417   0.69582   0.00000  Uiso   1.00
H1096  H     0.67476   0.26090   0.65547   0.00000  Uiso   1.00
H1097  H     0.74479   0.29451   0.66835   0.00000  Uiso   1.00
H1098  H     0.74702   0.24051   0.68656   0.00000  Uiso   1.00
H1099  H     0.74948   0.26794   0.76992   0.00000  Uiso   1.00
H1100  H     0.72952   0.31479   0.75336   0.00000  Uiso   1.00
C1101  C     0.75937   0.04559   0.70774   0.00000  Uiso   1.00
C1102  C     0.76907   0.06748   0.66339   0.00000  Uiso   1.00
C1103  C     0.73944   0.05257   0.62354   0.00000  Uiso   1.00
H1104  H     0.74432   0.01747   0.61645   0.00000  Uiso   1.00
H1105  H     0.70543   0.05818   0.63015   0.00000  Uiso   1.00
H1106  H     0.74680   0.07160   0.59353   0.00000  Uiso   1.00
H1107  H     0.76383   0.10307   0.66648   0.00000  Uiso   1.00
H1108  H     0.80240   0.06046   0.65534   0.00000  Uiso   1.00
H1109  H     0.73288   0.02325   0.69872   0.00000  Uiso   1.00
H1110  H     0.74213   0.06639   0.73003   0.00000  Uiso   1.00
C1111  C     0.91485   0.29077   0.75801   0.00000  Uiso   1.00
C1112  C     0.93311   0.27444   0.80450   0.00000  Uiso   1.00
C1113  C     0.98194   0.27654   0.80984   0.00000  Uiso   1.00
H1114  H     0.99601   0.25611   0.78453   0.00000  Uiso   1.00
H1115  H     0.99357   0.31062   0.80645   0.00000  Uiso   1.00
H1116  H     0.99321   0.26426   0.84336   0.00000  Uiso   1.00
H1117  H     0.92122   0.29494   0.83114   0.00000  Uiso   1.00
H1118  H     0.92229   0.24115   0.81234   0.00000  Uiso   1.00
H1119  H     0.91684   0.26828   0.72976   0.00000  Uiso   1.00
H1120  H     0.93683   0.31571   0.74530   0.00000  Uiso   1.00
C1121  C     0.81497   0.24410   0.60677   0.00000  Uiso   1.00
N1122  N     0.80459   0.27768   0.61981   0.00000  Uiso   1.00
C1123  C     0.79772   0.09340   0.88658   0.00000  Uiso   1.00
N1124  N     0.77814   0.06509   0.86954   0.00000  Uiso   1.00
C1125  C     0.85599   0.24630   0.89048   0.00000  Uiso   1.00
N1126  N     0.85834   0.28129   0.87628   0.00000  Uiso   1.00
C1127  C     0.88053   0.09440   0.62240   0.00000  Uiso   1.00
N1128  N     0.89624   0.06593   0.64282   0.00000  Uiso   1.00
O1129  O     0.10559   0.53821   0.75000   0.00000  Uiso   1.00
O1130  O     0.22774   0.46179   0.75001   0.00000  Uiso   1.00
O1131  O     0.22774   0.53821   0.75001   0.00000  Uiso   1.00
O1132  O     0.10559   0.46179   0.75000   0.00000  Uiso   1.00
N1133  N     0.16667   0.61907   0.75000   0.00000  Uiso   1.00
N1134  N     0.16667   0.38093   0.75000   0.00000  Uiso   1.00
C1135  C     0.08720   0.49978   0.74979   0.00000  Uiso   1.00
C1136  C     0.24614   0.49995   0.75018   0.00000  Uiso   1.00
O1137  O     0.16666   0.53822   0.68453   0.00000  Uiso   1.00
O1138  O     0.16667   0.46178   0.81547   0.00000  Uiso   1.00
O1139  O     0.16667   0.53822   0.81547   0.00000  Uiso   1.00
O1140  O     0.16666   0.46178   0.68453   0.00000  Uiso   1.00
C1141  C     0.16864   0.50001   0.66438   0.00000  Uiso   1.00
C1142  C     0.16605   0.50006   0.83586   0.00000  Uiso   1.00
Zn1143 Zn    0.16667   0.55104   0.75000   0.00000  Uiso   1.00
Zn1144 Zn    0.16667   0.44896   0.75000   0.00000  Uiso   1.00
C1145  C     0.20198   0.35718   0.76671   0.00000  Uiso   1.00
C1146  C     0.12962   0.64343   0.74027   0.00000  Uiso   1.00
C1147  C     0.13146   0.35684   0.73302   0.00000  Uiso   1.00
C1148  C     0.20375   0.64377   0.75952   0.00000  Uiso   1.00
C1149  C     0.01906   0.49314   0.70958   0.00000  Uiso   1.00
C1150  C     0.31430   0.50199   0.79082   0.00000  Uiso   1.00
C1151  C     0.30861   0.49369   0.70963   0.00000  Uiso   1.00
C1152  C     0.02474   0.50227   0.79069   0.00000  Uiso   1.00
C1153  C     0.16479   0.53379   0.54422   0.00000  Uiso   1.00
C1154  C     0.16303   0.46019   0.95391   0.00000  Uiso   1.00
C1155  C     0.19426   0.53278   0.95444   0.00000  Uiso   1.00
C1156  C     0.19725   0.46222   0.55099   0.00000  Uiso   1.00
H1157  H     0.15302   0.56085   0.52354   0.00000  Uiso   1.00
H1158  H     0.15177   0.43226   0.97210   0.00000  Uiso   1.00
H1159  H     0.20794   0.56054   0.97301   0.00000  Uiso   1.00
H1160  H     0.21165   0.43439   0.53552   0.00000  Uiso   1.00
C1161  C     0.16223   0.53617   0.58970   0.00000  Uiso   1.00
C1162  C     0.15545   0.46215   0.90795   0.00000  Uiso   1.00
C1163  C     0.18520   0.53640   0.90905   0.00000  Uiso   1.00
C1164  C     0.19433   0.46336   0.59682   0.00000  Uiso   1.00
C1165  C     0.17488   0.49983   0.61661   0.00000  Uiso   1.00
C1166  C     0.16805   0.49991   0.88464   0.00000  Uiso   1.00
H1167  H     0.03423   0.48958   0.67845   0.00000  Uiso   1.00
H1168  H     0.29914   0.50480   0.82204   0.00000  Uiso   1.00
H1169  H     0.28907   0.49039   0.67857   0.00000  Uiso   1.00
H1170  H     0.04427   0.50553   0.82177   0.00000  Uiso   1.00
C1171  C     0.18199   0.49707   0.52491   0.00000  Uiso   1.00
C1172  C     0.18229   0.49541   0.97692   0.00000  Uiso   1.00
C1173  C     0.29039   0.49930   0.75014   0.00000  Uiso   1.00
C1174  C     0.04297   0.49883   0.74997   0.00000  Uiso   1.00
C1175  C     0.24109   0.37965   0.79137   0.00000  Uiso   1.00
C1176  C     0.23204   0.40197   0.83561   0.00000  Uiso   1.00
C1177  C     0.26228   0.38796   0.87520   0.00000  Uiso   1.00
H1178  H     0.25792   0.35277   0.88255   0.00000  Uiso   1.00
H1179  H     0.29611   0.39426   0.86808   0.00000  Uiso   1.00
H1180  H     0.25506   0.40700   0.90521   0.00000  Uiso   1.00
H1181  H     0.23690   0.43763   0.83204   0.00000  Uiso   1.00
H1182  H     0.19899   0.39434   0.84422   0.00000  Uiso   1.00
H1183  H     0.26727   0.35737   0.80050   0.00000  Uiso   1.00
H1184  H     0.25849   0.40002   0.76864   0.00000  Uiso   1.00
C1185  C     0.08514   0.62334   0.74135   0.00000  Uiso   1.00
C1186  C     0.06763   0.60620   0.69485   0.00000  Uiso   1.00
C1187  C     0.01881   0.60475   0.68982   0.00000  Uiso   1.00
H1188  H     0.00630   0.58114   0.71340   0.00000  Uiso   1.00
H1189  H     0.00521   0.63750   0.69582   0.00000  Uiso   1.00
H1190  H     0.00809   0.59423   0.65547   0.00000  Uiso   1.00
H1191  H     0.07812   0.62784   0.66835   0.00000  Uiso   1.00
H1192  H     0.08035   0.57384   0.68656   0.00000  Uiso   1.00
H1193  H     0.08282   0.60127   0.76992   0.00000  Uiso   1.00
H1194  H     0.06285   0.64813   0.75336   0.00000  Uiso   1.00
C1195  C     0.09270   0.37893   0.70774   0.00000  Uiso   1.00
C1196  C     0.10240   0.40081   0.66339   0.00000  Uiso   1.00
C1197  C     0.07278   0.38591   0.62354   0.00000  Uiso   1.00
H1198  H     0.07765   0.35080   0.61645   0.00000  Uiso   1.00
H1199  H     0.03876   0.39152   0.63015   0.00000  Uiso   1.00
H1200  H     0.08014   0.40493   0.59353   0.00000  Uiso   1.00
H1201  H     0.09716   0.43641   0.66648   0.00000  Uiso   1.00
H1202  H     0.13573   0.39379   0.65534   0.00000  Uiso   1.00
H1203  H     0.06622   0.35658   0.69872   0.00000  Uiso   1.00
H1204  H     0.07547   0.39972   0.73003   0.00000  Uiso   1.00
C1205  C     0.24819   0.62410   0.75801   0.00000  Uiso   1.00
C1206  C     0.26644   0.60777   0.80450   0.00000  Uiso   1.00
C1207  C     0.31527   0.60987   0.80984   0.00000  Uiso   1.00
H1208  H     0.32934   0.58944   0.78453   0.00000  Uiso   1.00
H1209  H     0.32690   0.64395   0.80645   0.00000  Uiso   1.00
H1210  H     0.32655   0.59759   0.84336   0.00000  Uiso   1.00
H1211  H     0.25456   0.62828   0.83114   0.00000  Uiso   1.00
H1212  H     0.25562   0.57448   0.81234   0.00000  Uiso   1.00
H1213  H     0.25018   0.60161   0.72976   0.00000  Uiso   1.00
H1214  H     0.27016   0.64904   0.74530   0.00000  Uiso   1.00
C1215  C     0.14830   0.57743   0.60677   0.00000  Uiso   1.00
N1216  N     0.13792   0.61101   0.61981   0.00000  Uiso   1.00
C1217  C     0.13106   0.42674   0.88658   0.00000  Uiso   1.00
N1218  N     0.11148   0.39842   0.86954   0.00000  Uiso   1.00
C1219  C     0.18932   0.57963   0.89048   0.00000  Uiso   1.00
N1220  N     0.19168   0.61462   0.87628   0.00000  Uiso   1.00
C1221  C     0.21387   0.42774   0.62240   0.00000  Uiso   1.00
N1222  N     0.22957   0.39926   0.64282   0.00000  Uiso   1.00
O1223  O     0.43892   0.53821   0.75000   0.00000  Uiso   1.00
O1224  O     0.56108   0.46179   0.75001   0.00000  Uiso   1.00
O1225  O     0.56108   0.53821   0.75001   0.00000  Uiso   1.00
O1226  O     0.43892   0.46179   0.75000   0.00000  Uiso   1.00
N1227  N     0.50000   0.61907   0.75000   0.00000  Uiso   1.00
N1228  N     0.50000   0.38093   0.75000   0.00000  Uiso   1.00
C1229  C     0.42053   0.49978   0.74979   0.00000  Uiso   1.00
C1230  C     0.57947   0.49995   0.75018   0.00000  Uiso   1.00
O1231  O     0.50000   0.53822   0.68453   0.00000  Uiso   1.00
O1232  O     0.50000   0.46178   0.81547   0.00000  Uiso   1.00
O1233  O     0.50000   0.53822   0.81547   0.00000  Uiso   1.00
O1234  O     0.50000   0.46178   0.68453   0.00000  Uiso   1.00
C1235  C     0.50198   0.50001   0.66438   0.00000  Uiso   1.00
C1236  C     0.49939   0.50006   0.83586   0.00000  Uiso   1.00
Zn1237 Zn    0.50000   0.55104   0.75000   0.00000  Uiso   1.00
Zn1238 Zn    0.50000   0.44896   0.75000   0.00000  Uiso   1.00
C1239  C     0.53531   0.35718   0.76671   0.00000  Uiso   1.00
C1240  C     0.46296   0.64343   0.74027   0.00000  Uiso   1.00
C1241  C     0.46480   0.35684   0.73302   0.00000  Uiso   1.00
C1242  C     0.53708   0.64377   0.75952   0.00000  Uiso   1.00
C1243  C     0.35239   0.49314   0.70958   0.00000  Uiso   1.00
C1244  C     0.64763   0.50199   0.79082   0.00000  Uiso   1.00
C1245  C     0.64194   0.49369   0.70963   0.00000  Uiso   1.00
C1246  C     0.35807   0.50227   0.79069   0.00000  Uiso   1.00
C1247  C     0.49812   0.53379   0.54422   0.00000  Uiso   1.00
C1248  C     0.49636   0.46019   0.95391   0.00000  Uiso   1.00
C1249  C     0.52759   0.53278   0.95444   0.00000  Uiso   1.00
C1250  C     0.53058   0.46222   0.55099   0.00000  Uiso   1.00
H1251  H     0.48635   0.56085   0.52354   0.00000  Uiso   1.00
H1252  H     0.48510   0.43226   0.97210   0.00000  Uiso   1.00
H1253  H     0.54127   0.56054   0.97301   0.00000  Uiso   1.00
H1254  H     0.54499   0.43439   0.53552   0.00000  Uiso   1.00
C1255  C     0.49556   0.53617   0.58970   0.00000  Uiso   1.00
C1256  C     0.48879   0.46215   0.90795   0.00000  Uiso   1.00
C1257  C     0.51853   0.53640   0.90905   0.00000  Uiso   1.00
C1258  C     0.52766   0.46336   0.59682   0.00000  Uiso   1.00
C1259  C     0.50821   0.49983   0.61661   0.00000  Uiso   1.00
C1260  C     0.50138   0.49991   0.88464   0.00000  Uiso   1.00
H1261  H     0.36757   0.48958   0.67845   0.00000  Uiso   1.00
H1262  H     0.63247   0.50480   0.82204   0.00000  Uiso   1.00
H1263  H     0.62240   0.49039   0.67857   0.00000  Uiso   1.00
H1264  H     0.37761   0.50553   0.82177   0.00000  Uiso   1.00
C1265  C     0.51532   0.49707   0.52491   0.00000  Uiso   1.00
C1266  C     0.51562   0.49541   0.97692   0.00000  Uiso   1.00
C1267  C     0.62372   0.49930   0.75014   0.00000  Uiso   1.00
C1268  C     0.37630   0.49883   0.74997   0.00000  Uiso   1.00
C1269  C     0.57442   0.37965   0.79137   0.00000  Uiso   1.00
C1270  C     0.56537   0.40197   0.83561   0.00000  Uiso   1.00
C1271  C     0.59561   0.38796   0.87520   0.00000  Uiso   1.00
H1272  H     0.59125   0.35277   0.88255   0.00000  Uiso   1.00
H1273  H     0.62944   0.39426   0.86808   0.00000  Uiso   1.00
H1274  H     0.58839   0.40700   0.90521   0.00000  Uiso   1.00
H1275  H     0.57023   0.43763   0.83204   0.00000  Uiso   1.00
H1276  H     0.53232   0.39434   0.84422   0.00000  Uiso   1.00
H1277  H     0.60061   0.35737   0.80050   0.00000  Uiso   1.00
H1278  H     0.59182   0.40002   0.76864   0.00000  Uiso   1.00
C1279  C     0.41848   0.62334   0.74135   0.00000  Uiso   1.00
C1280  C     0.40096   0.60620   0.69485   0.00000  Uiso   1.00
C1281  C     0.35214   0.60475   0.68982   0.00000  Uiso   1.00
H1282  H     0.33964   0.58114   0.71340   0.00000  Uiso   1.00
H1283  H     0.33854   0.63750   0.69582   0.00000  Uiso   1.00
H1284  H     0.34142   0.59423   0.65547   0.00000  Uiso   1.00
H1285  H     0.41146   0.62784   0.66835   0.00000  Uiso   1.00
H1286  H     0.41368   0.57384   0.68656   0.00000  Uiso   1.00
H1287  H     0.41615   0.60127   0.76992   0.00000  Uiso   1.00
H1288  H     0.39618   0.64813   0.75336   0.00000  Uiso   1.00
C1289  C     0.42604   0.37893   0.70774   0.00000  Uiso   1.00
C1290  C     0.43573   0.40081   0.66339   0.00000  Uiso   1.00
C1291  C     0.40611   0.38591   0.62354   0.00000  Uiso   1.00
H1292  H     0.41098   0.35080   0.61645   0.00000  Uiso   1.00
H1293  H     0.37209   0.39152   0.63015   0.00000  Uiso   1.00
H1294  H     0.41347   0.40493   0.59353   0.00000  Uiso   1.00
H1295  H     0.43050   0.43641   0.66648   0.00000  Uiso   1.00
H1296  H     0.46906   0.39379   0.65534   0.00000  Uiso   1.00
H1297  H     0.39955   0.35658   0.69872   0.00000  Uiso   1.00
H1298  H     0.40880   0.39972   0.73003   0.00000  Uiso   1.00
C1299  C     0.58152   0.62410   0.75801   0.00000  Uiso   1.00
C1300  C     0.59977   0.60777   0.80450   0.00000  Uiso   1.00
C1301  C     0.64860   0.60987   0.80984   0.00000  Uiso   1.00
H1302  H     0.66268   0.58944   0.78453   0.00000  Uiso   1.00
H1303  H     0.66024   0.64395   0.80645   0.00000  Uiso   1.00
H1304  H     0.65988   0.59759   0.84336   0.00000  Uiso   1.00
H1305  H     0.58789   0.62828   0.83114   0.00000  Uiso   1.00
H1306  H     0.58896   0.57448   0.81234   0.00000  Uiso   1.00
H1307  H     0.58351   0.60161   0.72976   0.00000  Uiso   1.00
H1308  H     0.60350   0.64904   0.74530   0.00000  Uiso   1.00
C1309  C     0.48164   0.57743   0.60677   0.00000  Uiso   1.00
N1310  N     0.47125   0.61101   0.61981   0.00000  Uiso   1.00
C1311  C     0.46439   0.42674   0.88658   0.00000  Uiso   1.00
N1312  N     0.44481   0.39842   0.86954   0.00000  Uiso   1.00
C1313  C     0.52266   0.57963   0.89048   0.00000  Uiso   1.00
N1314  N     0.52501   0.61462   0.87628   0.00000  Uiso   1.00
C1315  C     0.54720   0.42774   0.62240   0.00000  Uiso   1.00
N1316  N     0.56291   0.39926   0.64282   0.00000  Uiso   1.00
O1317  O     0.77226   0.53821   0.75000   0.00000  Uiso   1.00
O1318  O     0.89441   0.46179   0.75001   0.00000  Uiso   1.00
O1319  O     0.89441   0.53821   0.75001   0.00000  Uiso   1.00
O1320  O     0.77226   0.46179   0.75000   0.00000  Uiso   1.00
N1321  N     0.83333   0.61907   0.75000   0.00000  Uiso   1.00
N1322  N     0.83333   0.38093   0.75000   0.00000  Uiso   1.00
C1323  C     0.75386   0.49978   0.74979   0.00000  Uiso   1.00
C1324  C     0.91281   0.49995   0.75018   0.00000  Uiso   1.00
O1325  O     0.83333   0.53822   0.68453   0.00000  Uiso   1.00
O1326  O     0.83334   0.46178   0.81547   0.00000  Uiso   1.00
O1327  O     0.83334   0.53822   0.81547   0.00000  Uiso   1.00
O1328  O     0.83333   0.46178   0.68453   0.00000  Uiso   1.00
C1329  C     0.83531   0.50001   0.66438   0.00000  Uiso   1.00
C1330  C     0.83272   0.50006   0.83586   0.00000  Uiso   1.00
Zn1331 Zn    0.83333   0.55104   0.75000   0.00000  Uiso   1.00
Zn1332 Zn    0.83333   0.44896   0.75000   0.00000  Uiso   1.00
C1333  C     0.86865   0.35718   0.76671   0.00000  Uiso   1.00
C1334  C     0.79629   0.64343   0.74027   0.00000  Uiso   1.00
C1335  C     0.79813   0.35684   0.73302   0.00000  Uiso   1.00
C1336  C     0.87041   0.64377   0.75952   0.00000  Uiso   1.00
C1337  C     0.68573   0.49314   0.70958   0.00000  Uiso   1.00
C1338  C     0.98097   0.50199   0.79082   0.00000  Uiso   1.00
C1339  C     0.97528   0.49369   0.70963   0.00000  Uiso   1.00
C1340  C     0.69141   0.50227   0.79069   0.00000  Uiso   1.00
C1341  C     0.83146   0.53379   0.54422   0.00000  Uiso   1.00
C1342  C     0.82970   0.46019   0.95391   0.00000  Uiso   1.00
C1343  C     0.86092   0.53278   0.95444   0.00000  Uiso   1.00
C1344  C     0.86392   0.46222   0.55099   0.00000  Uiso   1.00
H1345  H     0.81969   0.56085   0.52354   0.00000  Uiso   1.00
H1346  H     0.81844   0.43226   0.97210   0.00000  Uiso   1.00
H1347  H     0.87460   0.56054   0.97301   0.00000  Uiso   1.00
H1348  H     0.87832   0.43439   0.53552   0.00000  Uiso   1.00
C1349  C     0.82889   0.53617   0.58970   0.00000  Uiso   1.00
C1350  C     0.82212   0.46215   0.90795   0.00000  Uiso   1.00
C1351  C     0.85186   0.53640   0.90905   0.00000  Uiso   1.00
C1352  C     0.86099   0.46336   0.59682   0.00000  Uiso   1.00
C1353  C     0.84154   0.49983   0.61661   0.00000  Uiso   1.00
C1354  C     0.83471   0.49991   0.88464   0.00000  Uiso   1.00
H1355  H     0.70090   0.48958   0.67845   0.00000  Uiso   1.00
H1356  H     0.96580   0.50480   0.82204   0.00000  Uiso   1.00
H1357  H     0.95573   0.49039   0.67857   0.00000  Uiso   1.00
H1358  H     0.71094   0.50553   0.82177   0.00000  Uiso   1.00
C1359  C     0.84865   0.49707   0.52491   0.00000  Uiso   1.00
C1360  C     0.84896   0.49541   0.97692   0.00000  Uiso   1.00
C1361  C     0.95706   0.49930   0.75014   0.00000  Uiso   1.00
C1362  C     0.70963   0.49883   0.74997   0.00000  Uiso   1.00
C1363  C     0.90776   0.37965   0.79137   0.00000  Uiso   1.00
C1364  C     0.89870   0.40197   0.83561   0.00000  Uiso   1.00
C1365  C     0.92895   0.38796   0.87520   0.00000  Uiso   1.00
H1366  H     0.92458   0.35277   0.88255   0.00000  Uiso   1.00
H1367  H     0.96277   0.39426   0.86808   0.00000  Uiso   1.00
H1368  H     0.92173   0.40700   0.90521   0.00000  Uiso   1.00
H1369  H     0.90356   0.43763   0.83204   0.00000  Uiso   1.00
H1370  H     0.86565   0.39434   0.84422   0.00000  Uiso   1.00
H1371  H     0.93394   0.35737   0.80050   0.00000  Uiso   1.00
H1372  H     0.92516   0.40002   0.76864   0.00000  Uiso   1.00
C1373  C     0.75181   0.62334   0.74135   0.00000  Uiso   1.00
C1374  C     0.73430   0.60620   0.69485   0.00000  Uiso   1.00
C1375  C     0.68548   0.60475   0.68982   0.00000  Uiso   1.00
H1376  H     0.67297   0.58114   0.71340   0.00000  Uiso   1.00
H1377  H     0.67188   0.63750   0.69582   0.00000  Uiso   1.00
H1378  H     0.67476   0.59423   0.65547   0.00000  Uiso   1.00
H1379  H     0.74479   0.62784   0.66835   0.00000  Uiso   1.00
H1380  H     0.74702   0.57384   0.68656   0.00000  Uiso   1.00
H1381  H     0.74948   0.60127   0.76992   0.00000  Uiso   1.00
H1382  H     0.72952   0.64813   0.75336   0.00000  Uiso   1.00
C1383  C     0.75937   0.37893   0.70774   0.00000  Uiso   1.00
C1384  C     0.76907   0.40081   0.66339   0.00000  Uiso   1.00
C1385  C     0.73944   0.38591   0.62354   0.00000  Uiso   1.00
H1386  H     0.74432   0.35080   0.61645   0.00000  Uiso   1.00
H1387  H     0.70543   0.39152   0.63015   0.00000  Uiso   1.00
H1388  H     0.74680   0.40493   0.59353   0.00000  Uiso   1.00
H1389  H     0.76383   0.43641   0.66648   0.00000  Uiso   1.00
H1390  H     0.80240   0.39379   0.65534   0.00000  Uiso   1.00
H1391  H     0.73288   0.35658   0.69872   0.00000  Uiso   1.00
H1392  H     0.74213   0.39972   0.73003   0.00000  Uiso   1.00
C1393  C     0.91485   0.62410   0.75801   0.00000  Uiso   1.00
C1394  C     0.93311   0.60777   0.80450   0.00000  Uiso   1.00
C1395  C     0.98194   0.60987   0.80984   0.00000  Uiso   1.00
H1396  H     0.99601   0.58944   0.78453   0.00000  Uiso   1.00
H1397  H     0.99357   0.64395   0.80645   0.00000  Uiso   1.00
H1398  H     0.99321   0.59759   0.84336   0.00000  Uiso   1.00
H1399  H     0.92122   0.62828   0.83114   0.00000  Uiso   1.00
H1400  H     0.92229   0.57448   0.81234   0.00000  Uiso   1.00
H1401  H     0.91684   0.60161   0.72976   0.00000  Uiso   1.00
H1402  H     0.93683   0.64904   0.74530   0.00000  Uiso   1.00
C1403  C     0.81497   0.57743   0.60677   0.00000  Uiso   1.00
N1404  N     0.80459   0.61101   0.61981   0.00000  Uiso   1.00
C1405  C     0.79772   0.42674   0.88658   0.00000  Uiso   1.00
N1406  N     0.77814   0.39842   0.86954   0.00000  Uiso   1.00
C1407  C     0.85599   0.57963   0.89048   0.00000  Uiso   1.00
N1408  N     0.85834   0.61462   0.87628   0.00000  Uiso   1.00
C1409  C     0.88053   0.42774   0.62240   0.00000  Uiso   1.00
N1410  N     0.89624   0.39926   0.64282   0.00000  Uiso   1.00
O1411  O     0.10559   0.87154   0.75000   0.00000  Uiso   1.00
O1412  O     0.22774   0.79513   0.75001   0.00000  Uiso   1.00
O1413  O     0.22774   0.87154   0.75001   0.00000  Uiso   1.00
O1414  O     0.10559   0.79513   0.75000   0.00000  Uiso   1.00
N1415  N     0.16667   0.95240   0.75000   0.00000  Uiso   1.00
N1416  N     0.16667   0.71427   0.75000   0.00000  Uiso   1.00
C1417  C     0.08720   0.83312   0.74979   0.00000  Uiso   1.00
C1418  C     0.24614   0.83329   0.75018   0.00000  Uiso   1.00
O1419  O     0.16666   0.87155   0.68453   0.00000  Uiso   1.00
O1420  O     0.16667   0.79511   0.81547   0.00000  Uiso   1.00
O1421  O     0.16667   0.87155   0.81547   0.00000  Uiso   1.00
O1422  O     0.16666   0.79511   0.68453   0.00000  Uiso   1.00
C1423  C     0.16864   0.83335   0.66438   0.00000  Uiso   1.00
C1424  C     0.16605   0.83339   0.83586   0.00000  Uiso   1.00
Zn1425 Zn    0.16667   0.88437   0.75000   0.00000  Uiso   1.00
Zn1426 Zn    0.16667   0.78229   0.75000   0.00000  Uiso   1.00
C1427  C     0.20198   0.69051   0.76671   0.00000  Uiso   1.00
C1428  C     0.12962   0.97676   0.74027   0.00000  Uiso   1.00
C1429  C     0.13146   0.69017   0.73302   0.00000  Uiso   1.00
C1430  C     0.20375   0.97710   0.75952   0.00000  Uiso   1.00
C1431  C     0.01906   0.82647   0.70958   0.00000  Uiso   1.00
C1432  C     0.31430   0.83532   0.79082   0.00000  Uiso   1.00
C1433  C     0.30861   0.82703   0.70963   0.00000  Uiso   1.00
C1434  C     0.02474   0.83561   0.79069   0.00000  Uiso   1.00
C1435  C     0.16479   0.86713   0.54422   0.00000  Uiso   1.00
C1436  C     0.16303   0.79352   0.95391   0.00000  Uiso   1.00
C1437  C     0.19426   0.86612   0.95444   0.00000  Uiso   1.00
C1438  C     0.19725   0.79555   0.55099   0.00000  Uiso   1.00
H1439  H     0.15302   0.89418   0.52354   0.00000  Uiso   1.00
H1440  H     0.15177   0.76559   0.97210   0.00000  Uiso   1.00
H1441  H     0.20794   0.89387   0.97301   0.00000  Uiso   1.00
H1442  H     0.21165   0.76773   0.53552   0.00000  Uiso   1.00
C1443  C     0.16223   0.86950   0.58970   0.00000  Uiso   1.00
C1444  C     0.15545   0.79548   0.90795   0.00000  Uiso   1.00
C1445  C     0.18520   0.86974   0.90905   0.00000  Uiso   1.00
C1446  C     0.19433   0.79669   0.59682   0.00000  Uiso   1.00
C1447  C     0.17488   0.83316   0.61661   0.00000  Uiso   1.00
C1448  C     0.16805   0.83325   0.88464   0.00000  Uiso   1.00
H1449  H     0.03423   0.82292   0.67845   0.00000  Uiso   1.00
H1450  H     0.29914   0.83814   0.82204   0.00000  Uiso   1.00
H1451  H     0.28907   0.82372   0.67857   0.00000  Uiso   1.00
H1452  H     0.04427   0.83886   0.82177   0.00000  Uiso   1.00
C1453  C     0.18199   0.83040   0.52491   0.00000  Uiso   1.00
C1454  C     0.18229   0.82875   0.97692   0.00000  Uiso   1.00
C1455  C     0.29039   0.83263   0.75014   0.00000  Uiso   1.00
C1456  C     0.04297   0.83217   0.74997   0.00000  Uiso   1.00
C1457  C     0.24109   0.71299   0.79137   0.00000  Uiso   1.00
C1458  C     0.23204   0.73531   0.83561   0.00000  Uiso   1.00
C1459  C     0.26228   0.72129   0.87520   0.00000  Uiso   1.00
H1460  H     0.25792   0.68610   0.88255   0.00000  Uiso   1.00
H1461  H     0.29611   0.72759   0.86808   0.00000  Uiso   1.00
H1462  H     0.25506   0.74034   0.90521   0.00000  Uiso   1.00
H1463  H     0.23690   0.77096   0.83204   0.00000  Uiso   1.00
H1464  H     0.19899   0.72768   0.84422   0.00000  Uiso   1.00
H1465  H     0.26727   0.69070   0.80050   0.00000  Uiso   1.00
H1466  H     0.25849   0.73336   0.76864   0.00000  Uiso   1.00
C1467  C     0.08514   0.95668   0.74135   0.00000  Uiso   1.00
C1468  C     0.06763   0.93953   0.69485   0.00000  Uiso   1.00
C1469  C     0.01881   0.93809   0.68982   0.00000  Uiso   1.00
H1470  H     0.00630   0.91447   0.71340   0.00000  Uiso   1.00
H1471  H     0.00521   0.97084   0.69582   0.00000  Uiso   1.00
H1472  H     0.00809   0.92756   0.65547   0.00000  Uiso   1.00
H1473  H     0.07812   0.96118   0.66835   0.00000  Uiso   1.00
H1474  H     0.08035   0.90718   0.68656   0.00000  Uiso   1.00
H1475  H     0.08282   0.93461   0.76992   0.00000  Uiso   1.00
H1476  H     0.06285   0.98146   0.75336   0.00000  Uiso   1.00
C1477  C     0.09270   0.71226   0.70774   0.00000  Uiso   1.00
C1478  C     0.10240   0.73414   0.66339   0.00000  Uiso   1.00
C1479  C     0.07278   0.71924   0.62354   0.00000  Uiso   1.00
H1480  H     0.07765   0.68414   0.61645   0.00000  Uiso   1.00
H1481  H     0.03876   0.72485   0.63015   0.00000  Uiso   1.00
H1482  H     0.08014   0.73826   0.59353   0.00000  Uiso   1.00
H1483  H     0.09716   0.76974   0.66648   0.00000  Uiso   1.00
H1484  H     0.13573   0.72713   0.65534   0.00000  Uiso   1.00
H1485  H     0.06622   0.68992   0.69872   0.00000  Uiso   1.00
H1486  H     0.07547   0.73306   0.73003   0.00000  Uiso   1.00
C1487  C     0.24819   0.95744   0.75801   0.00000  Uiso   1.00
C1488  C     0.26644   0.94111   0.80450   0.00000  Uiso   1.00
C1489  C     0.31527   0.94321   0.80984   0.00000  Uiso   1.00
H1490  H     0.32934   0.92277   0.78453   0.00000  Uiso   1.00
H1491  H     0.32690   0.97729   0.80645   0.00000  Uiso   1.00
H1492  H     0.32655   0.93093   0.84336   0.00000  Uiso   1.00
H1493  H     0.25456   0.96161   0.83114   0.00000  Uiso   1.00
H1494  H     0.25562   0.90781   0.81234   0.00000  Uiso   1.00
H1495  H     0.25018   0.93495   0.72976   0.00000  Uiso   1.00
H1496  H     0.27016   0.98238   0.74530   0.00000  Uiso   1.00
C1497  C     0.14830   0.91076   0.60677   0.00000  Uiso   1.00
N1498  N     0.13792   0.94434   0.61981   0.00000  Uiso   1.00
C1499  C     0.13106   0.76007   0.88658   0.00000  Uiso   1.00
N1500  N     0.11148   0.73176   0.86954   0.00000  Uiso   1.00
C1501  C     0.18932   0.91297   0.89048   0.00000  Uiso   1.00
N1502  N     0.19168   0.94796   0.87628   0.00000  Uiso   1.00
C1503  C     0.21387   0.76107   0.62240   0.00000  Uiso   1.00
N1504  N     0.22957   0.73259   0.64282   0.00000  Uiso   1.00
O1505  O     0.43892   0.87154   0.75000   0.00000  Uiso   1.00
O1506  O     0.56108   0.79513   0.75001   0.00000  Uiso   1.00
O1507  O     0.56108   0.87154   0.75001   0.00000  Uiso   1.00
O1508  O     0.43892   0.79513   0.75000   0.00000  Uiso   1.00
N1509  N     0.50000   0.95240   0.75000   0.00000  Uiso   1.00
N1510  N     0.50000   0.71427   0.75000   0.00000  Uiso   1.00
C1511  C     0.42053   0.83312   0.74979   0.00000  Uiso   1.00
C1512  C     0.57947   0.83329   0.75018   0.00000  Uiso   1.00
O1513  O     0.50000   0.87155   0.68453   0.00000  Uiso   1.00
O1514  O     0.50000   0.79511   0.81547   0.00000  Uiso   1.00
O1515  O     0.50000   0.87155   0.81547   0.00000  Uiso   1.00
O1516  O     0.50000   0.79511   0.68453   0.00000  Uiso   1.00
C1517  C     0.50198   0.83335   0.66438   0.00000  Uiso   1.00
C1518  C     0.49939   0.83339   0.83586   0.00000  Uiso   1.00
Zn1519 Zn    0.50000   0.88437   0.75000   0.00000  Uiso   1.00
Zn1520 Zn    0.50000   0.78229   0.75000   0.00000  Uiso   1.00
C1521  C     0.53531   0.69051   0.76671   0.00000  Uiso   1.00
C1522  C     0.46296   0.97676   0.74027   0.00000  Uiso   1.00
C1523  C     0.46480   0.69017   0.73302   0.00000  Uiso   1.00
C1524  C     0.53708   0.97710   0.75952   0.00000  Uiso   1.00
C1525  C     0.35239   0.82647   0.70958   0.00000  Uiso   1.00
C1526  C     0.64763   0.83532   0.79082   0.00000  Uiso   1.00
C1527  C     0.64194   0.82703   0.70963   0.00000  Uiso   1.00
C1528  C     0.35807   0.83561   0.79069   0.00000  Uiso   1.00
C1529  C     0.49812   0.86713   0.54422   0.00000  Uiso   1.00
C1530  C     0.49636   0.79352   0.95391   0.00000  Uiso   1.00
C1531  C     0.52759   0.86612   0.95444   0.00000  Uiso   1.00
C1532  C     0.53058   0.79555   0.55099   0.00000  Uiso   1.00
H1533  H     0.48635   0.89418   0.52354   0.00000  Uiso   1.00
H1534  H     0.48510   0.76559   0.97210   0.00000  Uiso   1.00
H1535  H     0.54127   0.89387   0.97301   0.00000  Uiso   1.00
H1536  H     0.54499   0.76773   0.53552   0.00000  Uiso   1.00
C1537  C     0.49556   0.86950   0.58970   0.00000  Uiso   1.00
C1538  C     0.48879   0.79548   0.90795   0.00000  Uiso   1.00
C1539  C     0.51853   0.86974   0.90905   0.00000  Uiso   1.00
C1540  C     0.52766   0.79669   0.59682   0.00000  Uiso   1.00
C1541  C     0.50821   0.83316   0.61661   0.00000  Uiso   1.00
C1542  C     0.50138   0.83325   0.88464   0.00000  Uiso   1.00
H1543  H     0.36757   0.82292   0.67845   0.00000  Uiso   1.00
H1544  H     0.63247   0.83814   0.82204   0.00000  Uiso   1.00
H1545  H     0.62240   0.82372   0.67857   0.00000  Uiso   1.00
H1546  H     0.37761   0.83886   0.82177   0.00000  Uiso   1.00
C1547  C     0.51532   0.83040   0.52491   0.00000  Uiso   1.00
C1548  C     0.51562   0.82875   0.97692   0.00000  Uiso   1.00
C1549  C     0.62372   0.83263   0.75014   0.00000  Uiso   1.00
C1550  C     0.37630   0.83217   0.74997   0.00000  Uiso   1.00
C1551  C     0.57442   0.71299   0.79137   0.00000  Uiso   1.00
C1552  C     0.56537   0.73531   0.83561   0.00000  Uiso   1.00
C1553  C     0.59561   0.72129   0.87520   0.00000  Uiso   1.00
H1554  H     0.59125   0.68610   0.88255   0.00000  Uiso   1.00
H1555  H     0.62944   0.72759   0.86808   0.00000  Uiso   1.00
H1556  H     0.58839   0.74034   0.90521   0.00000  Uiso   1.00
H1557  H     0.57023   0.77096   0.83204   0.00000  Uiso   1.00
H1558  H     0.53232   0.72768   0.84422   0.00000  Uiso   1.00
H1559  H     0.60061   0.69070   0.80050   0.00000  Uiso   1.00
H1560  H     0.59182   0.73336   0.76864   0.00000  Uiso   1.00
C1561  C     0.41848   0.95668   0.74135   0.00000  Uiso   1.00
C1562  C     0.40096   0.93953   0.69485   0.00000  Uiso   1.00
C1563  C     0.35214   0.93809   0.68982   0.00000  Uiso   1.00
H1564  H     0.33964   0.91447   0.71340   0.00000  Uiso   1.00
H1565  H     0.33854   0.97084   0.69582   0.00000  Uiso   1.00
H1566  H     0.34142   0.92756   0.65547   0.00000  Uiso   1.00
H1567  H     0.41146   0.96118   0.66835   0.00000  Uiso   1.00
H1568  H     0.41368   0.90718   0.68656   0.00000  Uiso   1.00
H1569  H     0.41615   0.93461   0.76992   0.00000  Uiso   1.00
H1570  H     0.39618   0.98146   0.75336   0.00000  Uiso   1.00
C1571  C     0.42604   0.71226   0.70774   0.00000  Uiso   1.00
C1572  C     0.43573   0.73414   0.66339   0.00000  Uiso   1.00
C1573  C     0.40611   0.71924   0.62354   0.00000  Uiso   1.00
H1574  H     0.41098   0.68414   0.61645   0.00000  Uiso   1.00
H1575  H     0.37209   0.72485   0.63015   0.00000  Uiso   1.00
H1576  H     0.41347   0.73826   0.59353   0.00000  Uiso   1.00
H1577  H     0.43050   0.76974   0.66648   0.00000  Uiso   1.00
H1578  H     0.46906   0.72713   0.65534   0.00000  Uiso   1.00
H1579  H     0.39955   0.68992   0.69872   0.00000  Uiso   1.00
H1580  H     0.40880   0.73306   0.73003   0.00000  Uiso   1.00
C1581  C     0.58152   0.95744   0.75801   0.00000  Uiso   1.00
C1582  C     0.59977   0.94111   0.80450   0.00000  Uiso   1.00
C1583  C     0.64860   0.94321   0.80984   0.00000  Uiso   1.00
H1584  H     0.66268   0.92277   0.78453   0.00000  Uiso   1.00
H1585  H     0.66024   0.97729   0.80645   0.00000  Uiso   1.00
H1586  H     0.65988   0.93093   0.84336   0.00000  Uiso   1.00
H1587  H     0.58789   0.96161   0.83114   0.00000  Uiso   1.00
H1588  H     0.58896   0.90781   0.81234   0.00000  Uiso   1.00
H1589  H     0.58351   0.93495   0.72976   0.00000  Uiso   1.00
H1590  H     0.60350   0.98238   0.74530   0.00000  Uiso   1.00
C1591  C     0.48164   0.91076   0.60677   0.00000  Uiso   1.00
N1592  N     0.47125   0.94434   0.61981   0.00000  Uiso   1.00
C1593  C     0.46439   0.76007   0.88658   0.00000  Uiso   1.00
N1594  N     0.44481   0.73176   0.86954   0.00000  Uiso   1.00
C1595  C     0.52266   0.91297   0.89048   0.00000  Uiso   1.00
N1596  N     0.52501   0.94796   0.87628   0.00000  Uiso   1.00
C1597  C     0.54720   0.76107   0.62240   0.00000  Uiso   1.00
N1598  N     0.56291   0.73259   0.64282   0.00000  Uiso   1.00
O1599  O     0.77226   0.87154   0.75000   0.00000  Uiso   1.00
O1600  O     0.89441   0.79513   0.75001   0.00000  Uiso   1.00
O1601  O     0.89441   0.87154   0.75001   0.00000  Uiso   1.00
O1602  O     0.77226   0.79513   0.75000   0.00000  Uiso   1.00
N1603  N     0.83333   0.95240   0.75000   0.00000  Uiso   1.00
N1604  N     0.83333   0.71427   0.75000   0.00000  Uiso   1.00
C1605  C     0.75386   0.83312   0.74979   0.00000  Uiso   1.00
C1606  C     0.91281   0.83329   0.75018   0.00000  Uiso   1.00
O1607  O     0.83333   0.87155   0.68453   0.00000  Uiso   1.00
O1608  O     0.83334   0.79511   0.81547   0.00000  Uiso   1.00
O1609  O     0.83334   0.87155   0.81547   0.00000  Uiso   1.00
O1610  O     0.83333   0.79511   0.68453   0.00000  Uiso   1.00
C1611  C     0.83531   0.83335   0.66438   0.00000  Uiso   1.00
C1612  C     0.83272   0.83339   0.83586   0.00000  Uiso   1.00
Zn1613 Zn    0.83333   0.88437   0.75000   0.00000  Uiso   1.00
Zn1614 Zn    0.83333   0.78229   0.75000   0.00000  Uiso   1.00
C1615  C     0.86865   0.69051   0.76671   0.00000  Uiso   1.00
C1616  C     0.79629   0.97676   0.74027   0.00000  Uiso   1.00
C1617  C     0.79813   0.69017   0.73302   0.00000  Uiso   1.00
C1618  C     0.87041   0.97710   0.75952   0.00000  Uiso   1.00
C1619  C     0.68573   0.82647   0.70958   0.00000  Uiso   1.00
C1620  C     0.98097   0.83532   0.79082   0.00000  Uiso   1.00
C1621  C     0.97528   0.82703   0.70963   0.00000  Uiso   1.00
C1622  C     0.69141   0.83561   0.79069   0.00000  Uiso   1.00
C1623  C     0.83146   0.86713   0.54422   0.00000  Uiso   1.00
C1624  C     0.82970   0.79352   0.95391   0.00000  Uiso   1.00
C1625  C     0.86092   0.86612   0.95444   0.00000  Uiso   1.00
C1626  C     0.86392   0.79555   0.55099   0.00000  Uiso   1.00
H1627  H     0.81969   0.89418   0.52354   0.00000  Uiso   1.00
H1628  H     0.81844   0.76559   0.97210   0.00000  Uiso   1.00
H1629  H     0.87460   0.89387   0.97301   0.00000  Uiso   1.00
H1630  H     0.87832   0.76773   0.53552   0.00000  Uiso   1.00
C1631  C     0.82889   0.86950   0.58970   0.00000  Uiso   1.00
C1632  C     0.82212   0.79548   0.90795   0.00000  Uiso   1.00
C1633  C     0.85186   0.86974   0.90905   0.00000  Uiso   1.00
C1634  C     0.86099   0.79669   0.59682   0.00000  Uiso   1.00
C1635  C     0.84154   0.83316   0.61661   0.00000  Uiso   1.00
C1636  C     0.83471   0.83325   0.88464   0.00000  Uiso   1.00
H1637  H     0.70090   0.82292   0.67845   0.00000  Uiso   1.00
H1638  H     0.96580   0.83814   0.82204   0.00000  Uiso   1.00
H1639  H     0.95573   0.82372   0.67857   0.00000  Uiso   1.00
H1640  H     0.71094   0.83886   0.82177   0.00000  Uiso   1.00
C1641  C     0.84865   0.83040   0.52491   0.00000  Uiso   1.00
C1642  C     0.84896   0.82875   0.97692   0.00000  Uiso   1.00
C1643  C     0.95706   0.83263   0.75014   0.00000  Uiso   1.00
C1644  C     0.70963   0.83217   0.74997   0.00000  Uiso   1.00
C1645  C     0.90776   0.71299   0.79137   0.00000  Uiso   1.00
C1646  C     0.89870   0.73531   0.83561   0.00000  Uiso   1.00
C1647  C     0.92895   0.72129   0.87520   0.00000  Uiso   1.00
H1648  H     0.92458   0.68610   0.88255   0.00000  Uiso   1.00
H1649  H     0.96277   0.72759   0.86808   0.00000  Uiso   1.00
H1650  H     0.92173   0.74034   0.90521   0.00000  Uiso   1.00
H1651  H     0.90356   0.77096   0.83204   0.00000  Uiso   1.00
H1652  H     0.86565   0.72768   0.84422   0.00000  Uiso   1.00
H1653  H     0.93394   0.69070   0.80050   0.00000  Uiso   1.00
H1654  H     0.92516   0.73336   0.76864   0.00000  Uiso   1.00
C1655  C     0.75181   0.95668   0.74135   0.00000  Uiso   1.00
C1656  C     0.73430   0.93953   0.69485   0.00000  Uiso   1.00
C1657  C     0.68548   0.93809   0.68982   0.00000  Uiso   1.00
H1658  H     0.67297   0.91447   0.71340   0.00000  Uiso   1.00
H1659  H     0.67188   0.97084   0.69582   0.00000  Uiso   1.00
H1660  H     0.67476   0.92756   0.65547   0.00000  Uiso   1.00
H1661  H     0.74479   0.96118   0.66835   0.00000  Uiso   1.00
H1662  H     0.74702   0.90718   0.68656   0.00000  Uiso   1.00
H1663  H     0.74948   0.93461   0.76992   0.00000  Uiso   1.00
H1664  H     0.72952   0.98146   0.75336   0.00000  Uiso   1.00
C1665  C     0.75937   0.71226   0.70774   0.00000  Uiso   1.00
C1666  C     0.76907   0.73414   0.66339   0.00000  Uiso   1.00
C1667  C     0.73944   0.71924   0.62354   0.00000  Uiso   1.00
H1668  H     0.74432   0.68414   0.61645   0.00000  Uiso   1.00
H1669  H     0.70543   0.72485   0.63015   0.00000  Uiso   1.00
H1670  H     0.74680   0.73826   0.59353   0.00000  Uiso   1.00
H1671  H     0.76383   0.76974   0.66648   0.00000  Uiso   1.00
H1672  H     0.80240   0.72713   0.65534   0.00000  Uiso   1.00
H1673  H     0.73288   0.68992   0.69872   0.00000  Uiso   1.00
H1674  H     0.74213   0.73306   0.73003   0.00000  Uiso   1.00
C1675  C     0.91485   0.95744   0.75801   0.00000  Uiso   1.00
C1676  C     0.93311   0.94111   0.80450   0.00000  Uiso   1.00
C1677  C     0.98194   0.94321   0.80984   0.00000  Uiso   1.00
H1678  H     0.99601   0.92277   0.78453   0.00000  Uiso   1.00
H1679  H     0.99357   0.97729   0.80645   0.00000  Uiso   1.00
H1680  H     0.99321   0.93093   0.84336   0.00000  Uiso   1.00
H1681  H     0.92122   0.96161   0.83114   0.00000  Uiso   1.00
H1682  H     0.92229   0.90781   0.81234   0.00000  Uiso   1.00
H1683  H     0.91684   0.93495   0.72976   0.00000  Uiso   1.00
H1684  H     0.93683   0.98238   0.74530   0.00000  Uiso   1.00
C1685  C     0.81497   0.91076   0.60677   0.00000  Uiso   1.00
N1686  N     0.80459   0.94434   0.61981   0.00000  Uiso   1.00
C1687  C     0.79772   0.76007   0.88658   0.00000  Uiso   1.00
N1688  N     0.77814   0.73176   0.86954   0.00000  Uiso   1.00
C1689  C     0.85599   0.91297   0.89048   0.00000  Uiso   1.00
N1690  N     0.85834   0.94796   0.87628   0.00000  Uiso   1.00
C1691  C     0.88053   0.76107   0.62240   0.00000  Uiso   1.00
N1692  N     0.89624   0.73259   0.64282   0.00000  Uiso   1.00
loop_
_geom_bond_atom_site_label_1
_geom_bond_atom_site_label_2
_geom_bond_distance
_geom_bond_site_symmetry_2
_ccdc_geom_bond_type
O1     Zn15    1.951   .     S
O1     C7      1.307   .     A
O2     Zn16    1.951   .     S
O2     C8      1.299   .     A
O3     C8      1.307   .     A
O3     Zn15    1.954   .     S
O4     C7      1.300   .     A
O4     Zn16    1.954   .     S
N5     C20     1.395   .     A
N5     C18     1.396   .     A
N5     Zn15    2.082   .     S
N6     C19     1.390   .     A
N6     C17     1.391   .     A
N6     Zn16    2.082   .     S
C7     C46     1.386   .     S
C8     C45     1.386   .     S
O9     C13     1.320   .     A
O9     Zn15    2.006   .     S
O10    C14     1.323   .     A
O10    Zn16    2.006   .     S
O11    C14     1.320   .     A
O11    Zn15    2.007   .     S
O12    Zn16    2.007   .     S
O12    C13     1.321   .     A
C13    C37     1.463   .     S
C14    C38     1.463   .     S
C17    C47     1.545   .     S
C17    C584    1.449   1_545 S
C18    C57     1.522   .     S
C18    C301    1.448   .     S
C19    C67     1.545   .     S
C19    C582    1.448   1_545 S
C20    C77     1.522   .     S
C20    C299    1.449   .     S
C21    H39     1.084   .     S
C21    C46     1.391   .     A
C21    C211    1.371   1_455 S
C22    H40     1.084   .     S
C22    C45     1.391   .     A
C22    C118    1.371   .     S
C23    C45     1.391   .     A
C23    H41     1.085   .     S
C23    C115    1.371   .     S
C24    H42     1.084   .     S
C24    C46     1.390   .     A
C24    C210    1.371   1_455 S
C25    C43     1.393   .     A
C25    H29     1.086   .     S
C25    C33     1.377   .     A
C26    C44     1.393   .     A
C26    C34     1.387   .     A
C26    H30     1.085   .     S
C27    C44     1.392   .     A
C27    H31     1.086   .     S
C27    C35     1.378   .     A
C28    H32     1.085   .     S
C28    C43     1.390   .     A
C28    C36     1.387   .     A
C33    C37     1.417   .     A
C33    C87     1.444   .     S
C34    C38     1.420   .     A
C34    C89     1.447   .     S
C35    C38     1.419   .     A
C35    C91     1.445   .     S
C36    C93     1.447   .     S
C36    C37     1.424   .     A
C43    C890    1.444   1_554 S
C44    C889    1.444   .     S
C47    C48     1.539   .     S
C47    H55     1.089   .     S
C47    H56     1.096   .     S
C48    H54     1.108   .     S
C48    H53     1.107   .     S
C48    C49     1.531   .     S
C49    H51     1.111   .     S
C49    H52     1.111   .     S
C49    H50     1.109   .     S
C57    H66     1.110   .     S
C57    H65     1.099   .     S
C57    C58     1.556   .     S
C58    H64     1.104   .     S
C58    C59     1.526   .     S
C58    H63     1.103   .     S
C59    H60     1.102   .     S
C59    H61     1.111   .     S
C59    H62     1.110   .     S
C67    C68     1.540   .     S
C67    H75     1.092   .     S
C67    H76     1.095   .     S
C68    H74     1.110   .     S
C68    C69     1.531   .     S
C68    H73     1.107   .     S
C69    H71     1.111   .     S
C69    H72     1.111   .     S
C69    H70     1.109   .     S
C77    C78     1.556   .     S
C77    H85     1.098   .     S
C77    H86     1.111   .     S
C78    H83     1.103   .     S
C78    C79     1.527   .     S
C78    H84     1.103   .     S
C79    H81     1.110   .     S
C79    H82     1.110   .     S
C79    H80     1.101   .     S
C87    N88     1.156   .     T
C89    N90     1.158   .     T
C91    N92     1.157   .     T
C93    N94     1.158   .     T
O95    Zn109   1.951   .     S
O95    C101    1.307   .     A
O96    Zn110   1.951   .     S
O96    C102    1.299   .     A
O97    C102    1.307   .     A
O97    Zn109   1.954   .     S
O98    C101    1.300   .     A
O98    Zn110   1.954   .     S
N99    C114    1.395   .     A
N99    C112    1.396   .     A
N99    Zn109   2.082   .     S
N100   C113    1.390   .     A
N100   C111    1.391   .     A
N100   Zn110   2.082   .     S
C101   C140    1.386   .     S
C102   C139    1.386   .     S
O103   C107    1.320   .     A
O103   Zn109   2.006   .     S
O104   C108    1.323   .     A
O104   Zn110   2.006   .     S
O105   C108    1.320   .     A
O105   Zn109   2.007   .     S
O106   Zn110   2.007   .     S
O106   C107    1.321   .     A
C107   C131    1.463   .     S
C108   C132    1.463   .     S
C111   C141    1.545   .     S
C111   C678    1.449   1_545 S
C112   C151    1.522   .     S
C112   C395    1.448   .     S
C113   C161    1.545   .     S
C113   C676    1.448   1_545 S
C114   C171    1.522   .     S
C114   C393    1.449   .     S
C115   H133    1.084   .     S
C115   C140    1.391   .     A
C116   H134    1.084   .     S
C116   C139    1.391   .     A
C116   C212    1.371   .     S
C117   C139    1.391   .     A
C117   H135    1.085   .     S
C117   C209    1.371   .     S
C118   H136    1.084   .     S
C118   C140    1.390   .     A
C119   C137    1.393   .     A
C119   H123    1.086   .     S
C119   C127    1.377   .     A
C120   C138    1.393   .     A
C120   C128    1.387   .     A
C120   H124    1.085   .     S
C121   C138    1.392   .     A
C121   H125    1.086   .     S
C121   C129    1.378   .     A
C122   H126    1.085   .     S
C122   C137    1.390   .     A
C122   C130    1.387   .     A
C127   C131    1.417   .     A
C127   C181    1.444   .     S
C128   C132    1.420   .     A
C128   C183    1.447   .     S
C129   C132    1.419   .     A
C129   C185    1.445   .     S
C130   C187    1.447   .     S
C130   C131    1.424   .     A
C137   C984    1.444   1_554 S
C138   C983    1.444   .     S
C141   C142    1.539   .     S
C141   H149    1.089   .     S
C141   H150    1.096   .     S
C142   H148    1.108   .     S
C142   H147    1.107   .     S
C142   C143    1.531   .     S
C143   H145    1.111   .     S
C143   H146    1.111   .     S
C143   H144    1.109   .     S
C151   H160    1.110   .     S
C151   H159    1.099   .     S
C151   C152    1.556   .     S
C152   H158    1.104   .     S
C152   C153    1.526   .     S
C152   H157    1.103   .     S
C153   H154    1.102   .     S
C153   H155    1.111   .     S
C153   H156    1.110   .     S
C161   C162    1.540   .     S
C161   H169    1.092   .     S
C161   H170    1.095   .     S
C162   H168    1.110   .     S
C162   C163    1.531   .     S
C162   H167    1.107   .     S
C163   H165    1.111   .     S
C163   H166    1.111   .     S
C163   H164    1.109   .     S
C171   C172    1.556   .     S
C171   H179    1.098   .     S
C171   H180    1.111   .     S
C172   H177    1.103   .     S
C172   C173    1.527   .     S
C172   H178    1.103   .     S
C173   H175    1.110   .     S
C173   H176    1.110   .     S
C173   H174    1.101   .     S
C181   N182    1.156   .     T
C183   N184    1.158   .     T
C185   N186    1.157   .     T
C187   N188    1.158   .     T
O189   Zn203   1.951   .     S
O189   C195    1.307   .     A
O190   Zn204   1.951   .     S
O190   C196    1.299   .     A
O191   C196    1.307   .     A
O191   Zn203   1.954   .     S
O192   C195    1.300   .     A
O192   Zn204   1.954   .     S
N193   C208    1.395   .     A
N193   C206    1.396   .     A
N193   Zn203   2.082   .     S
N194   C207    1.390   .     A
N194   C205    1.391   .     A
N194   Zn204   2.082   .     S
C195   C234    1.386   .     S
C196   C233    1.386   .     S
O197   C201    1.320   .     A
O197   Zn203   2.006   .     S
O198   C202    1.323   .     A
O198   Zn204   2.006   .     S
O199   C202    1.320   .     A
O199   Zn203   2.007   .     S
O200   Zn204   2.007   .     S
O200   C201    1.321   .     A
C201   C225    1.463   .     S
C202   C226    1.463   .     S
C205   C235    1.545   .     S
C205   C772    1.449   1_545 S
C206   C245    1.522   .     S
C206   C489    1.448   .     S
C207   C255    1.545   .     S
C207   C770    1.448   1_545 S
C208   C265    1.522   .     S
C208   C487    1.449   .     S
C209   H227    1.084   .     S
C209   C234    1.391   .     A
C210   H228    1.084   .     S
C210   C233    1.391   .     A
C210   C24     1.371   1_655 S
C211   C233    1.391   .     A
C211   H229    1.085   .     S
C211   C21     1.371   1_655 S
C212   H230    1.084   .     S
C212   C234    1.390   .     A
C213   C231    1.393   .     A
C213   H217    1.086   .     S
C213   C221    1.377   .     A
C214   C232    1.393   .     A
C214   C222    1.387   .     A
C214   H218    1.085   .     S
C215   C232    1.392   .     A
C215   H219    1.086   .     S
C215   C223    1.378   .     A
C216   H220    1.085   .     S
C216   C231    1.390   .     A
C216   C224    1.387   .     A
C221   C225    1.417   .     A
C221   C275    1.444   .     S
C222   C226    1.420   .     A
C222   C277    1.447   .     S
C223   C226    1.419   .     A
C223   C279    1.445   .     S
C224   C281    1.447   .     S
C224   C225    1.424   .     A
C231   C1078   1.444   1_554 S
C232   C1077   1.444   .     S
C235   C236    1.539   .     S
C235   H243    1.089   .     S
C235   H244    1.096   .     S
C236   H242    1.108   .     S
C236   H241    1.107   .     S
C236   C237    1.531   .     S
C237   H239    1.111   .     S
C237   H240    1.111   .     S
C237   H238    1.109   .     S
C245   H254    1.110   .     S
C245   H253    1.099   .     S
C245   C246    1.556   .     S
C246   H252    1.104   .     S
C246   C247    1.526   .     S
C246   H251    1.103   .     S
C247   H248    1.102   .     S
C247   H249    1.111   .     S
C247   H250    1.110   .     S
C255   C256    1.540   .     S
C255   H263    1.092   .     S
C255   H264    1.095   .     S
C256   H262    1.110   .     S
C256   C257    1.531   .     S
C256   H261    1.107   .     S
C257   H259    1.111   .     S
C257   H260    1.111   .     S
C257   H258    1.109   .     S
C265   C266    1.556   .     S
C265   H273    1.098   .     S
C265   H274    1.111   .     S
C266   H271    1.103   .     S
C266   C267    1.527   .     S
C266   H272    1.103   .     S
C267   H269    1.110   .     S
C267   H270    1.110   .     S
C267   H268    1.101   .     S
C275   N276    1.156   .     T
C277   N278    1.158   .     T
C279   N280    1.157   .     T
C281   N282    1.158   .     T
O283   Zn297   1.951   .     S
O283   C289    1.307   .     A
O284   Zn298   1.951   .     S
O284   C290    1.299   .     A
O285   C290    1.307   .     A
O285   Zn297   1.954   .     S
O286   C289    1.300   .     A
O286   Zn298   1.954   .     S
N287   C302    1.395   .     A
N287   C300    1.396   .     A
N287   Zn297   2.082   .     S
N288   C301    1.390   .     A
N288   C299    1.391   .     A
N288   Zn298   2.082   .     S
C289   C328    1.386   .     S
C290   C327    1.386   .     S
O291   C295    1.320   .     A
O291   Zn297   2.006   .     S
O292   C296    1.323   .     A
O292   Zn298   2.006   .     S
O293   C296    1.320   .     A
O293   Zn297   2.007   .     S
O294   Zn298   2.007   .     S
O294   C295    1.321   .     A
C295   C319    1.463   .     S
C296   C320    1.463   .     S
C299   C329    1.545   .     S
C300   C339    1.522   .     S
C300   C583    1.448   .     S
C301   C349    1.545   .     S
C302   C359    1.522   .     S
C302   C581    1.449   .     S
C303   H321    1.084   .     S
C303   C328    1.391   .     A
C303   C493    1.371   1_455 S
C304   H322    1.084   .     S
C304   C327    1.391   .     A
C304   C400    1.371   .     S
C305   C327    1.391   .     A
C305   H323    1.085   .     S
C305   C397    1.371   .     S
C306   H324    1.084   .     S
C306   C328    1.390   .     A
C306   C492    1.371   1_455 S
C307   C325    1.393   .     A
C307   H311    1.086   .     S
C307   C315    1.377   .     A
C308   C326    1.393   .     A
C308   C316    1.387   .     A
C308   H312    1.085   .     S
C309   C326    1.392   .     A
C309   H313    1.086   .     S
C309   C317    1.378   .     A
C310   H314    1.085   .     S
C310   C325    1.390   .     A
C310   C318    1.387   .     A
C315   C319    1.417   .     A
C315   C369    1.444   .     S
C316   C320    1.420   .     A
C316   C371    1.447   .     S
C317   C320    1.419   .     A
C317   C373    1.445   .     S
C318   C375    1.447   .     S
C318   C319    1.424   .     A
C325   C1172   1.444   1_554 S
C326   C1171   1.444   .     S
C329   C330    1.539   .     S
C329   H337    1.089   .     S
C329   H338    1.096   .     S
C330   H336    1.108   .     S
C330   H335    1.107   .     S
C330   C331    1.531   .     S
C331   H333    1.111   .     S
C331   H334    1.111   .     S
C331   H332    1.109   .     S
C339   H348    1.110   .     S
C339   H347    1.099   .     S
C339   C340    1.556   .     S
C340   H346    1.104   .     S
C340   C341    1.526   .     S
C340   H345    1.103   .     S
C341   H342    1.102   .     S
C341   H343    1.111   .     S
C341   H344    1.110   .     S
C349   C350    1.540   .     S
C349   H357    1.092   .     S
C349   H358    1.095   .     S
C350   H356    1.110   .     S
C350   C351    1.531   .     S
C350   H355    1.107   .     S
C351   H353    1.111   .     S
C351   H354    1.111   .     S
C351   H352    1.109   .     S
C359   C360    1.556   .     S
C359   H367    1.098   .     S
C359   H368    1.111   .     S
C360   H365    1.103   .     S
C360   C361    1.527   .     S
C360   H366    1.103   .     S
C361   H363    1.110   .     S
C361   H364    1.110   .     S
C361   H362    1.101   .     S
C369   N370    1.156   .     T
C371   N372    1.158   .     T
C373   N374    1.157   .     T
C375   N376    1.158   .     T
O377   Zn391   1.951   .     S
O377   C383    1.307   .     A
O378   Zn392   1.951   .     S
O378   C384    1.299   .     A
O379   C384    1.307   .     A
O379   Zn391   1.954   .     S
O380   C383    1.300   .     A
O380   Zn392   1.954   .     S
N381   C396    1.395   .     A
N381   C394    1.396   .     A
N381   Zn391   2.082   .     S
N382   C395    1.390   .     A
N382   C393    1.391   .     A
N382   Zn392   2.082   .     S
C383   C422    1.386   .     S
C384   C421    1.386   .     S
O385   C389    1.320   .     A
O385   Zn391   2.006   .     S
O386   C390    1.323   .     A
O386   Zn392   2.006   .     S
O387   C390    1.320   .     A
O387   Zn391   2.007   .     S
O388   Zn392   2.007   .     S
O388   C389    1.321   .     A
C389   C413    1.463   .     S
C390   C414    1.463   .     S
C393   C423    1.545   .     S
C394   C433    1.522   .     S
C394   C677    1.448   .     S
C395   C443    1.545   .     S
C396   C453    1.522   .     S
C396   C675    1.449   .     S
C397   H415    1.084   .     S
C397   C422    1.391   .     A
C398   H416    1.084   .     S
C398   C421    1.391   .     A
C398   C494    1.371   .     S
C399   C421    1.391   .     A
C399   H417    1.085   .     S
C399   C491    1.371   .     S
C400   H418    1.084   .     S
C400   C422    1.390   .     A
C401   C419    1.393   .     A
C401   H405    1.086   .     S
C401   C409    1.377   .     A
C402   C420    1.393   .     A
C402   C410    1.387   .     A
C402   H406    1.085   .     S
C403   C420    1.392   .     A
C403   H407    1.086   .     S
C403   C411    1.378   .     A
C404   H408    1.085   .     S
C404   C419    1.390   .     A
C404   C412    1.387   .     A
C409   C413    1.417   .     A
C409   C463    1.444   .     S
C410   C414    1.420   .     A
C410   C465    1.447   .     S
C411   C414    1.419   .     A
C411   C467    1.445   .     S
C412   C469    1.447   .     S
C412   C413    1.424   .     A
C419   C1266   1.444   1_554 S
C420   C1265   1.444   .     S
C423   C424    1.539   .     S
C423   H431    1.089   .     S
C423   H432    1.096   .     S
C424   H430    1.108   .     S
C424   H429    1.107   .     S
C424   C425    1.531   .     S
C425   H427    1.111   .     S
C425   H428    1.111   .     S
C425   H426    1.109   .     S
C433   H442    1.110   .     S
C433   H441    1.099   .     S
C433   C434    1.556   .     S
C434   H440    1.104   .     S
C434   C435    1.526   .     S
C434   H439    1.103   .     S
C435   H436    1.102   .     S
C435   H437    1.111   .     S
C435   H438    1.110   .     S
C443   C444    1.540   .     S
C443   H451    1.092   .     S
C443   H452    1.095   .     S
C444   H450    1.110   .     S
C444   C445    1.531   .     S
C444   H449    1.107   .     S
C445   H447    1.111   .     S
C445   H448    1.111   .     S
C445   H446    1.109   .     S
C453   C454    1.556   .     S
C453   H461    1.098   .     S
C453   H462    1.111   .     S
C454   H459    1.103   .     S
C454   C455    1.527   .     S
C454   H460    1.103   .     S
C455   H457    1.110   .     S
C455   H458    1.110   .     S
C455   H456    1.101   .     S
C463   N464    1.156   .     T
C465   N466    1.158   .     T
C467   N468    1.157   .     T
C469   N470    1.158   .     T
O471   Zn485   1.951   .     S
O471   C477    1.307   .     A
O472   Zn486   1.951   .     S
O472   C478    1.299   .     A
O473   C478    1.307   .     A
O473   Zn485   1.954   .     S
O474   C477    1.300   .     A
O474   Zn486   1.954   .     S
N475   C490    1.395   .     A
N475   C488    1.396   .     A
N475   Zn485   2.082   .     S
N476   C489    1.390   .     A
N476   C487    1.391   .     A
N476   Zn486   2.082   .     S
C477   C516    1.386   .     S
C478   C515    1.386   .     S
O479   C483    1.320   .     A
O479   Zn485   2.006   .     S
O480   C484    1.323   .     A
O480   Zn486   2.006   .     S
O481   C484    1.320   .     A
O481   Zn485   2.007   .     S
O482   Zn486   2.007   .     S
O482   C483    1.321   .     A
C483   C507    1.463   .     S
C484   C508    1.463   .     S
C487   C517    1.545   .     S
C488   C527    1.522   .     S
C488   C771    1.448   .     S
C489   C537    1.545   .     S
C490   C547    1.522   .     S
C490   C769    1.449   .     S
C491   H509    1.084   .     S
C491   C516    1.391   .     A
C492   H510    1.084   .     S
C492   C515    1.391   .     A
C492   C306    1.371   1_655 S
C493   C515    1.391   .     A
C493   H511    1.085   .     S
C493   C303    1.371   1_655 S
C494   H512    1.084   .     S
C494   C516    1.390   .     A
C495   C513    1.393   .     A
C495   H499    1.086   .     S
C495   C503    1.377   .     A
C496   C514    1.393   .     A
C496   C504    1.387   .     A
C496   H500    1.085   .     S
C497   C514    1.392   .     A
C497   H501    1.086   .     S
C497   C505    1.378   .     A
C498   H502    1.085   .     S
C498   C513    1.390   .     A
C498   C506    1.387   .     A
C503   C507    1.417   .     A
C503   C557    1.444   .     S
C504   C508    1.420   .     A
C504   C559    1.447   .     S
C505   C508    1.419   .     A
C505   C561    1.445   .     S
C506   C563    1.447   .     S
C506   C507    1.424   .     A
C513   C1360   1.444   1_554 S
C514   C1359   1.444   .     S
C517   C518    1.539   .     S
C517   H525    1.089   .     S
C517   H526    1.096   .     S
C518   H524    1.108   .     S
C518   H523    1.107   .     S
C518   C519    1.531   .     S
C519   H521    1.111   .     S
C519   H522    1.111   .     S
C519   H520    1.109   .     S
C527   H536    1.110   .     S
C527   H535    1.099   .     S
C527   C528    1.556   .     S
C528   H534    1.104   .     S
C528   C529    1.526   .     S
C528   H533    1.103   .     S
C529   H530    1.102   .     S
C529   H531    1.111   .     S
C529   H532    1.110   .     S
C537   C538    1.540   .     S
C537   H545    1.092   .     S
C537   H546    1.095   .     S
C538   H544    1.110   .     S
C538   C539    1.531   .     S
C538   H543    1.107   .     S
C539   H541    1.111   .     S
C539   H542    1.111   .     S
C539   H540    1.109   .     S
C547   C548    1.556   .     S
C547   H555    1.098   .     S
C547   H556    1.111   .     S
C548   H553    1.103   .     S
C548   C549    1.527   .     S
C548   H554    1.103   .     S
C549   H551    1.110   .     S
C549   H552    1.110   .     S
C549   H550    1.101   .     S
C557   N558    1.156   .     T
C559   N560    1.158   .     T
C561   N562    1.157   .     T
C563   N564    1.158   .     T
O565   Zn579   1.951   .     S
O565   C571    1.307   .     A
O566   Zn580   1.951   .     S
O566   C572    1.299   .     A
O567   C572    1.307   .     A
O567   Zn579   1.954   .     S
O568   C571    1.300   .     A
O568   Zn580   1.954   .     S
N569   C584    1.395   .     A
N569   C582    1.396   .     A
N569   Zn579   2.082   .     S
N570   C583    1.390   .     A
N570   C581    1.391   .     A
N570   Zn580   2.082   .     S
C571   C610    1.386   .     S
C572   C609    1.386   .     S
O573   C577    1.320   .     A
O573   Zn579   2.006   .     S
O574   C578    1.323   .     A
O574   Zn580   2.006   .     S
O575   C578    1.320   .     A
O575   Zn579   2.007   .     S
O576   Zn580   2.007   .     S
O576   C577    1.321   .     A
C577   C601    1.463   .     S
C578   C602    1.463   .     S
C581   C611    1.545   .     S
C582   C621    1.522   .     S
C582   C19     1.448   1_565 S
C583   C631    1.545   .     S
C584   C641    1.522   .     S
C584   C17     1.449   1_565 S
C585   H603    1.084   .     S
C585   C610    1.391   .     A
C585   C775    1.371   1_455 S
C586   H604    1.084   .     S
C586   C609    1.391   .     A
C586   C682    1.371   .     S
C587   C609    1.391   .     A
C587   H605    1.085   .     S
C587   C679    1.371   .     S
C588   H606    1.084   .     S
C588   C610    1.390   .     A
C588   C774    1.371   1_455 S
C589   C607    1.393   .     A
C589   H593    1.086   .     S
C589   C597    1.377   .     A
C590   C608    1.393   .     A
C590   C598    1.387   .     A
C590   H594    1.085   .     S
C591   C608    1.392   .     A
C591   H595    1.086   .     S
C591   C599    1.378   .     A
C592   H596    1.085   .     S
C592   C607    1.390   .     A
C592   C600    1.387   .     A
C597   C601    1.417   .     A
C597   C651    1.444   .     S
C598   C602    1.420   .     A
C598   C653    1.447   .     S
C599   C602    1.419   .     A
C599   C655    1.445   .     S
C600   C657    1.447   .     S
C600   C601    1.424   .     A
C607   C1454   1.444   1_554 S
C608   C1453   1.444   .     S
C611   C612    1.539   .     S
C611   H619    1.089   .     S
C611   H620    1.096   .     S
C612   H618    1.108   .     S
C612   H617    1.107   .     S
C612   C613    1.531   .     S
C613   H615    1.111   .     S
C613   H616    1.111   .     S
C613   H614    1.109   .     S
C621   H630    1.110   .     S
C621   H629    1.099   .     S
C621   C622    1.556   .     S
C622   H628    1.104   .     S
C622   C623    1.526   .     S
C622   H627    1.103   .     S
C623   H624    1.102   .     S
C623   H625    1.111   .     S
C623   H626    1.110   .     S
C631   C632    1.540   .     S
C631   H639    1.092   .     S
C631   H640    1.095   .     S
C632   H638    1.110   .     S
C632   C633    1.531   .     S
C632   H637    1.107   .     S
C633   H635    1.111   .     S
C633   H636    1.111   .     S
C633   H634    1.109   .     S
C641   C642    1.556   .     S
C641   H649    1.098   .     S
C641   H650    1.111   .     S
C642   H647    1.103   .     S
C642   C643    1.527   .     S
C642   H648    1.103   .     S
C643   H645    1.110   .     S
C643   H646    1.110   .     S
C643   H644    1.101   .     S
C651   N652    1.156   .     T
C653   N654    1.158   .     T
C655   N656    1.157   .     T
C657   N658    1.158   .     T
O659   Zn673   1.951   .     S
O659   C665    1.307   .     A
O660   Zn674   1.951   .     S
O660   C666    1.299   .     A
O661   C666    1.307   .     A
O661   Zn673   1.954   .     S
O662   C665    1.300   .     A
O662   Zn674   1.954   .     S
N663   C678    1.395   .     A
N663   C676    1.396   .     A
N663   Zn673   2.082   .     S
N664   C677    1.390   .     A
N664   C675    1.391   .     A
N664   Zn674   2.082   .     S
C665   C704    1.386   .     S
C666   C703    1.386   .     S
O667   C671    1.320   .     A
O667   Zn673   2.006   .     S
O668   C672    1.323   .     A
O668   Zn674   2.006   .     S
O669   C672    1.320   .     A
O669   Zn673   2.007   .     S
O670   Zn674   2.007   .     S
O670   C671    1.321   .     A
C671   C695    1.463   .     S
C672   C696    1.463   .     S
C675   C705    1.545   .     S
C676   C715    1.522   .     S
C676   C113    1.448   1_565 S
C677   C725    1.545   .     S
C678   C735    1.522   .     S
C678   C111    1.449   1_565 S
C679   H697    1.084   .     S
C679   C704    1.391   .     A
C680   H698    1.084   .     S
C680   C703    1.391   .     A
C680   C776    1.371   .     S
C681   C703    1.391   .     A
C681   H699    1.085   .     S
C681   C773    1.371   .     S
C682   H700    1.084   .     S
C682   C704    1.390   .     A
C683   C701    1.393   .     A
C683   H687    1.086   .     S
C683   C691    1.377   .     A
C684   C702    1.393   .     A
C684   C692    1.387   .     A
C684   H688    1.085   .     S
C685   C702    1.392   .     A
C685   H689    1.086   .     S
C685   C693    1.378   .     A
C686   H690    1.085   .     S
C686   C701    1.390   .     A
C686   C694    1.387   .     A
C691   C695    1.417   .     A
C691   C745    1.444   .     S
C692   C696    1.420   .     A
C692   C747    1.447   .     S
C693   C696    1.419   .     A
C693   C749    1.445   .     S
C694   C751    1.447   .     S
C694   C695    1.424   .     A
C701   C1548   1.444   1_554 S
C702   C1547   1.444   .     S
C705   C706    1.539   .     S
C705   H713    1.089   .     S
C705   H714    1.096   .     S
C706   H712    1.108   .     S
C706   H711    1.107   .     S
C706   C707    1.531   .     S
C707   H709    1.111   .     S
C707   H710    1.111   .     S
C707   H708    1.109   .     S
C715   H724    1.110   .     S
C715   H723    1.099   .     S
C715   C716    1.556   .     S
C716   H722    1.104   .     S
C716   C717    1.526   .     S
C716   H721    1.103   .     S
C717   H718    1.102   .     S
C717   H719    1.111   .     S
C717   H720    1.110   .     S
C725   C726    1.540   .     S
C725   H733    1.092   .     S
C725   H734    1.095   .     S
C726   H732    1.110   .     S
C726   C727    1.531   .     S
C726   H731    1.107   .     S
C727   H729    1.111   .     S
C727   H730    1.111   .     S
C727   H728    1.109   .     S
C735   C736    1.556   .     S
C735   H743    1.098   .     S
C735   H744    1.111   .     S
C736   H741    1.103   .     S
C736   C737    1.527   .     S
C736   H742    1.103   .     S
C737   H739    1.110   .     S
C737   H740    1.110   .     S
C737   H738    1.101   .     S
C745   N746    1.156   .     T
C747   N748    1.158   .     T
C749   N750    1.157   .     T
C751   N752    1.158   .     T
O753   Zn767   1.951   .     S
O753   C759    1.307   .     A
O754   Zn768   1.951   .     S
O754   C760    1.299   .     A
O755   C760    1.307   .     A
O755   Zn767   1.954   .     S
O756   C759    1.300   .     A
O756   Zn768   1.954   .     S
N757   C772    1.395   .     A
N757   C770    1.396   .     A
N757   Zn767   2.082   .     S
N758   C771    1.390   .     A
N758   C769    1.391   .     A
N758   Zn768   2.082   .     S
C759   C798    1.386   .     S
C760   C797    1.386   .     S
O761   C765    1.320   .     A
O761   Zn767   2.006   .     S
O762   C766    1.323   .     A
O762   Zn768   2.006   .     S
O763   C766    1.320   .     A
O763   Zn767   2.007   .     S
O764   Zn768   2.007   .     S
O764   C765    1.321   .     A
C765   C789    1.463   .     S
C766   C790    1.463   .     S
C769   C799    1.545   .     S
C770   C809    1.522   .     S
C770   C207    1.448   1_565 S
C771   C819    1.545   .     S
C772   C829    1.522   .     S
C772   C205    1.449   1_565 S
C773   H791    1.084   .     S
C773   C798    1.391   .     A
C774   H792    1.084   .     S
C774   C797    1.391   .     A
C774   C588    1.371   1_655 S
C775   C797    1.391   .     A
C775   H793    1.085   .     S
C775   C585    1.371   1_655 S
C776   H794    1.084   .     S
C776   C798    1.390   .     A
C777   C795    1.393   .     A
C777   H781    1.086   .     S
C777   C785    1.377   .     A
C778   C796    1.393   .     A
C778   C786    1.387   .     A
C778   H782    1.085   .     S
C779   C796    1.392   .     A
C779   H783    1.086   .     S
C779   C787    1.378   .     A
C780   H784    1.085   .     S
C780   C795    1.390   .     A
C780   C788    1.387   .     A
C785   C789    1.417   .     A
C785   C839    1.444   .     S
C786   C790    1.420   .     A
C786   C841    1.447   .     S
C787   C790    1.419   .     A
C787   C843    1.445   .     S
C788   C845    1.447   .     S
C788   C789    1.424   .     A
C795   C1642   1.444   1_554 S
C796   C1641   1.444   .     S
C799   C800    1.539   .     S
C799   H807    1.089   .     S
C799   H808    1.096   .     S
C800   H806    1.108   .     S
C800   H805    1.107   .     S
C800   C801    1.531   .     S
C801   H803    1.111   .     S
C801   H804    1.111   .     S
C801   H802    1.109   .     S
C809   H818    1.110   .     S
C809   H817    1.099   .     S
C809   C810    1.556   .     S
C810   H816    1.104   .     S
C810   C811    1.526   .     S
C810   H815    1.103   .     S
C811   H812    1.102   .     S
C811   H813    1.111   .     S
C811   H814    1.110   .     S
C819   C820    1.540   .     S
C819   H827    1.092   .     S
C819   H828    1.095   .     S
C820   H826    1.110   .     S
C820   C821    1.531   .     S
C820   H825    1.107   .     S
C821   H823    1.111   .     S
C821   H824    1.111   .     S
C821   H822    1.109   .     S
C829   C830    1.556   .     S
C829   H837    1.098   .     S
C829   H838    1.111   .     S
C830   H835    1.103   .     S
C830   C831    1.527   .     S
C830   H836    1.103   .     S
C831   H833    1.110   .     S
C831   H834    1.110   .     S
C831   H832    1.101   .     S
C839   N840    1.156   .     T
C841   N842    1.158   .     T
C843   N844    1.157   .     T
C845   N846    1.158   .     T
O847   Zn861   1.951   .     S
O847   C853    1.307   .     A
O848   Zn862   1.951   .     S
O848   C854    1.299   .     A
O849   C854    1.307   .     A
O849   Zn861   1.954   .     S
O850   C853    1.300   .     A
O850   Zn862   1.954   .     S
N851   C866    1.395   .     A
N851   C864    1.396   .     A
N851   Zn861   2.082   .     S
N852   C865    1.390   .     A
N852   C863    1.391   .     A
N852   Zn862   2.082   .     S
C853   C892    1.386   .     S
C854   C891    1.386   .     S
O855   C859    1.320   .     A
O855   Zn861   2.006   .     S
O856   C860    1.323   .     A
O856   Zn862   2.006   .     S
O857   C860    1.320   .     A
O857   Zn861   2.007   .     S
O858   Zn862   2.007   .     S
O858   C859    1.321   .     A
C859   C883    1.463   .     S
C860   C884    1.463   .     S
C863   C893    1.545   .     S
C863   C1430   1.449   1_545 S
C864   C903    1.522   .     S
C864   C1147   1.448   .     S
C865   C913    1.545   .     S
C865   C1428   1.448   1_545 S
C866   C923    1.522   .     S
C866   C1145   1.449   .     S
C867   H885    1.084   .     S
C867   C892    1.391   .     A
C867   C1057   1.371   1_455 S
C868   H886    1.084   .     S
C868   C891    1.391   .     A
C868   C964    1.371   .     S
C869   C891    1.391   .     A
C869   H887    1.085   .     S
C869   C961    1.371   .     S
C870   H888    1.084   .     S
C870   C892    1.390   .     A
C870   C1056   1.371   1_455 S
C871   C889    1.393   .     A
C871   H875    1.086   .     S
C871   C879    1.377   .     A
C872   C890    1.393   .     A
C872   C880    1.387   .     A
C872   H876    1.085   .     S
C873   C890    1.392   .     A
C873   H877    1.086   .     S
C873   C881    1.378   .     A
C874   H878    1.085   .     S
C874   C889    1.390   .     A
C874   C882    1.387   .     A
C879   C883    1.417   .     A
C879   C933    1.444   .     S
C880   C884    1.420   .     A
C880   C935    1.447   .     S
C881   C884    1.419   .     A
C881   C937    1.445   .     S
C882   C939    1.447   .     S
C882   C883    1.424   .     A
C890   C43     1.444   1_556 S
C893   C894    1.539   .     S
C893   H901    1.089   .     S
C893   H902    1.096   .     S
C894   H900    1.108   .     S
C894   H899    1.107   .     S
C894   C895    1.531   .     S
C895   H897    1.111   .     S
C895   H898    1.111   .     S
C895   H896    1.109   .     S
C903   H912    1.110   .     S
C903   H911    1.099   .     S
C903   C904    1.556   .     S
C904   H910    1.104   .     S
C904   C905    1.526   .     S
C904   H909    1.103   .     S
C905   H906    1.102   .     S
C905   H907    1.111   .     S
C905   H908    1.110   .     S
C913   C914    1.540   .     S
C913   H921    1.092   .     S
C913   H922    1.095   .     S
C914   H920    1.110   .     S
C914   C915    1.531   .     S
C914   H919    1.107   .     S
C915   H917    1.111   .     S
C915   H918    1.111   .     S
C915   H916    1.109   .     S
C923   C924    1.556   .     S
C923   H931    1.098   .     S
C923   H932    1.111   .     S
C924   H929    1.103   .     S
C924   C925    1.527   .     S
C924   H930    1.103   .     S
C925   H927    1.110   .     S
C925   H928    1.110   .     S
C925   H926    1.101   .     S
C933   N934    1.156   .     T
C935   N936    1.158   .     T
C937   N938    1.157   .     T
C939   N940    1.158   .     T
O941   Zn955   1.951   .     S
O941   C947    1.307   .     A
O942   Zn956   1.951   .     S
O942   C948    1.299   .     A
O943   C948    1.307   .     A
O943   Zn955   1.954   .     S
O944   C947    1.300   .     A
O944   Zn956   1.954   .     S
N945   C960    1.395   .     A
N945   C958    1.396   .     A
N945   Zn955   2.082   .     S
N946   C959    1.390   .     A
N946   C957    1.391   .     A
N946   Zn956   2.082   .     S
C947   C986    1.386   .     S
C948   C985    1.386   .     S
O949   C953    1.320   .     A
O949   Zn955   2.006   .     S
O950   C954    1.323   .     A
O950   Zn956   2.006   .     S
O951   C954    1.320   .     A
O951   Zn955   2.007   .     S
O952   Zn956   2.007   .     S
O952   C953    1.321   .     A
C953   C977    1.463   .     S
C954   C978    1.463   .     S
C957   C987    1.545   .     S
C957   C1524   1.449   1_545 S
C958   C997    1.522   .     S
C958   C1241   1.448   .     S
C959   C1007   1.545   .     S
C959   C1522   1.448   1_545 S
C960   C1017   1.522   .     S
C960   C1239   1.449   .     S
C961   H979    1.084   .     S
C961   C986    1.391   .     A
C962   H980    1.084   .     S
C962   C985    1.391   .     A
C962   C1058   1.371   .     S
C963   C985    1.391   .     A
C963   H981    1.085   .     S
C963   C1055   1.371   .     S
C964   H982    1.084   .     S
C964   C986    1.390   .     A
C965   C983    1.393   .     A
C965   H969    1.086   .     S
C965   C973    1.377   .     A
C966   C984    1.393   .     A
C966   C974    1.387   .     A
C966   H970    1.085   .     S
C967   C984    1.392   .     A
C967   H971    1.086   .     S
C967   C975    1.378   .     A
C968   H972    1.085   .     S
C968   C983    1.390   .     A
C968   C976    1.387   .     A
C973   C977    1.417   .     A
C973   C1027   1.444   .     S
C974   C978    1.420   .     A
C974   C1029   1.447   .     S
C975   C978    1.419   .     A
C975   C1031   1.445   .     S
C976   C1033   1.447   .     S
C976   C977    1.424   .     A
C984   C137    1.444   1_556 S
C987   C988    1.539   .     S
C987   H995    1.089   .     S
C987   H996    1.096   .     S
C988   H994    1.108   .     S
C988   H993    1.107   .     S
C988   C989    1.531   .     S
C989   H991    1.111   .     S
C989   H992    1.111   .     S
C989   H990    1.109   .     S
C997   H1006   1.110   .     S
C997   H1005   1.099   .     S
C997   C998    1.556   .     S
C998   H1004   1.104   .     S
C998   C999    1.526   .     S
C998   H1003   1.103   .     S
C999   H1000   1.102   .     S
C999   H1001   1.111   .     S
C999   H1002   1.110   .     S
C1007  C1008   1.540   .     S
C1007  H1015   1.092   .     S
C1007  H1016   1.095   .     S
C1008  H1014   1.110   .     S
C1008  C1009   1.531   .     S
C1008  H1013   1.107   .     S
C1009  H1011   1.111   .     S
C1009  H1012   1.111   .     S
C1009  H1010   1.109   .     S
C1017  C1018   1.556   .     S
C1017  H1025   1.098   .     S
C1017  H1026   1.111   .     S
C1018  H1023   1.103   .     S
C1018  C1019   1.527   .     S
C1018  H1024   1.103   .     S
C1019  H1021   1.110   .     S
C1019  H1022   1.110   .     S
C1019  H1020   1.101   .     S
C1027  N1028   1.156   .     T
C1029  N1030   1.158   .     T
C1031  N1032   1.157   .     T
C1033  N1034   1.158   .     T
O1035  Zn1049  1.951   .     S
O1035  C1041   1.307   .     A
O1036  Zn1050  1.951   .     S
O1036  C1042   1.299   .     A
O1037  C1042   1.307   .     A
O1037  Zn1049  1.954   .     S
O1038  C1041   1.300   .     A
O1038  Zn1050  1.954   .     S
N1039  C1054   1.395   .     A
N1039  C1052   1.396   .     A
N1039  Zn1049  2.082   .     S
N1040  C1053   1.390   .     A
N1040  C1051   1.391   .     A
N1040  Zn1050  2.082   .     S
C1041  C1080   1.386   .     S
C1042  C1079   1.386   .     S
O1043  C1047   1.320   .     A
O1043  Zn1049  2.006   .     S
O1044  C1048   1.323   .     A
O1044  Zn1050  2.006   .     S
O1045  C1048   1.320   .     A
O1045  Zn1049  2.007   .     S
O1046  Zn1050  2.007   .     S
O1046  C1047   1.321   .     A
C1047  C1071   1.463   .     S
C1048  C1072   1.463   .     S
C1051  C1081   1.545   .     S
C1051  C1618   1.449   1_545 S
C1052  C1091   1.522   .     S
C1052  C1335   1.448   .     S
C1053  C1101   1.545   .     S
C1053  C1616   1.448   1_545 S
C1054  C1111   1.522   .     S
C1054  C1333   1.449   .     S
C1055  H1073   1.084   .     S
C1055  C1080   1.391   .     A
C1056  H1074   1.084   .     S
C1056  C1079   1.391   .     A
C1056  C870    1.371   1_655 S
C1057  C1079   1.391   .     A
C1057  H1075   1.085   .     S
C1057  C867    1.371   1_655 S
C1058  H1076   1.084   .     S
C1058  C1080   1.390   .     A
C1059  C1077   1.393   .     A
C1059  H1063   1.086   .     S
C1059  C1067   1.377   .     A
C1060  C1078   1.393   .     A
C1060  C1068   1.387   .     A
C1060  H1064   1.085   .     S
C1061  C1078   1.392   .     A
C1061  H1065   1.086   .     S
C1061  C1069   1.378   .     A
C1062  H1066   1.085   .     S
C1062  C1077   1.390   .     A
C1062  C1070   1.387   .     A
C1067  C1071   1.417   .     A
C1067  C1121   1.444   .     S
C1068  C1072   1.420   .     A
C1068  C1123   1.447   .     S
C1069  C1072   1.419   .     A
C1069  C1125   1.445   .     S
C1070  C1127   1.447   .     S
C1070  C1071   1.424   .     A
C1078  C231    1.444   1_556 S
C1081  C1082   1.539   .     S
C1081  H1089   1.089   .     S
C1081  H1090   1.096   .     S
C1082  H1088   1.108   .     S
C1082  H1087   1.107   .     S
C1082  C1083   1.531   .     S
C1083  H1085   1.111   .     S
C1083  H1086   1.111   .     S
C1083  H1084   1.109   .     S
C1091  H1100   1.110   .     S
C1091  H1099   1.099   .     S
C1091  C1092   1.556   .     S
C1092  H1098   1.104   .     S
C1092  C1093   1.526   .     S
C1092  H1097   1.103   .     S
C1093  H1094   1.102   .     S
C1093  H1095   1.111   .     S
C1093  H1096   1.110   .     S
C1101  C1102   1.540   .     S
C1101  H1109   1.092   .     S
C1101  H1110   1.095   .     S
C1102  H1108   1.110   .     S
C1102  C1103   1.531   .     S
C1102  H1107   1.107   .     S
C1103  H1105   1.111   .     S
C1103  H1106   1.111   .     S
C1103  H1104   1.109   .     S
C1111  C1112   1.556   .     S
C1111  H1119   1.098   .     S
C1111  H1120   1.111   .     S
C1112  H1117   1.103   .     S
C1112  C1113   1.527   .     S
C1112  H1118   1.103   .     S
C1113  H1115   1.110   .     S
C1113  H1116   1.110   .     S
C1113  H1114   1.101   .     S
C1121  N1122   1.156   .     T
C1123  N1124   1.158   .     T
C1125  N1126   1.157   .     T
C1127  N1128   1.158   .     T
O1129  Zn1143  1.951   .     S
O1129  C1135   1.307   .     A
O1130  Zn1144  1.951   .     S
O1130  C1136   1.299   .     A
O1131  C1136   1.307   .     A
O1131  Zn1143  1.954   .     S
O1132  C1135   1.300   .     A
O1132  Zn1144  1.954   .     S
N1133  C1148   1.395   .     A
N1133  C1146   1.396   .     A
N1133  Zn1143  2.082   .     S
N1134  C1147   1.390   .     A
N1134  C1145   1.391   .     A
N1134  Zn1144  2.082   .     S
C1135  C1174   1.386   .     S
C1136  C1173   1.386   .     S
O1137  C1141   1.320   .     A
O1137  Zn1143  2.006   .     S
O1138  C1142   1.323   .     A
O1138  Zn1144  2.006   .     S
O1139  C1142   1.320   .     A
O1139  Zn1143  2.007   .     S
O1140  Zn1144  2.007   .     S
O1140  C1141   1.321   .     A
C1141  C1165   1.463   .     S
C1142  C1166   1.463   .     S
C1145  C1175   1.545   .     S
C1146  C1185   1.522   .     S
C1146  C1429   1.448   .     S
C1147  C1195   1.545   .     S
C1148  C1205   1.522   .     S
C1148  C1427   1.449   .     S
C1149  H1167   1.084   .     S
C1149  C1174   1.391   .     A
C1149  C1339   1.371   1_455 S
C1150  H1168   1.084   .     S
C1150  C1173   1.391   .     A
C1150  C1246   1.371   .     S
C1151  C1173   1.391   .     A
C1151  H1169   1.085   .     S
C1151  C1243   1.371   .     S
C1152  H1170   1.084   .     S
C1152  C1174   1.390   .     A
C1152  C1338   1.371   1_455 S
C1153  C1171   1.393   .     A
C1153  H1157   1.086   .     S
C1153  C1161   1.377   .     A
C1154  C1172   1.393   .     A
C1154  C1162   1.387   .     A
C1154  H1158   1.085   .     S
C1155  C1172   1.392   .     A
C1155  H1159   1.086   .     S
C1155  C1163   1.378   .     A
C1156  H1160   1.085   .     S
C1156  C1171   1.390   .     A
C1156  C1164   1.387   .     A
C1161  C1165   1.417   .     A
C1161  C1215   1.444   .     S
C1162  C1166   1.420   .     A
C1162  C1217   1.447   .     S
C1163  C1166   1.419   .     A
C1163  C1219   1.445   .     S
C1164  C1221   1.447   .     S
C1164  C1165   1.424   .     A
C1172  C325    1.444   1_556 S
C1175  C1176   1.539   .     S
C1175  H1183   1.089   .     S
C1175  H1184   1.096   .     S
C1176  H1182   1.108   .     S
C1176  H1181   1.107   .     S
C1176  C1177   1.531   .     S
C1177  H1179   1.111   .     S
C1177  H1180   1.111   .     S
C1177  H1178   1.109   .     S
C1185  H1194   1.110   .     S
C1185  H1193   1.099   .     S
C1185  C1186   1.556   .     S
C1186  H1192   1.104   .     S
C1186  C1187   1.526   .     S
C1186  H1191   1.103   .     S
C1187  H1188   1.102   .     S
C1187  H1189   1.111   .     S
C1187  H1190   1.110   .     S
C1195  C1196   1.540   .     S
C1195  H1203   1.092   .     S
C1195  H1204   1.095   .     S
C1196  H1202   1.110   .     S
C1196  C1197   1.531   .     S
C1196  H1201   1.107   .     S
C1197  H1199   1.111   .     S
C1197  H1200   1.111   .     S
C1197  H1198   1.109   .     S
C1205  C1206   1.556   .     S
C1205  H1213   1.098   .     S
C1205  H1214   1.111   .     S
C1206  H1211   1.103   .     S
C1206  C1207   1.527   .     S
C1206  H1212   1.103   .     S
C1207  H1209   1.110   .     S
C1207  H1210   1.110   .     S
C1207  H1208   1.101   .     S
C1215  N1216   1.156   .     T
C1217  N1218   1.158   .     T
C1219  N1220   1.157   .     T
C1221  N1222   1.158   .     T
O1223  Zn1237  1.951   .     S
O1223  C1229   1.307   .     A
O1224  Zn1238  1.951   .     S
O1224  C1230   1.299   .     A
O1225  C1230   1.307   .     A
O1225  Zn1237  1.954   .     S
O1226  C1229   1.300   .     A
O1226  Zn1238  1.954   .     S
N1227  C1242   1.395   .     A
N1227  C1240   1.396   .     A
N1227  Zn1237  2.082   .     S
N1228  C1241   1.390   .     A
N1228  C1239   1.391   .     A
N1228  Zn1238  2.082   .     S
C1229  C1268   1.386   .     S
C1230  C1267   1.386   .     S
O1231  C1235   1.320   .     A
O1231  Zn1237  2.006   .     S
O1232  C1236   1.323   .     A
O1232  Zn1238  2.006   .     S
O1233  C1236   1.320   .     A
O1233  Zn1237  2.007   .     S
O1234  Zn1238  2.007   .     S
O1234  C1235   1.321   .     A
C1235  C1259   1.463   .     S
C1236  C1260   1.463   .     S
C1239  C1269   1.545   .     S
C1240  C1279   1.522   .     S
C1240  C1523   1.448   .     S
C1241  C1289   1.545   .     S
C1242  C1299   1.522   .     S
C1242  C1521   1.449   .     S
C1243  H1261   1.084   .     S
C1243  C1268   1.391   .     A
C1244  H1262   1.084   .     S
C1244  C1267   1.391   .     A
C1244  C1340   1.371   .     S
C1245  C1267   1.391   .     A
C1245  H1263   1.085   .     S
C1245  C1337   1.371   .     S
C1246  H1264   1.084   .     S
C1246  C1268   1.390   .     A
C1247  C1265   1.393   .     A
C1247  H1251   1.086   .     S
C1247  C1255   1.377   .     A
C1248  C1266   1.393   .     A
C1248  C1256   1.387   .     A
C1248  H1252   1.085   .     S
C1249  C1266   1.392   .     A
C1249  H1253   1.086   .     S
C1249  C1257   1.378   .     A
C1250  H1254   1.085   .     S
C1250  C1265   1.390   .     A
C1250  C1258   1.387   .     A
C1255  C1259   1.417   .     A
C1255  C1309   1.444   .     S
C1256  C1260   1.420   .     A
C1256  C1311   1.447   .     S
C1257  C1260   1.419   .     A
C1257  C1313   1.445   .     S
C1258  C1315   1.447   .     S
C1258  C1259   1.424   .     A
C1266  C419    1.444   1_556 S
C1269  C1270   1.539   .     S
C1269  H1277   1.089   .     S
C1269  H1278   1.096   .     S
C1270  H1276   1.108   .     S
C1270  H1275   1.107   .     S
C1270  C1271   1.531   .     S
C1271  H1273   1.111   .     S
C1271  H1274   1.111   .     S
C1271  H1272   1.109   .     S
C1279  H1288   1.110   .     S
C1279  H1287   1.099   .     S
C1279  C1280   1.556   .     S
C1280  H1286   1.104   .     S
C1280  C1281   1.526   .     S
C1280  H1285   1.103   .     S
C1281  H1282   1.102   .     S
C1281  H1283   1.111   .     S
C1281  H1284   1.110   .     S
C1289  C1290   1.540   .     S
C1289  H1297   1.092   .     S
C1289  H1298   1.095   .     S
C1290  H1296   1.110   .     S
C1290  C1291   1.531   .     S
C1290  H1295   1.107   .     S
C1291  H1293   1.111   .     S
C1291  H1294   1.111   .     S
C1291  H1292   1.109   .     S
C1299  C1300   1.556   .     S
C1299  H1307   1.098   .     S
C1299  H1308   1.111   .     S
C1300  H1305   1.103   .     S
C1300  C1301   1.527   .     S
C1300  H1306   1.103   .     S
C1301  H1303   1.110   .     S
C1301  H1304   1.110   .     S
C1301  H1302   1.101   .     S
C1309  N1310   1.156   .     T
C1311  N1312   1.158   .     T
C1313  N1314   1.157   .     T
C1315  N1316   1.158   .     T
O1317  Zn1331  1.951   .     S
O1317  C1323   1.307   .     A
O1318  Zn1332  1.951   .     S
O1318  C1324   1.299   .     A
O1319  C1324   1.307   .     A
O1319  Zn1331  1.954   .     S
O1320  C1323   1.300   .     A
O1320  Zn1332  1.954   .     S
N1321  C1336   1.395   .     A
N1321  C1334   1.396   .     A
N1321  Zn1331  2.082   .     S
N1322  C1335   1.390   .     A
N1322  C1333   1.391   .     A
N1322  Zn1332  2.082   .     S
C1323  C1362   1.386   .     S
C1324  C1361   1.386   .     S
O1325  C1329   1.320   .     A
O1325  Zn1331  2.006   .     S
O1326  C1330   1.323   .     A
O1326  Zn1332  2.006   .     S
O1327  C1330   1.320   .     A
O1327  Zn1331  2.007   .     S
O1328  Zn1332  2.007   .     S
O1328  C1329   1.321   .     A
C1329  C1353   1.463   .     S
C1330  C1354   1.463   .     S
C1333  C1363   1.545   .     S
C1334  C1373   1.522   .     S
C1334  C1617   1.448   .     S
C1335  C1383   1.545   .     S
C1336  C1393   1.522   .     S
C1336  C1615   1.449   .     S
C1337  H1355   1.084   .     S
C1337  C1362   1.391   .     A
C1338  H1356   1.084   .     S
C1338  C1361   1.391   .     A
C1338  C1152   1.371   1_655 S
C1339  C1361   1.391   .     A
C1339  H1357   1.085   .     S
C1339  C1149   1.371   1_655 S
C1340  H1358   1.084   .     S
C1340  C1362   1.390   .     A
C1341  C1359   1.393   .     A
C1341  H1345   1.086   .     S
C1341  C1349   1.377   .     A
C1342  C1360   1.393   .     A
C1342  C1350   1.387   .     A
C1342  H1346   1.085   .     S
C1343  C1360   1.392   .     A
C1343  H1347   1.086   .     S
C1343  C1351   1.378   .     A
C1344  H1348   1.085   .     S
C1344  C1359   1.390   .     A
C1344  C1352   1.387   .     A
C1349  C1353   1.417   .     A
C1349  C1403   1.444   .     S
C1350  C1354   1.420   .     A
C1350  C1405   1.447   .     S
C1351  C1354   1.419   .     A
C1351  C1407   1.445   .     S
C1352  C1409   1.447   .     S
C1352  C1353   1.424   .     A
C1360  C513    1.444   1_556 S
C1363  C1364   1.539   .     S
C1363  H1371   1.089   .     S
C1363  H1372   1.096   .     S
C1364  H1370   1.108   .     S
C1364  H1369   1.107   .     S
C1364  C1365   1.531   .     S
C1365  H1367   1.111   .     S
C1365  H1368   1.111   .     S
C1365  H1366   1.109   .     S
C1373  H1382   1.110   .     S
C1373  H1381   1.099   .     S
C1373  C1374   1.556   .     S
C1374  H1380   1.104   .     S
C1374  C1375   1.526   .     S
C1374  H1379   1.103   .     S
C1375  H1376   1.102   .     S
C1375  H1377   1.111   .     S
C1375  H1378   1.110   .     S
C1383  C1384   1.540   .     S
C1383  H1391   1.092   .     S
C1383  H1392   1.095   .     S
C1384  H1390   1.110   .     S
C1384  C1385   1.531   .     S
C1384  H1389   1.107   .     S
C1385  H1387   1.111   .     S
C1385  H1388   1.111   .     S
C1385  H1386   1.109   .     S
C1393  C1394   1.556   .     S
C1393  H1401   1.098   .     S
C1393  H1402   1.111   .     S
C1394  H1399   1.103   .     S
C1394  C1395   1.527   .     S
C1394  H1400   1.103   .     S
C1395  H1397   1.110   .     S
C1395  H1398   1.110   .     S
C1395  H1396   1.101   .     S
C1403  N1404   1.156   .     T
C1405  N1406   1.158   .     T
C1407  N1408   1.157   .     T
C1409  N1410   1.158   .     T
O1411  Zn1425  1.951   .     S
O1411  C1417   1.307   .     A
O1412  Zn1426  1.951   .     S
O1412  C1418   1.299   .     A
O1413  C1418   1.307   .     A
O1413  Zn1425  1.954   .     S
O1414  C1417   1.300   .     A
O1414  Zn1426  1.954   .     S
N1415  C1430   1.395   .     A
N1415  C1428   1.396   .     A
N1415  Zn1425  2.082   .     S
N1416  C1429   1.390   .     A
N1416  C1427   1.391   .     A
N1416  Zn1426  2.082   .     S
C1417  C1456   1.386   .     S
C1418  C1455   1.386   .     S
O1419  C1423   1.320   .     A
O1419  Zn1425  2.006   .     S
O1420  C1424   1.323   .     A
O1420  Zn1426  2.006   .     S
O1421  C1424   1.320   .     A
O1421  Zn1425  2.007   .     S
O1422  Zn1426  2.007   .     S
O1422  C1423   1.321   .     A
C1423  C1447   1.463   .     S
C1424  C1448   1.463   .     S
C1427  C1457   1.545   .     S
C1428  C1467   1.522   .     S
C1428  C865    1.448   1_565 S
C1429  C1477   1.545   .     S
C1430  C1487   1.522   .     S
C1430  C863    1.449   1_565 S
C1431  H1449   1.084   .     S
C1431  C1456   1.391   .     A
C1431  C1621   1.371   1_455 S
C1432  H1450   1.084   .     S
C1432  C1455   1.391   .     A
C1432  C1528   1.371   .     S
C1433  C1455   1.391   .     A
C1433  H1451   1.085   .     S
C1433  C1525   1.371   .     S
C1434  H1452   1.084   .     S
C1434  C1456   1.390   .     A
C1434  C1620   1.371   1_455 S
C1435  C1453   1.393   .     A
C1435  H1439   1.086   .     S
C1435  C1443   1.377   .     A
C1436  C1454   1.393   .     A
C1436  C1444   1.387   .     A
C1436  H1440   1.085   .     S
C1437  C1454   1.392   .     A
C1437  H1441   1.086   .     S
C1437  C1445   1.378   .     A
C1438  H1442   1.085   .     S
C1438  C1453   1.390   .     A
C1438  C1446   1.387   .     A
C1443  C1447   1.417   .     A
C1443  C1497   1.444   .     S
C1444  C1448   1.420   .     A
C1444  C1499   1.447   .     S
C1445  C1448   1.419   .     A
C1445  C1501   1.445   .     S
C1446  C1503   1.447   .     S
C1446  C1447   1.424   .     A
C1454  C607    1.444   1_556 S
C1457  C1458   1.539   .     S
C1457  H1465   1.089   .     S
C1457  H1466   1.096   .     S
C1458  H1464   1.108   .     S
C1458  H1463   1.107   .     S
C1458  C1459   1.531   .     S
C1459  H1461   1.111   .     S
C1459  H1462   1.111   .     S
C1459  H1460   1.109   .     S
C1467  H1476   1.110   .     S
C1467  H1475   1.099   .     S
C1467  C1468   1.556   .     S
C1468  H1474   1.104   .     S
C1468  C1469   1.526   .     S
C1468  H1473   1.103   .     S
C1469  H1470   1.102   .     S
C1469  H1471   1.111   .     S
C1469  H1472   1.110   .     S
C1477  C1478   1.540   .     S
C1477  H1485   1.092   .     S
C1477  H1486   1.095   .     S
C1478  H1484   1.110   .     S
C1478  C1479   1.531   .     S
C1478  H1483   1.107   .     S
C1479  H1481   1.111   .     S
C1479  H1482   1.111   .     S
C1479  H1480   1.109   .     S
C1487  C1488   1.556   .     S
C1487  H1495   1.098   .     S
C1487  H1496   1.111   .     S
C1488  H1493   1.103   .     S
C1488  C1489   1.527   .     S
C1488  H1494   1.103   .     S
C1489  H1491   1.110   .     S
C1489  H1492   1.110   .     S
C1489  H1490   1.101   .     S
C1497  N1498   1.156   .     T
C1499  N1500   1.158   .     T
C1501  N1502   1.157   .     T
C1503  N1504   1.158   .     T
O1505  Zn1519  1.951   .     S
O1505  C1511   1.307   .     A
O1506  Zn1520  1.951   .     S
O1506  C1512   1.299   .     A
O1507  C1512   1.307   .     A
O1507  Zn1519  1.954   .     S
O1508  C1511   1.300   .     A
O1508  Zn1520  1.954   .     S
N1509  C1524   1.395   .     A
N1509  C1522   1.396   .     A
N1509  Zn1519  2.082   .     S
N1510  C1523   1.390   .     A
N1510  C1521   1.391   .     A
N1510  Zn1520  2.082   .     S
C1511  C1550   1.386   .     S
C1512  C1549   1.386   .     S
O1513  C1517   1.320   .     A
O1513  Zn1519  2.006   .     S
O1514  C1518   1.323   .     A
O1514  Zn1520  2.006   .     S
O1515  C1518   1.320   .     A
O1515  Zn1519  2.007   .     S
O1516  Zn1520  2.007   .     S
O1516  C1517   1.321   .     A
C1517  C1541   1.463   .     S
C1518  C1542   1.463   .     S
C1521  C1551   1.545   .     S
C1522  C1561   1.522   .     S
C1522  C959    1.448   1_565 S
C1523  C1571   1.545   .     S
C1524  C1581   1.522   .     S
C1524  C957    1.449   1_565 S
C1525  H1543   1.084   .     S
C1525  C1550   1.391   .     A
C1526  H1544   1.084   .     S
C1526  C1549   1.391   .     A
C1526  C1622   1.371   .     S
C1527  C1549   1.391   .     A
C1527  H1545   1.085   .     S
C1527  C1619   1.371   .     S
C1528  H1546   1.084   .     S
C1528  C1550   1.390   .     A
C1529  C1547   1.393   .     A
C1529  H1533   1.086   .     S
C1529  C1537   1.377   .     A
C1530  C1548   1.393   .     A
C1530  C1538   1.387   .     A
C1530  H1534   1.085   .     S
C1531  C1548   1.392   .     A
C1531  H1535   1.086   .     S
C1531  C1539   1.378   .     A
C1532  H1536   1.085   .     S
C1532  C1547   1.390   .     A
C1532  C1540   1.387   .     A
C1537  C1541   1.417   .     A
C1537  C1591   1.444   .     S
C1538  C1542   1.420   .     A
C1538  C1593   1.447   .     S
C1539  C1542   1.419   .     A
C1539  C1595   1.445   .     S
C1540  C1597   1.447   .     S
C1540  C1541   1.424   .     A
C1548  C701    1.444   1_556 S
C1551  C1552   1.539   .     S
C1551  H1559   1.089   .     S
C1551  H1560   1.096   .     S
C1552  H1558   1.108   .     S
C1552  H1557   1.107   .     S
C1552  C1553   1.531   .     S
C1553  H1555   1.111   .     S
C1553  H1556   1.111   .     S
C1553  H1554   1.109   .     S
C1561  H1570   1.110   .     S
C1561  H1569   1.099   .     S
C1561  C1562   1.556   .     S
C1562  H1568   1.104   .     S
C1562  C1563   1.526   .     S
C1562  H1567   1.103   .     S
C1563  H1564   1.102   .     S
C1563  H1565   1.111   .     S
C1563  H1566   1.110   .     S
C1571  C1572   1.540   .     S
C1571  H1579   1.092   .     S
C1571  H1580   1.095   .     S
C1572  H1578   1.110   .     S
C1572  C1573   1.531   .     S
C1572  H1577   1.107   .     S
C1573  H1575   1.111   .     S
C1573  H1576   1.111   .     S
C1573  H1574   1.109   .     S
C1581  C1582   1.556   .     S
C1581  H1589   1.098   .     S
C1581  H1590   1.111   .     S
C1582  H1587   1.103   .     S
C1582  C1583   1.527   .     S
C1582  H1588   1.103   .     S
C1583  H1585   1.110   .     S
C1583  H1586   1.110   .     S
C1583  H1584   1.101   .     S
C1591  N1592   1.156   .     T
C1593  N1594   1.158   .     T
C1595  N1596   1.157   .     T
C1597  N1598   1.158   .     T
O1599  Zn1613  1.951   .     S
O1599  C1605   1.307   .     A
O1600  Zn1614  1.951   .     S
O1600  C1606   1.299   .     A
O1601  C1606   1.307   .     A
O1601  Zn1613  1.954   .     S
O1602  C1605   1.300   .     A
O1602  Zn1614  1.954   .     S
N1603  C1618   1.395   .     A
N1603  C1616   1.396   .     A
N1603  Zn1613  2.082   .     S
N1604  C1617   1.390   .     A
N1604  C1615   1.391   .     A
N1604  Zn1614  2.082   .     S
C1605  C1644   1.386   .     S
C1606  C1643   1.386   .     S
O1607  C1611   1.320   .     A
O1607  Zn1613  2.006   .     S
O1608  C1612   1.323   .     A
O1608  Zn1614  2.006   .     S
O1609  C1612   1.320   .     A
O1609  Zn1613  2.007   .     S
O1610  Zn1614  2.007   .     S
O1610  C1611   1.321   .     A
C1611  C1635   1.463   .     S
C1612  C1636   1.463   .     S
C1615  C1645   1.545   .     S
C1616  C1655   1.522   .     S
C1616  C1053   1.448   1_565 S
C1617  C1665   1.545   .     S
C1618  C1675   1.522   .     S
C1618  C1051   1.449   1_565 S
C1619  H1637   1.084   .     S
C1619  C1644   1.391   .     A
C1620  H1638   1.084   .     S
C1620  C1643   1.391   .     A
C1620  C1434   1.371   1_655 S
C1621  C1643   1.391   .     A
C1621  H1639   1.085   .     S
C1621  C1431   1.371   1_655 S
C1622  H1640   1.084   .     S
C1622  C1644   1.390   .     A
C1623  C1641   1.393   .     A
C1623  H1627   1.086   .     S
C1623  C1631   1.377   .     A
C1624  C1642   1.393   .     A
C1624  C1632   1.387   .     A
C1624  H1628   1.085   .     S
C1625  C1642   1.392   .     A
C1625  H1629   1.086   .     S
C1625  C1633   1.378   .     A
C1626  H1630   1.085   .     S
C1626  C1641   1.390   .     A
C1626  C1634   1.387   .     A
C1631  C1635   1.417   .     A
C1631  C1685   1.444   .     S
C1632  C1636   1.420   .     A
C1632  C1687   1.447   .     S
C1633  C1636   1.419   .     A
C1633  C1689   1.445   .     S
C1634  C1691   1.447   .     S
C1634  C1635   1.424   .     A
C1642  C795    1.444   1_556 S
C1645  C1646   1.539   .     S
C1645  H1653   1.089   .     S
C1645  H1654   1.096   .     S
C1646  H1652   1.108   .     S
C1646  H1651   1.107   .     S
C1646  C1647   1.531   .     S
C1647  H1649   1.111   .     S
C1647  H1650   1.111   .     S
C1647  H1648   1.109   .     S
C1655  H1664   1.110   .     S
C1655  H1663   1.099   .     S
C1655  C1656   1.556   .     S
C1656  H1662   1.104   .     S
C1656  C1657   1.526   .     S
C1656  H1661   1.103   .     S
C1657  H1658   1.102   .     S
C1657  H1659   1.111   .     S
C1657  H1660   1.110   .     S
C1665  C1666   1.540   .     S
C1665  H1673   1.092   .     S
C1665  H1674   1.095   .     S
C1666  H1672   1.110   .     S
C1666  C1667   1.531   .     S
C1666  H1671   1.107   .     S
C1667  H1669   1.111   .     S
C1667  H1670   1.111   .     S
C1667  H1668   1.109   .     S
C1675  C1676   1.556   .     S
C1675  H1683   1.098   .     S
C1675  H1684   1.111   .     S
C1676  H1681   1.103   .     S
C1676  C1677   1.527   .     S
C1676  H1682   1.103   .     S
C1677  H1679   1.110   .     S
C1677  H1680   1.110   .     S
C1677  H1678   1.101   .     S
C1685  N1686   1.156   .     T
C1687  N1688   1.158   .     T
C1689  N1690   1.157   .     T
C1691  N1692   1.158   .     T
