data_str_m3_o1_o16_pcu_sym.26
_audit_creation_date              2020-01-03
_audit_creation_method            'Materials Studio'
_symmetry_space_group_name_H-M    'P1'
_symmetry_Int_Tables_number       1
_symmetry_cell_setting            triclinic
loop_
_symmetry_equiv_pos_as_xyz
  x,y,z
_cell_length_a                    29.6374
_cell_length_b                    32.0633
_cell_length_c                    26.4029
_cell_angle_alpha                 90.5894
_cell_angle_beta                  71.7747
_cell_angle_gamma                 90.4730
loop_
_atom_site_label
_atom_site_type_symbol
_atom_site_fract_x
_atom_site_fract_y
_atom_site_fract_z
_atom_site_U_iso_or_equiv
_atom_site_adp_type
_atom_site_occupancy
C1     C     0.16712   0.24665   0.24908   0.00000  Uiso   1.00
C2     C     0.12750   0.18573   0.40758   0.00000  Uiso   1.00
C3     C     0.21051   0.31234   0.22318   0.00000  Uiso   1.00
C4     C     0.14129   0.17241   0.35107   0.00000  Uiso   1.00
C5     C     0.20961   0.02214   0.22406   0.00000  Uiso   1.00
C6     C     0.16682   0.04265   0.24816   0.00000  Uiso   1.00
C7     C     0.12446   0.02111   0.27096   0.00000  Uiso   1.00
C8     C     0.12500   0.31175   0.27086   0.00000  Uiso   1.00
C9     C     0.16781   0.29088   0.24758   0.00000  Uiso   1.00
C10    C     0.31611   0.13617   0.22392   0.00000  Uiso   1.00
C11    C     0.03080   0.13651   0.22296   0.00000  Uiso   1.00
C12    C     0.14860   0.19250   0.48970   0.00000  Uiso   1.00
C13    C     0.01724   0.19759   0.27532   0.00000  Uiso   1.00
C14    C     0.30308   0.19807   0.27424   0.00000  Uiso   1.00
C15    C     0.16662   0.08673   0.24960   0.00000  Uiso   1.00
C16    C     0.19251   0.16784   0.14862   0.00000  Uiso   1.00
C17    C     0.26254   0.15724   0.00471   0.00000  Uiso   1.00
C18    C     0.20760   0.17280   0.09154   0.00000  Uiso   1.00
C19    C     0.07936   0.18877   0.43710   0.00000  Uiso   1.00
C20    C     0.06559   0.19290   0.49236   0.00000  Uiso   1.00
C21    C     0.09958   0.19249   0.01877   0.00000  Uiso   1.00
C22    C     0.16223   0.19290   0.43359   0.00000  Uiso   1.00
C23    C     0.18482   0.18756   0.01382   0.00000  Uiso   1.00
C24    C     0.23116   0.17606   0.48162   0.00000  Uiso   1.00
C25    C     0.24494   0.18536   0.42763   0.00000  Uiso   1.00
C26    C     0.21088   0.19834   0.40556   0.00000  Uiso   1.00
C27    C     0.17687   0.19266   0.06830   0.00000  Uiso   1.00
C28    C     0.24982   0.15453   0.05987   0.00000  Uiso   1.00
Cl29   Cl    0.06854   0.09856   0.18378   0.00000  Uiso   1.00
Cl30   Cl    0.31333   0.13036   0.46597   0.00000  Uiso   1.00
H31    H     0.27255   0.13799   0.07794   0.00000  Uiso   1.00
H32    H     0.08652   0.19016   0.06163   0.00000  Uiso   1.00
H33    H     0.02824   0.19383   0.01514   0.00000  Uiso   1.00
H34    H     0.22286   0.21093   0.36609   0.00000  Uiso   1.00
H35    H     0.15159   0.23247   0.12618   0.00000  Uiso   1.00
H36    H     0.27813   0.31098   0.18329   0.00000  Uiso   1.00
H37    H     0.24195   0.03964   0.20554   0.00000  Uiso   1.00
H38    H     0.09135   0.03724   0.28973   0.00000  Uiso   1.00
H39    H     0.09215   0.29507   0.28972   0.00000  Uiso   1.00
H40    H     0.30345   0.11200   0.20277   0.00000  Uiso   1.00
H41    H     0.02985   0.22241   0.29557   0.00000  Uiso   1.00
H42    H     0.28064   0.22406   0.29206   0.00000  Uiso   1.00
H43    H     0.28175   0.18386   0.40293   0.00000  Uiso   1.00
H44    H     0.05236   0.18661   0.41751   0.00000  Uiso   1.00
N45    N     0.04760   0.16668   0.25001   0.00000  Uiso   1.00
N46    N     0.28573   0.16665   0.25000   0.00000  Uiso   1.00
O47    O     0.12846   0.22775   0.25000   0.00000  Uiso   1.00
O48    O     0.25187   0.29081   0.19815   0.00000  Uiso   1.00
O49    O     0.20490   0.22774   0.25000   0.00000  Uiso   1.00
O50    O     0.10947   0.16666   0.32681   0.00000  Uiso   1.00
O51    O     0.18591   0.16665   0.32681   0.00000  Uiso   1.00
O52    O     0.12843   0.10559   0.24999   0.00000  Uiso   1.00
O53    O     0.20488   0.10558   0.24999   0.00000  Uiso   1.00
O54    O     0.14742   0.16668   0.17319   0.00000  Uiso   1.00
O55    O     0.22387   0.16667   0.17319   0.00000  Uiso   1.00
O56    O     0.14179   0.21972   0.09686   0.00000  Uiso   1.00
Zn57   Zn    0.11562   0.16667   0.25000   0.00000  Uiso   1.00
Zn58   Zn    0.21771   0.16666   0.25000   0.00000  Uiso   1.00
C59    C     0.50046   0.24665   0.24908   0.00000  Uiso   1.00
C60    C     0.46083   0.18573   0.40758   0.00000  Uiso   1.00
C61    C     0.54384   0.31234   0.22318   0.00000  Uiso   1.00
C62    C     0.47462   0.17241   0.35107   0.00000  Uiso   1.00
C63    C     0.54295   0.02214   0.22406   0.00000  Uiso   1.00
C64    C     0.50016   0.04265   0.24816   0.00000  Uiso   1.00
C65    C     0.45780   0.02111   0.27096   0.00000  Uiso   1.00
C66    C     0.45833   0.31175   0.27086   0.00000  Uiso   1.00
C67    C     0.50115   0.29088   0.24758   0.00000  Uiso   1.00
C68    C     0.64944   0.13617   0.22392   0.00000  Uiso   1.00
C69    C     0.36413   0.13651   0.22296   0.00000  Uiso   1.00
C70    C     0.48194   0.19250   0.48970   0.00000  Uiso   1.00
C71    C     0.35057   0.19759   0.27532   0.00000  Uiso   1.00
C72    C     0.63641   0.19807   0.27424   0.00000  Uiso   1.00
C73    C     0.49995   0.08673   0.24960   0.00000  Uiso   1.00
C74    C     0.52585   0.16784   0.14862   0.00000  Uiso   1.00
C75    C     0.59587   0.15724   0.00471   0.00000  Uiso   1.00
C76    C     0.54093   0.17280   0.09154   0.00000  Uiso   1.00
C77    C     0.41269   0.18877   0.43710   0.00000  Uiso   1.00
C78    C     0.39892   0.19290   0.49236   0.00000  Uiso   1.00
C79    C     0.43291   0.19249   0.01877   0.00000  Uiso   1.00
C80    C     0.49557   0.19290   0.43359   0.00000  Uiso   1.00
C81    C     0.51816   0.18756   0.01382   0.00000  Uiso   1.00
C82    C     0.56449   0.17606   0.48162   0.00000  Uiso   1.00
C83    C     0.57827   0.18536   0.42763   0.00000  Uiso   1.00
C84    C     0.54422   0.19834   0.40556   0.00000  Uiso   1.00
C85    C     0.51020   0.19266   0.06830   0.00000  Uiso   1.00
C86    C     0.58315   0.15453   0.05987   0.00000  Uiso   1.00
Cl87   Cl    0.40187   0.09856   0.18378   0.00000  Uiso   1.00
Cl88   Cl    0.64667   0.13036   0.46597   0.00000  Uiso   1.00
H89    H     0.60588   0.13799   0.07794   0.00000  Uiso   1.00
H90    H     0.41986   0.19016   0.06163   0.00000  Uiso   1.00
H91    H     0.36157   0.19383   0.01514   0.00000  Uiso   1.00
H92    H     0.55619   0.21093   0.36609   0.00000  Uiso   1.00
H93    H     0.48492   0.23247   0.12618   0.00000  Uiso   1.00
H94    H     0.61146   0.31098   0.18329   0.00000  Uiso   1.00
H95    H     0.57529   0.03964   0.20554   0.00000  Uiso   1.00
H96    H     0.42469   0.03724   0.28973   0.00000  Uiso   1.00
H97    H     0.42548   0.29507   0.28972   0.00000  Uiso   1.00
H98    H     0.63678   0.11200   0.20277   0.00000  Uiso   1.00
H99    H     0.36318   0.22241   0.29557   0.00000  Uiso   1.00
H100   H     0.61398   0.22406   0.29206   0.00000  Uiso   1.00
H101   H     0.61508   0.18386   0.40293   0.00000  Uiso   1.00
H102   H     0.38570   0.18661   0.41751   0.00000  Uiso   1.00
N103   N     0.38093   0.16668   0.25001   0.00000  Uiso   1.00
N104   N     0.61906   0.16665   0.25000   0.00000  Uiso   1.00
O105   O     0.46179   0.22775   0.25000   0.00000  Uiso   1.00
O106   O     0.58520   0.29081   0.19815   0.00000  Uiso   1.00
O107   O     0.53823   0.22774   0.25000   0.00000  Uiso   1.00
O108   O     0.44280   0.16666   0.32681   0.00000  Uiso   1.00
O109   O     0.51924   0.16665   0.32681   0.00000  Uiso   1.00
O110   O     0.46177   0.10559   0.24999   0.00000  Uiso   1.00
O111   O     0.53821   0.10558   0.24999   0.00000  Uiso   1.00
O112   O     0.48076   0.16668   0.17319   0.00000  Uiso   1.00
O113   O     0.55720   0.16667   0.17319   0.00000  Uiso   1.00
O114   O     0.47512   0.21972   0.09686   0.00000  Uiso   1.00
Zn115  Zn    0.44896   0.16667   0.25000   0.00000  Uiso   1.00
Zn116  Zn    0.55104   0.16666   0.25000   0.00000  Uiso   1.00
C117   C     0.83379   0.24665   0.24908   0.00000  Uiso   1.00
C118   C     0.79417   0.18573   0.40758   0.00000  Uiso   1.00
C119   C     0.87718   0.31234   0.22318   0.00000  Uiso   1.00
C120   C     0.80796   0.17241   0.35107   0.00000  Uiso   1.00
C121   C     0.87628   0.02214   0.22406   0.00000  Uiso   1.00
C122   C     0.83349   0.04265   0.24816   0.00000  Uiso   1.00
C123   C     0.79113   0.02111   0.27096   0.00000  Uiso   1.00
C124   C     0.79166   0.31175   0.27086   0.00000  Uiso   1.00
C125   C     0.83448   0.29088   0.24758   0.00000  Uiso   1.00
C126   C     0.98278   0.13617   0.22392   0.00000  Uiso   1.00
C127   C     0.69747   0.13651   0.22296   0.00000  Uiso   1.00
C128   C     0.81527   0.19250   0.48970   0.00000  Uiso   1.00
C129   C     0.68391   0.19759   0.27532   0.00000  Uiso   1.00
C130   C     0.96974   0.19807   0.27424   0.00000  Uiso   1.00
C131   C     0.83328   0.08673   0.24960   0.00000  Uiso   1.00
C132   C     0.85918   0.16784   0.14862   0.00000  Uiso   1.00
C133   C     0.92920   0.15724   0.00471   0.00000  Uiso   1.00
C134   C     0.87427   0.17280   0.09154   0.00000  Uiso   1.00
C135   C     0.74603   0.18877   0.43710   0.00000  Uiso   1.00
C136   C     0.73226   0.19290   0.49236   0.00000  Uiso   1.00
C137   C     0.76624   0.19249   0.01877   0.00000  Uiso   1.00
C138   C     0.82890   0.19290   0.43359   0.00000  Uiso   1.00
C139   C     0.85149   0.18756   0.01382   0.00000  Uiso   1.00
C140   C     0.89783   0.17606   0.48162   0.00000  Uiso   1.00
C141   C     0.91160   0.18536   0.42763   0.00000  Uiso   1.00
C142   C     0.87755   0.19834   0.40556   0.00000  Uiso   1.00
C143   C     0.84354   0.19266   0.06830   0.00000  Uiso   1.00
C144   C     0.91649   0.15453   0.05987   0.00000  Uiso   1.00
Cl145  Cl    0.73520   0.09856   0.18378   0.00000  Uiso   1.00
Cl146  Cl    0.98000   0.13036   0.46597   0.00000  Uiso   1.00
H147   H     0.93921   0.13799   0.07794   0.00000  Uiso   1.00
H148   H     0.75319   0.19016   0.06163   0.00000  Uiso   1.00
H149   H     0.69491   0.19383   0.01514   0.00000  Uiso   1.00
H150   H     0.88953   0.21093   0.36609   0.00000  Uiso   1.00
H151   H     0.81825   0.23247   0.12618   0.00000  Uiso   1.00
H152   H     0.94480   0.31098   0.18329   0.00000  Uiso   1.00
H153   H     0.90862   0.03964   0.20554   0.00000  Uiso   1.00
H154   H     0.75802   0.03724   0.28973   0.00000  Uiso   1.00
H155   H     0.75882   0.29507   0.28972   0.00000  Uiso   1.00
H156   H     0.97012   0.11200   0.20277   0.00000  Uiso   1.00
H157   H     0.69652   0.22241   0.29557   0.00000  Uiso   1.00
H158   H     0.94731   0.22406   0.29206   0.00000  Uiso   1.00
H159   H     0.94842   0.18386   0.40293   0.00000  Uiso   1.00
H160   H     0.71903   0.18661   0.41751   0.00000  Uiso   1.00
N161   N     0.71426   0.16668   0.25001   0.00000  Uiso   1.00
N162   N     0.95239   0.16665   0.25000   0.00000  Uiso   1.00
O163   O     0.79512   0.22775   0.25000   0.00000  Uiso   1.00
O164   O     0.91853   0.29081   0.19815   0.00000  Uiso   1.00
O165   O     0.87157   0.22774   0.25000   0.00000  Uiso   1.00
O166   O     0.77613   0.16666   0.32681   0.00000  Uiso   1.00
O167   O     0.85258   0.16665   0.32681   0.00000  Uiso   1.00
O168   O     0.79510   0.10559   0.24999   0.00000  Uiso   1.00
O169   O     0.87154   0.10558   0.24999   0.00000  Uiso   1.00
O170   O     0.81409   0.16668   0.17319   0.00000  Uiso   1.00
O171   O     0.89053   0.16667   0.17319   0.00000  Uiso   1.00
O172   O     0.80846   0.21972   0.09686   0.00000  Uiso   1.00
Zn173  Zn    0.78229   0.16667   0.25000   0.00000  Uiso   1.00
Zn174  Zn    0.88438   0.16666   0.25000   0.00000  Uiso   1.00
C175   C     0.16712   0.57999   0.24908   0.00000  Uiso   1.00
C176   C     0.12750   0.51906   0.40758   0.00000  Uiso   1.00
C177   C     0.21051   0.64568   0.22318   0.00000  Uiso   1.00
C178   C     0.14129   0.50574   0.35107   0.00000  Uiso   1.00
C179   C     0.20961   0.35548   0.22406   0.00000  Uiso   1.00
C180   C     0.16682   0.37598   0.24816   0.00000  Uiso   1.00
C181   C     0.12446   0.35444   0.27096   0.00000  Uiso   1.00
C182   C     0.12500   0.64508   0.27086   0.00000  Uiso   1.00
C183   C     0.16781   0.62421   0.24758   0.00000  Uiso   1.00
C184   C     0.31611   0.46951   0.22392   0.00000  Uiso   1.00
C185   C     0.03080   0.46984   0.22296   0.00000  Uiso   1.00
C186   C     0.14860   0.52583   0.48970   0.00000  Uiso   1.00
C187   C     0.01724   0.53093   0.27532   0.00000  Uiso   1.00
C188   C     0.30308   0.53140   0.27424   0.00000  Uiso   1.00
C189   C     0.16662   0.42006   0.24960   0.00000  Uiso   1.00
C190   C     0.19251   0.50117   0.14862   0.00000  Uiso   1.00
C191   C     0.26254   0.49057   0.00471   0.00000  Uiso   1.00
C192   C     0.20760   0.50613   0.09154   0.00000  Uiso   1.00
C193   C     0.07936   0.52211   0.43710   0.00000  Uiso   1.00
C194   C     0.06559   0.52624   0.49236   0.00000  Uiso   1.00
C195   C     0.09958   0.52582   0.01877   0.00000  Uiso   1.00
C196   C     0.16223   0.52624   0.43359   0.00000  Uiso   1.00
C197   C     0.18482   0.52089   0.01382   0.00000  Uiso   1.00
C198   C     0.23116   0.50939   0.48162   0.00000  Uiso   1.00
C199   C     0.24494   0.51869   0.42763   0.00000  Uiso   1.00
C200   C     0.21088   0.53167   0.40556   0.00000  Uiso   1.00
C201   C     0.17687   0.52599   0.06830   0.00000  Uiso   1.00
C202   C     0.24982   0.48787   0.05987   0.00000  Uiso   1.00
Cl203  Cl    0.06854   0.43190   0.18378   0.00000  Uiso   1.00
Cl204  Cl    0.31333   0.46369   0.46597   0.00000  Uiso   1.00
H205   H     0.27255   0.47133   0.07794   0.00000  Uiso   1.00
H206   H     0.08652   0.52349   0.06163   0.00000  Uiso   1.00
H207   H     0.02824   0.52717   0.01514   0.00000  Uiso   1.00
H208   H     0.22286   0.54426   0.36609   0.00000  Uiso   1.00
H209   H     0.15159   0.56580   0.12618   0.00000  Uiso   1.00
H210   H     0.27813   0.64431   0.18329   0.00000  Uiso   1.00
H211   H     0.24195   0.37297   0.20554   0.00000  Uiso   1.00
H212   H     0.09135   0.37057   0.28973   0.00000  Uiso   1.00
H213   H     0.09215   0.62840   0.28972   0.00000  Uiso   1.00
H214   H     0.30345   0.44533   0.20277   0.00000  Uiso   1.00
H215   H     0.02985   0.55574   0.29557   0.00000  Uiso   1.00
H216   H     0.28064   0.55739   0.29206   0.00000  Uiso   1.00
H217   H     0.28175   0.51719   0.40293   0.00000  Uiso   1.00
H218   H     0.05236   0.51994   0.41751   0.00000  Uiso   1.00
N219   N     0.04760   0.50001   0.25001   0.00000  Uiso   1.00
N220   N     0.28573   0.49998   0.25000   0.00000  Uiso   1.00
O221   O     0.12846   0.56108   0.25000   0.00000  Uiso   1.00
O222   O     0.25187   0.62414   0.19815   0.00000  Uiso   1.00
O223   O     0.20490   0.56107   0.25000   0.00000  Uiso   1.00
O224   O     0.10947   0.50000   0.32681   0.00000  Uiso   1.00
O225   O     0.18591   0.49999   0.32681   0.00000  Uiso   1.00
O226   O     0.12843   0.43893   0.24999   0.00000  Uiso   1.00
O227   O     0.20488   0.43892   0.24999   0.00000  Uiso   1.00
O228   O     0.14742   0.50001   0.17319   0.00000  Uiso   1.00
O229   O     0.22387   0.50000   0.17319   0.00000  Uiso   1.00
O230   O     0.14179   0.55305   0.09686   0.00000  Uiso   1.00
Zn231  Zn    0.11562   0.50001   0.25000   0.00000  Uiso   1.00
Zn232  Zn    0.21771   0.49999   0.25000   0.00000  Uiso   1.00
C233   C     0.50046   0.57999   0.24908   0.00000  Uiso   1.00
C234   C     0.46083   0.51906   0.40758   0.00000  Uiso   1.00
C235   C     0.54384   0.64568   0.22318   0.00000  Uiso   1.00
C236   C     0.47462   0.50574   0.35107   0.00000  Uiso   1.00
C237   C     0.54295   0.35548   0.22406   0.00000  Uiso   1.00
C238   C     0.50016   0.37598   0.24816   0.00000  Uiso   1.00
C239   C     0.45780   0.35444   0.27096   0.00000  Uiso   1.00
C240   C     0.45833   0.64508   0.27086   0.00000  Uiso   1.00
C241   C     0.50115   0.62421   0.24758   0.00000  Uiso   1.00
C242   C     0.64944   0.46951   0.22392   0.00000  Uiso   1.00
C243   C     0.36413   0.46984   0.22296   0.00000  Uiso   1.00
C244   C     0.48194   0.52583   0.48970   0.00000  Uiso   1.00
C245   C     0.35057   0.53093   0.27532   0.00000  Uiso   1.00
C246   C     0.63641   0.53140   0.27424   0.00000  Uiso   1.00
C247   C     0.49995   0.42006   0.24960   0.00000  Uiso   1.00
C248   C     0.52585   0.50117   0.14862   0.00000  Uiso   1.00
C249   C     0.59587   0.49057   0.00471   0.00000  Uiso   1.00
C250   C     0.54093   0.50613   0.09154   0.00000  Uiso   1.00
C251   C     0.41269   0.52211   0.43710   0.00000  Uiso   1.00
C252   C     0.39892   0.52624   0.49236   0.00000  Uiso   1.00
C253   C     0.43291   0.52582   0.01877   0.00000  Uiso   1.00
C254   C     0.49557   0.52624   0.43359   0.00000  Uiso   1.00
C255   C     0.51816   0.52089   0.01382   0.00000  Uiso   1.00
C256   C     0.56449   0.50939   0.48162   0.00000  Uiso   1.00
C257   C     0.57827   0.51869   0.42763   0.00000  Uiso   1.00
C258   C     0.54422   0.53167   0.40556   0.00000  Uiso   1.00
C259   C     0.51020   0.52599   0.06830   0.00000  Uiso   1.00
C260   C     0.58315   0.48787   0.05987   0.00000  Uiso   1.00
Cl261  Cl    0.40187   0.43190   0.18378   0.00000  Uiso   1.00
Cl262  Cl    0.64667   0.46369   0.46597   0.00000  Uiso   1.00
H263   H     0.60588   0.47133   0.07794   0.00000  Uiso   1.00
H264   H     0.41986   0.52349   0.06163   0.00000  Uiso   1.00
H265   H     0.36157   0.52717   0.01514   0.00000  Uiso   1.00
H266   H     0.55619   0.54426   0.36609   0.00000  Uiso   1.00
H267   H     0.48492   0.56580   0.12618   0.00000  Uiso   1.00
H268   H     0.61146   0.64431   0.18329   0.00000  Uiso   1.00
H269   H     0.57529   0.37297   0.20554   0.00000  Uiso   1.00
H270   H     0.42469   0.37057   0.28973   0.00000  Uiso   1.00
H271   H     0.42548   0.62840   0.28972   0.00000  Uiso   1.00
H272   H     0.63678   0.44533   0.20277   0.00000  Uiso   1.00
H273   H     0.36318   0.55574   0.29557   0.00000  Uiso   1.00
H274   H     0.61398   0.55739   0.29206   0.00000  Uiso   1.00
H275   H     0.61508   0.51719   0.40293   0.00000  Uiso   1.00
H276   H     0.38570   0.51994   0.41751   0.00000  Uiso   1.00
N277   N     0.38093   0.50001   0.25001   0.00000  Uiso   1.00
N278   N     0.61906   0.49998   0.25000   0.00000  Uiso   1.00
O279   O     0.46179   0.56108   0.25000   0.00000  Uiso   1.00
O280   O     0.58520   0.62414   0.19815   0.00000  Uiso   1.00
O281   O     0.53823   0.56107   0.25000   0.00000  Uiso   1.00
O282   O     0.44280   0.50000   0.32681   0.00000  Uiso   1.00
O283   O     0.51924   0.49999   0.32681   0.00000  Uiso   1.00
O284   O     0.46177   0.43893   0.24999   0.00000  Uiso   1.00
O285   O     0.53821   0.43892   0.24999   0.00000  Uiso   1.00
O286   O     0.48076   0.50001   0.17319   0.00000  Uiso   1.00
O287   O     0.55720   0.50000   0.17319   0.00000  Uiso   1.00
O288   O     0.47512   0.55305   0.09686   0.00000  Uiso   1.00
Zn289  Zn    0.44896   0.50001   0.25000   0.00000  Uiso   1.00
Zn290  Zn    0.55104   0.49999   0.25000   0.00000  Uiso   1.00
C291   C     0.83379   0.57999   0.24908   0.00000  Uiso   1.00
C292   C     0.79417   0.51906   0.40758   0.00000  Uiso   1.00
C293   C     0.87718   0.64568   0.22318   0.00000  Uiso   1.00
C294   C     0.80796   0.50574   0.35107   0.00000  Uiso   1.00
C295   C     0.87628   0.35548   0.22406   0.00000  Uiso   1.00
C296   C     0.83349   0.37598   0.24816   0.00000  Uiso   1.00
C297   C     0.79113   0.35444   0.27096   0.00000  Uiso   1.00
C298   C     0.79166   0.64508   0.27086   0.00000  Uiso   1.00
C299   C     0.83448   0.62421   0.24758   0.00000  Uiso   1.00
C300   C     0.98278   0.46951   0.22392   0.00000  Uiso   1.00
C301   C     0.69747   0.46984   0.22296   0.00000  Uiso   1.00
C302   C     0.81527   0.52583   0.48970   0.00000  Uiso   1.00
C303   C     0.68391   0.53093   0.27532   0.00000  Uiso   1.00
C304   C     0.96974   0.53140   0.27424   0.00000  Uiso   1.00
C305   C     0.83328   0.42006   0.24960   0.00000  Uiso   1.00
C306   C     0.85918   0.50117   0.14862   0.00000  Uiso   1.00
C307   C     0.92920   0.49057   0.00471   0.00000  Uiso   1.00
C308   C     0.87427   0.50613   0.09154   0.00000  Uiso   1.00
C309   C     0.74603   0.52211   0.43710   0.00000  Uiso   1.00
C310   C     0.73226   0.52624   0.49236   0.00000  Uiso   1.00
C311   C     0.76624   0.52582   0.01877   0.00000  Uiso   1.00
C312   C     0.82890   0.52624   0.43359   0.00000  Uiso   1.00
C313   C     0.85149   0.52089   0.01382   0.00000  Uiso   1.00
C314   C     0.89783   0.50939   0.48162   0.00000  Uiso   1.00
C315   C     0.91160   0.51869   0.42763   0.00000  Uiso   1.00
C316   C     0.87755   0.53167   0.40556   0.00000  Uiso   1.00
C317   C     0.84354   0.52599   0.06830   0.00000  Uiso   1.00
C318   C     0.91649   0.48787   0.05987   0.00000  Uiso   1.00
Cl319  Cl    0.73520   0.43190   0.18378   0.00000  Uiso   1.00
Cl320  Cl    0.98000   0.46369   0.46597   0.00000  Uiso   1.00
H321   H     0.93921   0.47133   0.07794   0.00000  Uiso   1.00
H322   H     0.75319   0.52349   0.06163   0.00000  Uiso   1.00
H323   H     0.69491   0.52717   0.01514   0.00000  Uiso   1.00
H324   H     0.88953   0.54426   0.36609   0.00000  Uiso   1.00
H325   H     0.81825   0.56580   0.12618   0.00000  Uiso   1.00
H326   H     0.94480   0.64431   0.18329   0.00000  Uiso   1.00
H327   H     0.90862   0.37297   0.20554   0.00000  Uiso   1.00
H328   H     0.75802   0.37057   0.28973   0.00000  Uiso   1.00
H329   H     0.75882   0.62840   0.28972   0.00000  Uiso   1.00
H330   H     0.97012   0.44533   0.20277   0.00000  Uiso   1.00
H331   H     0.69652   0.55574   0.29557   0.00000  Uiso   1.00
H332   H     0.94731   0.55739   0.29206   0.00000  Uiso   1.00
H333   H     0.94842   0.51719   0.40293   0.00000  Uiso   1.00
H334   H     0.71903   0.51994   0.41751   0.00000  Uiso   1.00
N335   N     0.71426   0.50001   0.25001   0.00000  Uiso   1.00
N336   N     0.95239   0.49998   0.25000   0.00000  Uiso   1.00
O337   O     0.79512   0.56108   0.25000   0.00000  Uiso   1.00
O338   O     0.91853   0.62414   0.19815   0.00000  Uiso   1.00
O339   O     0.87157   0.56107   0.25000   0.00000  Uiso   1.00
O340   O     0.77613   0.50000   0.32681   0.00000  Uiso   1.00
O341   O     0.85258   0.49999   0.32681   0.00000  Uiso   1.00
O342   O     0.79510   0.43893   0.24999   0.00000  Uiso   1.00
O343   O     0.87154   0.43892   0.24999   0.00000  Uiso   1.00
O344   O     0.81409   0.50001   0.17319   0.00000  Uiso   1.00
O345   O     0.89053   0.50000   0.17319   0.00000  Uiso   1.00
O346   O     0.80846   0.55305   0.09686   0.00000  Uiso   1.00
Zn347  Zn    0.78229   0.50001   0.25000   0.00000  Uiso   1.00
Zn348  Zn    0.88438   0.49999   0.25000   0.00000  Uiso   1.00
C349   C     0.16712   0.91332   0.24908   0.00000  Uiso   1.00
C350   C     0.12750   0.85240   0.40758   0.00000  Uiso   1.00
C351   C     0.21051   0.97901   0.22318   0.00000  Uiso   1.00
C352   C     0.14129   0.83907   0.35107   0.00000  Uiso   1.00
C353   C     0.20961   0.68881   0.22406   0.00000  Uiso   1.00
C354   C     0.16682   0.70932   0.24816   0.00000  Uiso   1.00
C355   C     0.12446   0.68777   0.27096   0.00000  Uiso   1.00
C356   C     0.12500   0.97842   0.27086   0.00000  Uiso   1.00
C357   C     0.16781   0.95755   0.24758   0.00000  Uiso   1.00
C358   C     0.31611   0.80284   0.22392   0.00000  Uiso   1.00
C359   C     0.03080   0.80318   0.22296   0.00000  Uiso   1.00
C360   C     0.14860   0.85917   0.48970   0.00000  Uiso   1.00
C361   C     0.01724   0.86426   0.27532   0.00000  Uiso   1.00
C362   C     0.30308   0.86474   0.27424   0.00000  Uiso   1.00
C363   C     0.16662   0.75340   0.24960   0.00000  Uiso   1.00
C364   C     0.19251   0.83450   0.14862   0.00000  Uiso   1.00
C365   C     0.26254   0.82390   0.00471   0.00000  Uiso   1.00
C366   C     0.20760   0.83947   0.09154   0.00000  Uiso   1.00
C367   C     0.07936   0.85544   0.43710   0.00000  Uiso   1.00
C368   C     0.06559   0.85957   0.49236   0.00000  Uiso   1.00
C369   C     0.09958   0.85915   0.01877   0.00000  Uiso   1.00
C370   C     0.16223   0.85957   0.43359   0.00000  Uiso   1.00
C371   C     0.18482   0.85422   0.01382   0.00000  Uiso   1.00
C372   C     0.23116   0.84273   0.48162   0.00000  Uiso   1.00
C373   C     0.24494   0.85203   0.42763   0.00000  Uiso   1.00
C374   C     0.21088   0.86501   0.40556   0.00000  Uiso   1.00
C375   C     0.17687   0.85932   0.06830   0.00000  Uiso   1.00
C376   C     0.24982   0.82120   0.05987   0.00000  Uiso   1.00
Cl377  Cl    0.06854   0.76523   0.18378   0.00000  Uiso   1.00
Cl378  Cl    0.31333   0.79703   0.46597   0.00000  Uiso   1.00
H379   H     0.27255   0.80466   0.07794   0.00000  Uiso   1.00
H380   H     0.08652   0.85683   0.06163   0.00000  Uiso   1.00
H381   H     0.02824   0.86050   0.01514   0.00000  Uiso   1.00
H382   H     0.22286   0.87760   0.36609   0.00000  Uiso   1.00
H383   H     0.15159   0.89913   0.12618   0.00000  Uiso   1.00
H384   H     0.27813   0.97765   0.18329   0.00000  Uiso   1.00
H385   H     0.24195   0.70630   0.20554   0.00000  Uiso   1.00
H386   H     0.09135   0.70391   0.28973   0.00000  Uiso   1.00
H387   H     0.09215   0.96174   0.28972   0.00000  Uiso   1.00
H388   H     0.30345   0.77867   0.20277   0.00000  Uiso   1.00
H389   H     0.02985   0.88908   0.29557   0.00000  Uiso   1.00
H390   H     0.28064   0.89073   0.29206   0.00000  Uiso   1.00
H391   H     0.28175   0.85052   0.40293   0.00000  Uiso   1.00
H392   H     0.05236   0.85328   0.41751   0.00000  Uiso   1.00
N393   N     0.04760   0.83334   0.25001   0.00000  Uiso   1.00
N394   N     0.28573   0.83331   0.25000   0.00000  Uiso   1.00
O395   O     0.12846   0.89442   0.25000   0.00000  Uiso   1.00
O396   O     0.25187   0.95748   0.19815   0.00000  Uiso   1.00
O397   O     0.20490   0.89441   0.25000   0.00000  Uiso   1.00
O398   O     0.10947   0.83333   0.32681   0.00000  Uiso   1.00
O399   O     0.18591   0.83332   0.32681   0.00000  Uiso   1.00
O400   O     0.12843   0.77226   0.24999   0.00000  Uiso   1.00
O401   O     0.20488   0.77225   0.24999   0.00000  Uiso   1.00
O402   O     0.14742   0.83335   0.17319   0.00000  Uiso   1.00
O403   O     0.22387   0.83334   0.17319   0.00000  Uiso   1.00
O404   O     0.14179   0.88638   0.09686   0.00000  Uiso   1.00
Zn405  Zn    0.11562   0.83334   0.25000   0.00000  Uiso   1.00
Zn406  Zn    0.21771   0.83333   0.25000   0.00000  Uiso   1.00
C407   C     0.50046   0.91332   0.24908   0.00000  Uiso   1.00
C408   C     0.46083   0.85240   0.40758   0.00000  Uiso   1.00
C409   C     0.54384   0.97901   0.22318   0.00000  Uiso   1.00
C410   C     0.47462   0.83907   0.35107   0.00000  Uiso   1.00
C411   C     0.54295   0.68881   0.22406   0.00000  Uiso   1.00
C412   C     0.50016   0.70932   0.24816   0.00000  Uiso   1.00
C413   C     0.45780   0.68777   0.27096   0.00000  Uiso   1.00
C414   C     0.45833   0.97842   0.27086   0.00000  Uiso   1.00
C415   C     0.50115   0.95755   0.24758   0.00000  Uiso   1.00
C416   C     0.64944   0.80284   0.22392   0.00000  Uiso   1.00
C417   C     0.36413   0.80318   0.22296   0.00000  Uiso   1.00
C418   C     0.48194   0.85917   0.48970   0.00000  Uiso   1.00
C419   C     0.35057   0.86426   0.27532   0.00000  Uiso   1.00
C420   C     0.63641   0.86474   0.27424   0.00000  Uiso   1.00
C421   C     0.49995   0.75340   0.24960   0.00000  Uiso   1.00
C422   C     0.52585   0.83450   0.14862   0.00000  Uiso   1.00
C423   C     0.59587   0.82390   0.00471   0.00000  Uiso   1.00
C424   C     0.54093   0.83947   0.09154   0.00000  Uiso   1.00
C425   C     0.41269   0.85544   0.43710   0.00000  Uiso   1.00
C426   C     0.39892   0.85957   0.49236   0.00000  Uiso   1.00
C427   C     0.43291   0.85915   0.01877   0.00000  Uiso   1.00
C428   C     0.49557   0.85957   0.43359   0.00000  Uiso   1.00
C429   C     0.51816   0.85422   0.01382   0.00000  Uiso   1.00
C430   C     0.56449   0.84273   0.48162   0.00000  Uiso   1.00
C431   C     0.57827   0.85203   0.42763   0.00000  Uiso   1.00
C432   C     0.54422   0.86501   0.40556   0.00000  Uiso   1.00
C433   C     0.51020   0.85932   0.06830   0.00000  Uiso   1.00
C434   C     0.58315   0.82120   0.05987   0.00000  Uiso   1.00
Cl435  Cl    0.40187   0.76523   0.18378   0.00000  Uiso   1.00
Cl436  Cl    0.64667   0.79703   0.46597   0.00000  Uiso   1.00
H437   H     0.60588   0.80466   0.07794   0.00000  Uiso   1.00
H438   H     0.41986   0.85683   0.06163   0.00000  Uiso   1.00
H439   H     0.36157   0.86050   0.01514   0.00000  Uiso   1.00
H440   H     0.55619   0.87760   0.36609   0.00000  Uiso   1.00
H441   H     0.48492   0.89913   0.12618   0.00000  Uiso   1.00
H442   H     0.61146   0.97765   0.18329   0.00000  Uiso   1.00
H443   H     0.57529   0.70630   0.20554   0.00000  Uiso   1.00
H444   H     0.42469   0.70391   0.28973   0.00000  Uiso   1.00
H445   H     0.42548   0.96174   0.28972   0.00000  Uiso   1.00
H446   H     0.63678   0.77867   0.20277   0.00000  Uiso   1.00
H447   H     0.36318   0.88908   0.29557   0.00000  Uiso   1.00
H448   H     0.61398   0.89073   0.29206   0.00000  Uiso   1.00
H449   H     0.61508   0.85052   0.40293   0.00000  Uiso   1.00
H450   H     0.38570   0.85328   0.41751   0.00000  Uiso   1.00
N451   N     0.38093   0.83334   0.25001   0.00000  Uiso   1.00
N452   N     0.61906   0.83331   0.25000   0.00000  Uiso   1.00
O453   O     0.46179   0.89442   0.25000   0.00000  Uiso   1.00
O454   O     0.58520   0.95748   0.19815   0.00000  Uiso   1.00
O455   O     0.53823   0.89441   0.25000   0.00000  Uiso   1.00
O456   O     0.44280   0.83333   0.32681   0.00000  Uiso   1.00
O457   O     0.51924   0.83332   0.32681   0.00000  Uiso   1.00
O458   O     0.46177   0.77226   0.24999   0.00000  Uiso   1.00
O459   O     0.53821   0.77225   0.24999   0.00000  Uiso   1.00
O460   O     0.48076   0.83335   0.17319   0.00000  Uiso   1.00
O461   O     0.55720   0.83334   0.17319   0.00000  Uiso   1.00
O462   O     0.47512   0.88638   0.09686   0.00000  Uiso   1.00
Zn463  Zn    0.44896   0.83334   0.25000   0.00000  Uiso   1.00
Zn464  Zn    0.55104   0.83333   0.25000   0.00000  Uiso   1.00
C465   C     0.83379   0.91332   0.24908   0.00000  Uiso   1.00
C466   C     0.79417   0.85240   0.40758   0.00000  Uiso   1.00
C467   C     0.87718   0.97901   0.22318   0.00000  Uiso   1.00
C468   C     0.80796   0.83907   0.35107   0.00000  Uiso   1.00
C469   C     0.87628   0.68881   0.22406   0.00000  Uiso   1.00
C470   C     0.83349   0.70932   0.24816   0.00000  Uiso   1.00
C471   C     0.79113   0.68777   0.27096   0.00000  Uiso   1.00
C472   C     0.79166   0.97842   0.27086   0.00000  Uiso   1.00
C473   C     0.83448   0.95755   0.24758   0.00000  Uiso   1.00
C474   C     0.98278   0.80284   0.22392   0.00000  Uiso   1.00
C475   C     0.69747   0.80318   0.22296   0.00000  Uiso   1.00
C476   C     0.81527   0.85917   0.48970   0.00000  Uiso   1.00
C477   C     0.68391   0.86426   0.27532   0.00000  Uiso   1.00
C478   C     0.96974   0.86474   0.27424   0.00000  Uiso   1.00
C479   C     0.83328   0.75340   0.24960   0.00000  Uiso   1.00
C480   C     0.85918   0.83450   0.14862   0.00000  Uiso   1.00
C481   C     0.92920   0.82390   0.00471   0.00000  Uiso   1.00
C482   C     0.87427   0.83947   0.09154   0.00000  Uiso   1.00
C483   C     0.74603   0.85544   0.43710   0.00000  Uiso   1.00
C484   C     0.73226   0.85957   0.49236   0.00000  Uiso   1.00
C485   C     0.76624   0.85915   0.01877   0.00000  Uiso   1.00
C486   C     0.82890   0.85957   0.43359   0.00000  Uiso   1.00
C487   C     0.85149   0.85422   0.01382   0.00000  Uiso   1.00
C488   C     0.89783   0.84273   0.48162   0.00000  Uiso   1.00
C489   C     0.91160   0.85203   0.42763   0.00000  Uiso   1.00
C490   C     0.87755   0.86501   0.40556   0.00000  Uiso   1.00
C491   C     0.84354   0.85932   0.06830   0.00000  Uiso   1.00
C492   C     0.91649   0.82120   0.05987   0.00000  Uiso   1.00
Cl493  Cl    0.73520   0.76523   0.18378   0.00000  Uiso   1.00
Cl494  Cl    0.98000   0.79703   0.46597   0.00000  Uiso   1.00
H495   H     0.93921   0.80466   0.07794   0.00000  Uiso   1.00
H496   H     0.75319   0.85683   0.06163   0.00000  Uiso   1.00
H497   H     0.69491   0.86050   0.01514   0.00000  Uiso   1.00
H498   H     0.88953   0.87760   0.36609   0.00000  Uiso   1.00
H499   H     0.81825   0.89913   0.12618   0.00000  Uiso   1.00
H500   H     0.94480   0.97765   0.18329   0.00000  Uiso   1.00
H501   H     0.90862   0.70630   0.20554   0.00000  Uiso   1.00
H502   H     0.75802   0.70391   0.28973   0.00000  Uiso   1.00
H503   H     0.75882   0.96174   0.28972   0.00000  Uiso   1.00
H504   H     0.97012   0.77867   0.20277   0.00000  Uiso   1.00
H505   H     0.69652   0.88908   0.29557   0.00000  Uiso   1.00
H506   H     0.94731   0.89073   0.29206   0.00000  Uiso   1.00
H507   H     0.94842   0.85052   0.40293   0.00000  Uiso   1.00
H508   H     0.71903   0.85328   0.41751   0.00000  Uiso   1.00
N509   N     0.71426   0.83334   0.25001   0.00000  Uiso   1.00
N510   N     0.95239   0.83331   0.25000   0.00000  Uiso   1.00
O511   O     0.79512   0.89442   0.25000   0.00000  Uiso   1.00
O512   O     0.91853   0.95748   0.19815   0.00000  Uiso   1.00
O513   O     0.87157   0.89441   0.25000   0.00000  Uiso   1.00
O514   O     0.77613   0.83333   0.32681   0.00000  Uiso   1.00
O515   O     0.85258   0.83332   0.32681   0.00000  Uiso   1.00
O516   O     0.79510   0.77226   0.24999   0.00000  Uiso   1.00
O517   O     0.87154   0.77225   0.24999   0.00000  Uiso   1.00
O518   O     0.81409   0.83335   0.17319   0.00000  Uiso   1.00
O519   O     0.89053   0.83334   0.17319   0.00000  Uiso   1.00
O520   O     0.80846   0.88638   0.09686   0.00000  Uiso   1.00
Zn521  Zn    0.78229   0.83334   0.25000   0.00000  Uiso   1.00
Zn522  Zn    0.88438   0.83333   0.25000   0.00000  Uiso   1.00
C523   C     0.16712   0.24665   0.74908   0.00000  Uiso   1.00
C524   C     0.12750   0.18573   0.90758   0.00000  Uiso   1.00
C525   C     0.21051   0.31234   0.72318   0.00000  Uiso   1.00
C526   C     0.14129   0.17241   0.85107   0.00000  Uiso   1.00
C527   C     0.20961   0.02214   0.72406   0.00000  Uiso   1.00
C528   C     0.16682   0.04265   0.74816   0.00000  Uiso   1.00
C529   C     0.12446   0.02111   0.77096   0.00000  Uiso   1.00
C530   C     0.12500   0.31175   0.77086   0.00000  Uiso   1.00
C531   C     0.16781   0.29088   0.74758   0.00000  Uiso   1.00
C532   C     0.31611   0.13617   0.72392   0.00000  Uiso   1.00
C533   C     0.03080   0.13651   0.72296   0.00000  Uiso   1.00
C534   C     0.14860   0.19250   0.98970   0.00000  Uiso   1.00
C535   C     0.01724   0.19759   0.77532   0.00000  Uiso   1.00
C536   C     0.30308   0.19807   0.77424   0.00000  Uiso   1.00
C537   C     0.16662   0.08673   0.74960   0.00000  Uiso   1.00
C538   C     0.19251   0.16784   0.64862   0.00000  Uiso   1.00
C539   C     0.26254   0.15724   0.50471   0.00000  Uiso   1.00
C540   C     0.20760   0.17280   0.59154   0.00000  Uiso   1.00
C541   C     0.07936   0.18877   0.93710   0.00000  Uiso   1.00
C542   C     0.06559   0.19290   0.99236   0.00000  Uiso   1.00
C543   C     0.09958   0.19249   0.51877   0.00000  Uiso   1.00
C544   C     0.16223   0.19290   0.93359   0.00000  Uiso   1.00
C545   C     0.18482   0.18756   0.51382   0.00000  Uiso   1.00
C546   C     0.23116   0.17606   0.98162   0.00000  Uiso   1.00
C547   C     0.24494   0.18536   0.92763   0.00000  Uiso   1.00
C548   C     0.21088   0.19834   0.90556   0.00000  Uiso   1.00
C549   C     0.17687   0.19266   0.56830   0.00000  Uiso   1.00
C550   C     0.24982   0.15453   0.55987   0.00000  Uiso   1.00
Cl551  Cl    0.06854   0.09856   0.68378   0.00000  Uiso   1.00
Cl552  Cl    0.31333   0.13036   0.96597   0.00000  Uiso   1.00
H553   H     0.27255   0.13799   0.57794   0.00000  Uiso   1.00
H554   H     0.08652   0.19016   0.56163   0.00000  Uiso   1.00
H555   H     0.02824   0.19383   0.51514   0.00000  Uiso   1.00
H556   H     0.22286   0.21093   0.86609   0.00000  Uiso   1.00
H557   H     0.15159   0.23247   0.62618   0.00000  Uiso   1.00
H558   H     0.27813   0.31098   0.68329   0.00000  Uiso   1.00
H559   H     0.24195   0.03964   0.70554   0.00000  Uiso   1.00
H560   H     0.09135   0.03724   0.78973   0.00000  Uiso   1.00
H561   H     0.09215   0.29507   0.78972   0.00000  Uiso   1.00
H562   H     0.30345   0.11200   0.70277   0.00000  Uiso   1.00
H563   H     0.02985   0.22241   0.79557   0.00000  Uiso   1.00
H564   H     0.28064   0.22406   0.79206   0.00000  Uiso   1.00
H565   H     0.28175   0.18386   0.90293   0.00000  Uiso   1.00
H566   H     0.05236   0.18661   0.91751   0.00000  Uiso   1.00
N567   N     0.04760   0.16668   0.75001   0.00000  Uiso   1.00
N568   N     0.28573   0.16665   0.75000   0.00000  Uiso   1.00
O569   O     0.12846   0.22775   0.75000   0.00000  Uiso   1.00
O570   O     0.25187   0.29081   0.69815   0.00000  Uiso   1.00
O571   O     0.20490   0.22774   0.75000   0.00000  Uiso   1.00
O572   O     0.10947   0.16666   0.82681   0.00000  Uiso   1.00
O573   O     0.18591   0.16665   0.82681   0.00000  Uiso   1.00
O574   O     0.12843   0.10559   0.74999   0.00000  Uiso   1.00
O575   O     0.20488   0.10558   0.74999   0.00000  Uiso   1.00
O576   O     0.14742   0.16668   0.67319   0.00000  Uiso   1.00
O577   O     0.22387   0.16667   0.67319   0.00000  Uiso   1.00
O578   O     0.14179   0.21972   0.59686   0.00000  Uiso   1.00
Zn579  Zn    0.11562   0.16667   0.75000   0.00000  Uiso   1.00
Zn580  Zn    0.21771   0.16666   0.75000   0.00000  Uiso   1.00
C581   C     0.50046   0.24665   0.74908   0.00000  Uiso   1.00
C582   C     0.46083   0.18573   0.90758   0.00000  Uiso   1.00
C583   C     0.54384   0.31234   0.72318   0.00000  Uiso   1.00
C584   C     0.47462   0.17241   0.85107   0.00000  Uiso   1.00
C585   C     0.54295   0.02214   0.72406   0.00000  Uiso   1.00
C586   C     0.50016   0.04265   0.74816   0.00000  Uiso   1.00
C587   C     0.45780   0.02111   0.77096   0.00000  Uiso   1.00
C588   C     0.45833   0.31175   0.77086   0.00000  Uiso   1.00
C589   C     0.50115   0.29088   0.74758   0.00000  Uiso   1.00
C590   C     0.64944   0.13617   0.72392   0.00000  Uiso   1.00
C591   C     0.36413   0.13651   0.72296   0.00000  Uiso   1.00
C592   C     0.48194   0.19250   0.98970   0.00000  Uiso   1.00
C593   C     0.35057   0.19759   0.77532   0.00000  Uiso   1.00
C594   C     0.63641   0.19807   0.77424   0.00000  Uiso   1.00
C595   C     0.49995   0.08673   0.74960   0.00000  Uiso   1.00
C596   C     0.52585   0.16784   0.64862   0.00000  Uiso   1.00
C597   C     0.59587   0.15724   0.50471   0.00000  Uiso   1.00
C598   C     0.54093   0.17280   0.59154   0.00000  Uiso   1.00
C599   C     0.41269   0.18877   0.93710   0.00000  Uiso   1.00
C600   C     0.39892   0.19290   0.99236   0.00000  Uiso   1.00
C601   C     0.43291   0.19249   0.51877   0.00000  Uiso   1.00
C602   C     0.49557   0.19290   0.93359   0.00000  Uiso   1.00
C603   C     0.51816   0.18756   0.51382   0.00000  Uiso   1.00
C604   C     0.56449   0.17606   0.98162   0.00000  Uiso   1.00
C605   C     0.57827   0.18536   0.92763   0.00000  Uiso   1.00
C606   C     0.54422   0.19834   0.90556   0.00000  Uiso   1.00
C607   C     0.51020   0.19266   0.56830   0.00000  Uiso   1.00
C608   C     0.58315   0.15453   0.55987   0.00000  Uiso   1.00
Cl609  Cl    0.40187   0.09856   0.68378   0.00000  Uiso   1.00
Cl610  Cl    0.64667   0.13036   0.96597   0.00000  Uiso   1.00
H611   H     0.60588   0.13799   0.57794   0.00000  Uiso   1.00
H612   H     0.41986   0.19016   0.56163   0.00000  Uiso   1.00
H613   H     0.36157   0.19383   0.51514   0.00000  Uiso   1.00
H614   H     0.55619   0.21093   0.86609   0.00000  Uiso   1.00
H615   H     0.48492   0.23247   0.62618   0.00000  Uiso   1.00
H616   H     0.61146   0.31098   0.68329   0.00000  Uiso   1.00
H617   H     0.57529   0.03964   0.70554   0.00000  Uiso   1.00
H618   H     0.42469   0.03724   0.78973   0.00000  Uiso   1.00
H619   H     0.42548   0.29507   0.78972   0.00000  Uiso   1.00
H620   H     0.63678   0.11200   0.70277   0.00000  Uiso   1.00
H621   H     0.36318   0.22241   0.79557   0.00000  Uiso   1.00
H622   H     0.61398   0.22406   0.79206   0.00000  Uiso   1.00
H623   H     0.61508   0.18386   0.90293   0.00000  Uiso   1.00
H624   H     0.38570   0.18661   0.91751   0.00000  Uiso   1.00
N625   N     0.38093   0.16668   0.75001   0.00000  Uiso   1.00
N626   N     0.61906   0.16665   0.75000   0.00000  Uiso   1.00
O627   O     0.46179   0.22775   0.75000   0.00000  Uiso   1.00
O628   O     0.58520   0.29081   0.69815   0.00000  Uiso   1.00
O629   O     0.53823   0.22774   0.75000   0.00000  Uiso   1.00
O630   O     0.44280   0.16666   0.82681   0.00000  Uiso   1.00
O631   O     0.51924   0.16665   0.82681   0.00000  Uiso   1.00
O632   O     0.46177   0.10559   0.74999   0.00000  Uiso   1.00
O633   O     0.53821   0.10558   0.74999   0.00000  Uiso   1.00
O634   O     0.48076   0.16668   0.67319   0.00000  Uiso   1.00
O635   O     0.55720   0.16667   0.67319   0.00000  Uiso   1.00
O636   O     0.47512   0.21972   0.59686   0.00000  Uiso   1.00
Zn637  Zn    0.44896   0.16667   0.75000   0.00000  Uiso   1.00
Zn638  Zn    0.55104   0.16666   0.75000   0.00000  Uiso   1.00
C639   C     0.83379   0.24665   0.74908   0.00000  Uiso   1.00
C640   C     0.79417   0.18573   0.90758   0.00000  Uiso   1.00
C641   C     0.87718   0.31234   0.72318   0.00000  Uiso   1.00
C642   C     0.80796   0.17241   0.85107   0.00000  Uiso   1.00
C643   C     0.87628   0.02214   0.72406   0.00000  Uiso   1.00
C644   C     0.83349   0.04265   0.74816   0.00000  Uiso   1.00
C645   C     0.79113   0.02111   0.77096   0.00000  Uiso   1.00
C646   C     0.79166   0.31175   0.77086   0.00000  Uiso   1.00
C647   C     0.83448   0.29088   0.74758   0.00000  Uiso   1.00
C648   C     0.98278   0.13617   0.72392   0.00000  Uiso   1.00
C649   C     0.69747   0.13651   0.72296   0.00000  Uiso   1.00
C650   C     0.81527   0.19250   0.98970   0.00000  Uiso   1.00
C651   C     0.68391   0.19759   0.77532   0.00000  Uiso   1.00
C652   C     0.96974   0.19807   0.77424   0.00000  Uiso   1.00
C653   C     0.83328   0.08673   0.74960   0.00000  Uiso   1.00
C654   C     0.85918   0.16784   0.64862   0.00000  Uiso   1.00
C655   C     0.92920   0.15724   0.50471   0.00000  Uiso   1.00
C656   C     0.87427   0.17280   0.59154   0.00000  Uiso   1.00
C657   C     0.74603   0.18877   0.93710   0.00000  Uiso   1.00
C658   C     0.73226   0.19290   0.99236   0.00000  Uiso   1.00
C659   C     0.76624   0.19249   0.51877   0.00000  Uiso   1.00
C660   C     0.82890   0.19290   0.93359   0.00000  Uiso   1.00
C661   C     0.85149   0.18756   0.51382   0.00000  Uiso   1.00
C662   C     0.89783   0.17606   0.98162   0.00000  Uiso   1.00
C663   C     0.91160   0.18536   0.92763   0.00000  Uiso   1.00
C664   C     0.87755   0.19834   0.90556   0.00000  Uiso   1.00
C665   C     0.84354   0.19266   0.56830   0.00000  Uiso   1.00
C666   C     0.91649   0.15453   0.55987   0.00000  Uiso   1.00
Cl667  Cl    0.73520   0.09856   0.68378   0.00000  Uiso   1.00
Cl668  Cl    0.98000   0.13036   0.96597   0.00000  Uiso   1.00
H669   H     0.93921   0.13799   0.57794   0.00000  Uiso   1.00
H670   H     0.75319   0.19016   0.56163   0.00000  Uiso   1.00
H671   H     0.69491   0.19383   0.51514   0.00000  Uiso   1.00
H672   H     0.88953   0.21093   0.86609   0.00000  Uiso   1.00
H673   H     0.81825   0.23247   0.62618   0.00000  Uiso   1.00
H674   H     0.94480   0.31098   0.68329   0.00000  Uiso   1.00
H675   H     0.90862   0.03964   0.70554   0.00000  Uiso   1.00
H676   H     0.75802   0.03724   0.78973   0.00000  Uiso   1.00
H677   H     0.75882   0.29507   0.78972   0.00000  Uiso   1.00
H678   H     0.97012   0.11200   0.70277   0.00000  Uiso   1.00
H679   H     0.69652   0.22241   0.79557   0.00000  Uiso   1.00
H680   H     0.94731   0.22406   0.79206   0.00000  Uiso   1.00
H681   H     0.94842   0.18386   0.90293   0.00000  Uiso   1.00
H682   H     0.71903   0.18661   0.91751   0.00000  Uiso   1.00
N683   N     0.71426   0.16668   0.75001   0.00000  Uiso   1.00
N684   N     0.95239   0.16665   0.75000   0.00000  Uiso   1.00
O685   O     0.79512   0.22775   0.75000   0.00000  Uiso   1.00
O686   O     0.91853   0.29081   0.69815   0.00000  Uiso   1.00
O687   O     0.87157   0.22774   0.75000   0.00000  Uiso   1.00
O688   O     0.77613   0.16666   0.82681   0.00000  Uiso   1.00
O689   O     0.85258   0.16665   0.82681   0.00000  Uiso   1.00
O690   O     0.79510   0.10559   0.74999   0.00000  Uiso   1.00
O691   O     0.87154   0.10558   0.74999   0.00000  Uiso   1.00
O692   O     0.81409   0.16668   0.67319   0.00000  Uiso   1.00
O693   O     0.89053   0.16667   0.67319   0.00000  Uiso   1.00
O694   O     0.80846   0.21972   0.59686   0.00000  Uiso   1.00
Zn695  Zn    0.78229   0.16667   0.75000   0.00000  Uiso   1.00
Zn696  Zn    0.88438   0.16666   0.75000   0.00000  Uiso   1.00
C697   C     0.16712   0.57999   0.74908   0.00000  Uiso   1.00
C698   C     0.12750   0.51906   0.90758   0.00000  Uiso   1.00
C699   C     0.21051   0.64568   0.72318   0.00000  Uiso   1.00
C700   C     0.14129   0.50574   0.85107   0.00000  Uiso   1.00
C701   C     0.20961   0.35548   0.72406   0.00000  Uiso   1.00
C702   C     0.16682   0.37598   0.74816   0.00000  Uiso   1.00
C703   C     0.12446   0.35444   0.77096   0.00000  Uiso   1.00
C704   C     0.12500   0.64508   0.77086   0.00000  Uiso   1.00
C705   C     0.16781   0.62421   0.74758   0.00000  Uiso   1.00
C706   C     0.31611   0.46951   0.72392   0.00000  Uiso   1.00
C707   C     0.03080   0.46984   0.72296   0.00000  Uiso   1.00
C708   C     0.14860   0.52583   0.98970   0.00000  Uiso   1.00
C709   C     0.01724   0.53093   0.77532   0.00000  Uiso   1.00
C710   C     0.30308   0.53140   0.77424   0.00000  Uiso   1.00
C711   C     0.16662   0.42006   0.74960   0.00000  Uiso   1.00
C712   C     0.19251   0.50117   0.64862   0.00000  Uiso   1.00
C713   C     0.26254   0.49057   0.50471   0.00000  Uiso   1.00
C714   C     0.20760   0.50613   0.59154   0.00000  Uiso   1.00
C715   C     0.07936   0.52211   0.93710   0.00000  Uiso   1.00
C716   C     0.06559   0.52624   0.99236   0.00000  Uiso   1.00
C717   C     0.09958   0.52582   0.51877   0.00000  Uiso   1.00
C718   C     0.16223   0.52624   0.93359   0.00000  Uiso   1.00
C719   C     0.18482   0.52089   0.51382   0.00000  Uiso   1.00
C720   C     0.23116   0.50939   0.98162   0.00000  Uiso   1.00
C721   C     0.24494   0.51869   0.92763   0.00000  Uiso   1.00
C722   C     0.21088   0.53167   0.90556   0.00000  Uiso   1.00
C723   C     0.17687   0.52599   0.56830   0.00000  Uiso   1.00
C724   C     0.24982   0.48787   0.55987   0.00000  Uiso   1.00
Cl725  Cl    0.06854   0.43190   0.68378   0.00000  Uiso   1.00
Cl726  Cl    0.31333   0.46369   0.96597   0.00000  Uiso   1.00
H727   H     0.27255   0.47133   0.57794   0.00000  Uiso   1.00
H728   H     0.08652   0.52349   0.56163   0.00000  Uiso   1.00
H729   H     0.02824   0.52717   0.51514   0.00000  Uiso   1.00
H730   H     0.22286   0.54426   0.86609   0.00000  Uiso   1.00
H731   H     0.15159   0.56580   0.62618   0.00000  Uiso   1.00
H732   H     0.27813   0.64431   0.68329   0.00000  Uiso   1.00
H733   H     0.24195   0.37297   0.70554   0.00000  Uiso   1.00
H734   H     0.09135   0.37057   0.78973   0.00000  Uiso   1.00
H735   H     0.09215   0.62840   0.78972   0.00000  Uiso   1.00
H736   H     0.30345   0.44533   0.70277   0.00000  Uiso   1.00
H737   H     0.02985   0.55574   0.79557   0.00000  Uiso   1.00
H738   H     0.28064   0.55739   0.79206   0.00000  Uiso   1.00
H739   H     0.28175   0.51719   0.90293   0.00000  Uiso   1.00
H740   H     0.05236   0.51994   0.91751   0.00000  Uiso   1.00
N741   N     0.04760   0.50001   0.75001   0.00000  Uiso   1.00
N742   N     0.28573   0.49998   0.75000   0.00000  Uiso   1.00
O743   O     0.12846   0.56108   0.75000   0.00000  Uiso   1.00
O744   O     0.25187   0.62414   0.69815   0.00000  Uiso   1.00
O745   O     0.20490   0.56107   0.75000   0.00000  Uiso   1.00
O746   O     0.10947   0.50000   0.82681   0.00000  Uiso   1.00
O747   O     0.18591   0.49999   0.82681   0.00000  Uiso   1.00
O748   O     0.12843   0.43893   0.74999   0.00000  Uiso   1.00
O749   O     0.20488   0.43892   0.74999   0.00000  Uiso   1.00
O750   O     0.14742   0.50001   0.67319   0.00000  Uiso   1.00
O751   O     0.22387   0.50000   0.67319   0.00000  Uiso   1.00
O752   O     0.14179   0.55305   0.59686   0.00000  Uiso   1.00
Zn753  Zn    0.11562   0.50001   0.75000   0.00000  Uiso   1.00
Zn754  Zn    0.21771   0.49999   0.75000   0.00000  Uiso   1.00
C755   C     0.50046   0.57999   0.74908   0.00000  Uiso   1.00
C756   C     0.46083   0.51906   0.90758   0.00000  Uiso   1.00
C757   C     0.54384   0.64568   0.72318   0.00000  Uiso   1.00
C758   C     0.47462   0.50574   0.85107   0.00000  Uiso   1.00
C759   C     0.54295   0.35548   0.72406   0.00000  Uiso   1.00
C760   C     0.50016   0.37598   0.74816   0.00000  Uiso   1.00
C761   C     0.45780   0.35444   0.77096   0.00000  Uiso   1.00
C762   C     0.45833   0.64508   0.77086   0.00000  Uiso   1.00
C763   C     0.50115   0.62421   0.74758   0.00000  Uiso   1.00
C764   C     0.64944   0.46951   0.72392   0.00000  Uiso   1.00
C765   C     0.36413   0.46984   0.72296   0.00000  Uiso   1.00
C766   C     0.48194   0.52583   0.98970   0.00000  Uiso   1.00
C767   C     0.35057   0.53093   0.77532   0.00000  Uiso   1.00
C768   C     0.63641   0.53140   0.77424   0.00000  Uiso   1.00
C769   C     0.49995   0.42006   0.74960   0.00000  Uiso   1.00
C770   C     0.52585   0.50117   0.64862   0.00000  Uiso   1.00
C771   C     0.59587   0.49057   0.50471   0.00000  Uiso   1.00
C772   C     0.54093   0.50613   0.59154   0.00000  Uiso   1.00
C773   C     0.41269   0.52211   0.93710   0.00000  Uiso   1.00
C774   C     0.39892   0.52624   0.99236   0.00000  Uiso   1.00
C775   C     0.43291   0.52582   0.51877   0.00000  Uiso   1.00
C776   C     0.49557   0.52624   0.93359   0.00000  Uiso   1.00
C777   C     0.51816   0.52089   0.51382   0.00000  Uiso   1.00
C778   C     0.56449   0.50939   0.98162   0.00000  Uiso   1.00
C779   C     0.57827   0.51869   0.92763   0.00000  Uiso   1.00
C780   C     0.54422   0.53167   0.90556   0.00000  Uiso   1.00
C781   C     0.51020   0.52599   0.56830   0.00000  Uiso   1.00
C782   C     0.58315   0.48787   0.55987   0.00000  Uiso   1.00
Cl783  Cl    0.40187   0.43190   0.68378   0.00000  Uiso   1.00
Cl784  Cl    0.64667   0.46369   0.96597   0.00000  Uiso   1.00
H785   H     0.60588   0.47133   0.57794   0.00000  Uiso   1.00
H786   H     0.41986   0.52349   0.56163   0.00000  Uiso   1.00
H787   H     0.36157   0.52717   0.51514   0.00000  Uiso   1.00
H788   H     0.55619   0.54426   0.86609   0.00000  Uiso   1.00
H789   H     0.48492   0.56580   0.62618   0.00000  Uiso   1.00
H790   H     0.61146   0.64431   0.68329   0.00000  Uiso   1.00
H791   H     0.57529   0.37297   0.70554   0.00000  Uiso   1.00
H792   H     0.42469   0.37057   0.78973   0.00000  Uiso   1.00
H793   H     0.42548   0.62840   0.78972   0.00000  Uiso   1.00
H794   H     0.63678   0.44533   0.70277   0.00000  Uiso   1.00
H795   H     0.36318   0.55574   0.79557   0.00000  Uiso   1.00
H796   H     0.61398   0.55739   0.79206   0.00000  Uiso   1.00
H797   H     0.61508   0.51719   0.90293   0.00000  Uiso   1.00
H798   H     0.38570   0.51994   0.91751   0.00000  Uiso   1.00
N799   N     0.38093   0.50001   0.75001   0.00000  Uiso   1.00
N800   N     0.61906   0.49998   0.75000   0.00000  Uiso   1.00
O801   O     0.46179   0.56108   0.75000   0.00000  Uiso   1.00
O802   O     0.58520   0.62414   0.69815   0.00000  Uiso   1.00
O803   O     0.53823   0.56107   0.75000   0.00000  Uiso   1.00
O804   O     0.44280   0.50000   0.82681   0.00000  Uiso   1.00
O805   O     0.51924   0.49999   0.82681   0.00000  Uiso   1.00
O806   O     0.46177   0.43893   0.74999   0.00000  Uiso   1.00
O807   O     0.53821   0.43892   0.74999   0.00000  Uiso   1.00
O808   O     0.48076   0.50001   0.67319   0.00000  Uiso   1.00
O809   O     0.55720   0.50000   0.67319   0.00000  Uiso   1.00
O810   O     0.47512   0.55305   0.59686   0.00000  Uiso   1.00
Zn811  Zn    0.44896   0.50001   0.75000   0.00000  Uiso   1.00
Zn812  Zn    0.55104   0.49999   0.75000   0.00000  Uiso   1.00
C813   C     0.83379   0.57999   0.74908   0.00000  Uiso   1.00
C814   C     0.79417   0.51906   0.90758   0.00000  Uiso   1.00
C815   C     0.87718   0.64568   0.72318   0.00000  Uiso   1.00
C816   C     0.80796   0.50574   0.85107   0.00000  Uiso   1.00
C817   C     0.87628   0.35548   0.72406   0.00000  Uiso   1.00
C818   C     0.83349   0.37598   0.74816   0.00000  Uiso   1.00
C819   C     0.79113   0.35444   0.77096   0.00000  Uiso   1.00
C820   C     0.79166   0.64508   0.77086   0.00000  Uiso   1.00
C821   C     0.83448   0.62421   0.74758   0.00000  Uiso   1.00
C822   C     0.98278   0.46951   0.72392   0.00000  Uiso   1.00
C823   C     0.69747   0.46984   0.72296   0.00000  Uiso   1.00
C824   C     0.81527   0.52583   0.98970   0.00000  Uiso   1.00
C825   C     0.68391   0.53093   0.77532   0.00000  Uiso   1.00
C826   C     0.96974   0.53140   0.77424   0.00000  Uiso   1.00
C827   C     0.83328   0.42006   0.74960   0.00000  Uiso   1.00
C828   C     0.85918   0.50117   0.64862   0.00000  Uiso   1.00
C829   C     0.92920   0.49057   0.50471   0.00000  Uiso   1.00
C830   C     0.87427   0.50613   0.59154   0.00000  Uiso   1.00
C831   C     0.74603   0.52211   0.93710   0.00000  Uiso   1.00
C832   C     0.73226   0.52624   0.99236   0.00000  Uiso   1.00
C833   C     0.76624   0.52582   0.51877   0.00000  Uiso   1.00
C834   C     0.82890   0.52624   0.93359   0.00000  Uiso   1.00
C835   C     0.85149   0.52089   0.51382   0.00000  Uiso   1.00
C836   C     0.89783   0.50939   0.98162   0.00000  Uiso   1.00
C837   C     0.91160   0.51869   0.92763   0.00000  Uiso   1.00
C838   C     0.87755   0.53167   0.90556   0.00000  Uiso   1.00
C839   C     0.84354   0.52599   0.56830   0.00000  Uiso   1.00
C840   C     0.91649   0.48787   0.55987   0.00000  Uiso   1.00
Cl841  Cl    0.73520   0.43190   0.68378   0.00000  Uiso   1.00
Cl842  Cl    0.98000   0.46369   0.96597   0.00000  Uiso   1.00
H843   H     0.93921   0.47133   0.57794   0.00000  Uiso   1.00
H844   H     0.75319   0.52349   0.56163   0.00000  Uiso   1.00
H845   H     0.69491   0.52717   0.51514   0.00000  Uiso   1.00
H846   H     0.88953   0.54426   0.86609   0.00000  Uiso   1.00
H847   H     0.81825   0.56580   0.62618   0.00000  Uiso   1.00
H848   H     0.94480   0.64431   0.68329   0.00000  Uiso   1.00
H849   H     0.90862   0.37297   0.70554   0.00000  Uiso   1.00
H850   H     0.75802   0.37057   0.78973   0.00000  Uiso   1.00
H851   H     0.75882   0.62840   0.78972   0.00000  Uiso   1.00
H852   H     0.97012   0.44533   0.70277   0.00000  Uiso   1.00
H853   H     0.69652   0.55574   0.79557   0.00000  Uiso   1.00
H854   H     0.94731   0.55739   0.79206   0.00000  Uiso   1.00
H855   H     0.94842   0.51719   0.90293   0.00000  Uiso   1.00
H856   H     0.71903   0.51994   0.91751   0.00000  Uiso   1.00
N857   N     0.71426   0.50001   0.75001   0.00000  Uiso   1.00
N858   N     0.95239   0.49998   0.75000   0.00000  Uiso   1.00
O859   O     0.79512   0.56108   0.75000   0.00000  Uiso   1.00
O860   O     0.91853   0.62414   0.69815   0.00000  Uiso   1.00
O861   O     0.87157   0.56107   0.75000   0.00000  Uiso   1.00
O862   O     0.77613   0.50000   0.82681   0.00000  Uiso   1.00
O863   O     0.85258   0.49999   0.82681   0.00000  Uiso   1.00
O864   O     0.79510   0.43893   0.74999   0.00000  Uiso   1.00
O865   O     0.87154   0.43892   0.74999   0.00000  Uiso   1.00
O866   O     0.81409   0.50001   0.67319   0.00000  Uiso   1.00
O867   O     0.89053   0.50000   0.67319   0.00000  Uiso   1.00
O868   O     0.80846   0.55305   0.59686   0.00000  Uiso   1.00
Zn869  Zn    0.78229   0.50001   0.75000   0.00000  Uiso   1.00
Zn870  Zn    0.88438   0.49999   0.75000   0.00000  Uiso   1.00
C871   C     0.16712   0.91332   0.74908   0.00000  Uiso   1.00
C872   C     0.12750   0.85240   0.90758   0.00000  Uiso   1.00
C873   C     0.21051   0.97901   0.72318   0.00000  Uiso   1.00
C874   C     0.14129   0.83907   0.85107   0.00000  Uiso   1.00
C875   C     0.20961   0.68881   0.72406   0.00000  Uiso   1.00
C876   C     0.16682   0.70932   0.74816   0.00000  Uiso   1.00
C877   C     0.12446   0.68777   0.77096   0.00000  Uiso   1.00
C878   C     0.12500   0.97842   0.77086   0.00000  Uiso   1.00
C879   C     0.16781   0.95755   0.74758   0.00000  Uiso   1.00
C880   C     0.31611   0.80284   0.72392   0.00000  Uiso   1.00
C881   C     0.03080   0.80318   0.72296   0.00000  Uiso   1.00
C882   C     0.14860   0.85917   0.98970   0.00000  Uiso   1.00
C883   C     0.01724   0.86426   0.77532   0.00000  Uiso   1.00
C884   C     0.30308   0.86474   0.77424   0.00000  Uiso   1.00
C885   C     0.16662   0.75340   0.74960   0.00000  Uiso   1.00
C886   C     0.19251   0.83450   0.64862   0.00000  Uiso   1.00
C887   C     0.26254   0.82390   0.50471   0.00000  Uiso   1.00
C888   C     0.20760   0.83947   0.59154   0.00000  Uiso   1.00
C889   C     0.07936   0.85544   0.93710   0.00000  Uiso   1.00
C890   C     0.06559   0.85957   0.99236   0.00000  Uiso   1.00
C891   C     0.09958   0.85915   0.51877   0.00000  Uiso   1.00
C892   C     0.16223   0.85957   0.93359   0.00000  Uiso   1.00
C893   C     0.18482   0.85422   0.51382   0.00000  Uiso   1.00
C894   C     0.23116   0.84273   0.98162   0.00000  Uiso   1.00
C895   C     0.24494   0.85203   0.92763   0.00000  Uiso   1.00
C896   C     0.21088   0.86501   0.90556   0.00000  Uiso   1.00
C897   C     0.17687   0.85932   0.56830   0.00000  Uiso   1.00
C898   C     0.24982   0.82120   0.55987   0.00000  Uiso   1.00
Cl899  Cl    0.06854   0.76523   0.68378   0.00000  Uiso   1.00
Cl900  Cl    0.31333   0.79703   0.96597   0.00000  Uiso   1.00
H901   H     0.27255   0.80466   0.57794   0.00000  Uiso   1.00
H902   H     0.08652   0.85683   0.56163   0.00000  Uiso   1.00
H903   H     0.02824   0.86050   0.51514   0.00000  Uiso   1.00
H904   H     0.22286   0.87760   0.86609   0.00000  Uiso   1.00
H905   H     0.15159   0.89913   0.62618   0.00000  Uiso   1.00
H906   H     0.27813   0.97765   0.68329   0.00000  Uiso   1.00
H907   H     0.24195   0.70630   0.70554   0.00000  Uiso   1.00
H908   H     0.09135   0.70391   0.78973   0.00000  Uiso   1.00
H909   H     0.09215   0.96174   0.78972   0.00000  Uiso   1.00
H910   H     0.30345   0.77867   0.70277   0.00000  Uiso   1.00
H911   H     0.02985   0.88908   0.79557   0.00000  Uiso   1.00
H912   H     0.28064   0.89073   0.79206   0.00000  Uiso   1.00
H913   H     0.28175   0.85052   0.90293   0.00000  Uiso   1.00
H914   H     0.05236   0.85328   0.91751   0.00000  Uiso   1.00
N915   N     0.04760   0.83334   0.75001   0.00000  Uiso   1.00
N916   N     0.28573   0.83331   0.75000   0.00000  Uiso   1.00
O917   O     0.12846   0.89442   0.75000   0.00000  Uiso   1.00
O918   O     0.25187   0.95748   0.69815   0.00000  Uiso   1.00
O919   O     0.20490   0.89441   0.75000   0.00000  Uiso   1.00
O920   O     0.10947   0.83333   0.82681   0.00000  Uiso   1.00
O921   O     0.18591   0.83332   0.82681   0.00000  Uiso   1.00
O922   O     0.12843   0.77226   0.74999   0.00000  Uiso   1.00
O923   O     0.20488   0.77225   0.74999   0.00000  Uiso   1.00
O924   O     0.14742   0.83335   0.67319   0.00000  Uiso   1.00
O925   O     0.22387   0.83334   0.67319   0.00000  Uiso   1.00
O926   O     0.14179   0.88638   0.59686   0.00000  Uiso   1.00
Zn927  Zn    0.11562   0.83334   0.75000   0.00000  Uiso   1.00
Zn928  Zn    0.21771   0.83333   0.75000   0.00000  Uiso   1.00
C929   C     0.50046   0.91332   0.74908   0.00000  Uiso   1.00
C930   C     0.46083   0.85240   0.90758   0.00000  Uiso   1.00
C931   C     0.54384   0.97901   0.72318   0.00000  Uiso   1.00
C932   C     0.47462   0.83907   0.85107   0.00000  Uiso   1.00
C933   C     0.54295   0.68881   0.72406   0.00000  Uiso   1.00
C934   C     0.50016   0.70932   0.74816   0.00000  Uiso   1.00
C935   C     0.45780   0.68777   0.77096   0.00000  Uiso   1.00
C936   C     0.45833   0.97842   0.77086   0.00000  Uiso   1.00
C937   C     0.50115   0.95755   0.74758   0.00000  Uiso   1.00
C938   C     0.64944   0.80284   0.72392   0.00000  Uiso   1.00
C939   C     0.36413   0.80318   0.72296   0.00000  Uiso   1.00
C940   C     0.48194   0.85917   0.98970   0.00000  Uiso   1.00
C941   C     0.35057   0.86426   0.77532   0.00000  Uiso   1.00
C942   C     0.63641   0.86474   0.77424   0.00000  Uiso   1.00
C943   C     0.49995   0.75340   0.74960   0.00000  Uiso   1.00
C944   C     0.52585   0.83450   0.64862   0.00000  Uiso   1.00
C945   C     0.59587   0.82390   0.50471   0.00000  Uiso   1.00
C946   C     0.54093   0.83947   0.59154   0.00000  Uiso   1.00
C947   C     0.41269   0.85544   0.93710   0.00000  Uiso   1.00
C948   C     0.39892   0.85957   0.99236   0.00000  Uiso   1.00
C949   C     0.43291   0.85915   0.51877   0.00000  Uiso   1.00
C950   C     0.49557   0.85957   0.93359   0.00000  Uiso   1.00
C951   C     0.51816   0.85422   0.51382   0.00000  Uiso   1.00
C952   C     0.56449   0.84273   0.98162   0.00000  Uiso   1.00
C953   C     0.57827   0.85203   0.92763   0.00000  Uiso   1.00
C954   C     0.54422   0.86501   0.90556   0.00000  Uiso   1.00
C955   C     0.51020   0.85932   0.56830   0.00000  Uiso   1.00
C956   C     0.58315   0.82120   0.55987   0.00000  Uiso   1.00
Cl957  Cl    0.40187   0.76523   0.68378   0.00000  Uiso   1.00
Cl958  Cl    0.64667   0.79703   0.96597   0.00000  Uiso   1.00
H959   H     0.60588   0.80466   0.57794   0.00000  Uiso   1.00
H960   H     0.41986   0.85683   0.56163   0.00000  Uiso   1.00
H961   H     0.36157   0.86050   0.51514   0.00000  Uiso   1.00
H962   H     0.55619   0.87760   0.86609   0.00000  Uiso   1.00
H963   H     0.48492   0.89913   0.62618   0.00000  Uiso   1.00
H964   H     0.61146   0.97765   0.68329   0.00000  Uiso   1.00
H965   H     0.57529   0.70630   0.70554   0.00000  Uiso   1.00
H966   H     0.42469   0.70391   0.78973   0.00000  Uiso   1.00
H967   H     0.42548   0.96174   0.78972   0.00000  Uiso   1.00
H968   H     0.63678   0.77867   0.70277   0.00000  Uiso   1.00
H969   H     0.36318   0.88908   0.79557   0.00000  Uiso   1.00
H970   H     0.61398   0.89073   0.79206   0.00000  Uiso   1.00
H971   H     0.61508   0.85052   0.90293   0.00000  Uiso   1.00
H972   H     0.38570   0.85328   0.91751   0.00000  Uiso   1.00
N973   N     0.38093   0.83334   0.75001   0.00000  Uiso   1.00
N974   N     0.61906   0.83331   0.75000   0.00000  Uiso   1.00
O975   O     0.46179   0.89442   0.75000   0.00000  Uiso   1.00
O976   O     0.58520   0.95748   0.69815   0.00000  Uiso   1.00
O977   O     0.53823   0.89441   0.75000   0.00000  Uiso   1.00
O978   O     0.44280   0.83333   0.82681   0.00000  Uiso   1.00
O979   O     0.51924   0.83332   0.82681   0.00000  Uiso   1.00
O980   O     0.46177   0.77226   0.74999   0.00000  Uiso   1.00
O981   O     0.53821   0.77225   0.74999   0.00000  Uiso   1.00
O982   O     0.48076   0.83335   0.67319   0.00000  Uiso   1.00
O983   O     0.55720   0.83334   0.67319   0.00000  Uiso   1.00
O984   O     0.47512   0.88638   0.59686   0.00000  Uiso   1.00
Zn985  Zn    0.44896   0.83334   0.75000   0.00000  Uiso   1.00
Zn986  Zn    0.55104   0.83333   0.75000   0.00000  Uiso   1.00
C987   C     0.83379   0.91332   0.74908   0.00000  Uiso   1.00
C988   C     0.79417   0.85240   0.90758   0.00000  Uiso   1.00
C989   C     0.87718   0.97901   0.72318   0.00000  Uiso   1.00
C990   C     0.80796   0.83907   0.85107   0.00000  Uiso   1.00
C991   C     0.87628   0.68881   0.72406   0.00000  Uiso   1.00
C992   C     0.83349   0.70932   0.74816   0.00000  Uiso   1.00
C993   C     0.79113   0.68777   0.77096   0.00000  Uiso   1.00
C994   C     0.79166   0.97842   0.77086   0.00000  Uiso   1.00
C995   C     0.83448   0.95755   0.74758   0.00000  Uiso   1.00
C996   C     0.98278   0.80284   0.72392   0.00000  Uiso   1.00
C997   C     0.69747   0.80318   0.72296   0.00000  Uiso   1.00
C998   C     0.81527   0.85917   0.98970   0.00000  Uiso   1.00
C999   C     0.68391   0.86426   0.77532   0.00000  Uiso   1.00
C1000  C     0.96974   0.86474   0.77424   0.00000  Uiso   1.00
C1001  C     0.83328   0.75340   0.74960   0.00000  Uiso   1.00
C1002  C     0.85918   0.83450   0.64862   0.00000  Uiso   1.00
C1003  C     0.92920   0.82390   0.50471   0.00000  Uiso   1.00
C1004  C     0.87427   0.83947   0.59154   0.00000  Uiso   1.00
C1005  C     0.74603   0.85544   0.93710   0.00000  Uiso   1.00
C1006  C     0.73226   0.85957   0.99236   0.00000  Uiso   1.00
C1007  C     0.76624   0.85915   0.51877   0.00000  Uiso   1.00
C1008  C     0.82890   0.85957   0.93359   0.00000  Uiso   1.00
C1009  C     0.85149   0.85422   0.51382   0.00000  Uiso   1.00
C1010  C     0.89783   0.84273   0.98162   0.00000  Uiso   1.00
C1011  C     0.91160   0.85203   0.92763   0.00000  Uiso   1.00
C1012  C     0.87755   0.86501   0.90556   0.00000  Uiso   1.00
C1013  C     0.84354   0.85932   0.56830   0.00000  Uiso   1.00
C1014  C     0.91649   0.82120   0.55987   0.00000  Uiso   1.00
Cl1015 Cl    0.73520   0.76523   0.68378   0.00000  Uiso   1.00
Cl1016 Cl    0.98000   0.79703   0.96597   0.00000  Uiso   1.00
H1017  H     0.93921   0.80466   0.57794   0.00000  Uiso   1.00
H1018  H     0.75319   0.85683   0.56163   0.00000  Uiso   1.00
H1019  H     0.69491   0.86050   0.51514   0.00000  Uiso   1.00
H1020  H     0.88953   0.87760   0.86609   0.00000  Uiso   1.00
H1021  H     0.81825   0.89913   0.62618   0.00000  Uiso   1.00
H1022  H     0.94480   0.97765   0.68329   0.00000  Uiso   1.00
H1023  H     0.90862   0.70630   0.70554   0.00000  Uiso   1.00
H1024  H     0.75802   0.70391   0.78973   0.00000  Uiso   1.00
H1025  H     0.75882   0.96174   0.78972   0.00000  Uiso   1.00
H1026  H     0.97012   0.77867   0.70277   0.00000  Uiso   1.00
H1027  H     0.69652   0.88908   0.79557   0.00000  Uiso   1.00
H1028  H     0.94731   0.89073   0.79206   0.00000  Uiso   1.00
H1029  H     0.94842   0.85052   0.90293   0.00000  Uiso   1.00
H1030  H     0.71903   0.85328   0.91751   0.00000  Uiso   1.00
N1031  N     0.71426   0.83334   0.75001   0.00000  Uiso   1.00
N1032  N     0.95239   0.83331   0.75000   0.00000  Uiso   1.00
O1033  O     0.79512   0.89442   0.75000   0.00000  Uiso   1.00
O1034  O     0.91853   0.95748   0.69815   0.00000  Uiso   1.00
O1035  O     0.87157   0.89441   0.75000   0.00000  Uiso   1.00
O1036  O     0.77613   0.83333   0.82681   0.00000  Uiso   1.00
O1037  O     0.85258   0.83332   0.82681   0.00000  Uiso   1.00
O1038  O     0.79510   0.77226   0.74999   0.00000  Uiso   1.00
O1039  O     0.87154   0.77225   0.74999   0.00000  Uiso   1.00
O1040  O     0.81409   0.83335   0.67319   0.00000  Uiso   1.00
O1041  O     0.89053   0.83334   0.67319   0.00000  Uiso   1.00
O1042  O     0.80846   0.88638   0.59686   0.00000  Uiso   1.00
Zn1043 Zn    0.78229   0.83334   0.75000   0.00000  Uiso   1.00
Zn1044 Zn    0.88438   0.83333   0.75000   0.00000  Uiso   1.00
loop_
_geom_bond_atom_site_label_1
_geom_bond_atom_site_label_2
_geom_bond_distance
_geom_bond_site_symmetry_2
_ccdc_geom_bond_type
C1     C9      1.419   .     S
C1     O47     1.286   .     A
C1     O49     1.285   .     A
C2     C4      1.478   .     S
C2     C22     1.421   .     A
C2     C19     1.399   .     A
C3     C9      1.405   .     A
C3     O48     1.383   .     S
C3     C179    1.383   .     S
C4     O51     1.290   .     A
C4     O50     1.306   .     A
C5     H37     1.084   .     S
C5     C6      1.395   .     A
C5     C351    1.383   1_545 S
C6     C7      1.392   .     A
C6     C15     1.413   .     S
C7     H38     1.084   .     S
C7     C356    1.369   1_545 S
C8     H39     1.084   .     S
C8     C9      1.398   .     A
C8     C181    1.369   .     S
C10    N46     1.361   .     A
C10    H40     1.082   .     S
C10    C69     1.415   .     S
C11    N45     1.376   .     A
C11    Cl29    1.753   .     S
C11    C126    1.415   1_455 S
C12    C22     1.409   .     A
C12    C543    1.415   .     S
C12    C545    1.420   .     S
C13    H41     1.082   .     S
C13    N45     1.365   .     A
C13    C130    1.417   1_455 S
C14    H42     1.079   .     S
C14    N46     1.369   .     A
C14    C71     1.417   .     S
C15    O52     1.285   .     A
C15    O53     1.283   .     A
C16    O55     1.290   .     A
C16    C18     1.442   .     S
C16    O54     1.291   .     A
C17    C28     1.389   .     A
C17    C546    1.404   1_554 S
C17    Cl552   1.759   1_554 S
C18    C28     1.398   .     A
C18    C27     1.407   .     A
C19    C20     1.392   .     A
C19    H44     1.082   .     S
C20    C543    1.393   .     S
C20    H555    1.082   .     S
C21    H32     1.079   .     S
C21    C534    1.415   1_554 S
C21    C542    1.393   1_554 S
C22    C26     1.410   .     A
C23    C27     1.391   .     A
C23    C534    1.420   1_554 S
C23    C546    1.420   1_554 S
C24    C25     1.389   .     A
C24    C545    1.420   .     S
C24    C539    1.404   .     S
C25    H43     1.083   .     S
C25    C26     1.382   .     A
C26    H34     1.072   .     S
C27    O56     1.383   .     S
C28    H31     1.084   .     S
Cl30   C539    1.759   .     S
H33    C542    1.082   1_554 S
H35    O56     0.991   .     S
H36    O48     0.992   .     S
N45    Zn57    2.016   .     S
N46    Zn58    2.016   .     S
O47    Zn57    1.992   .     S
O49    Zn58    1.998   .     S
O50    Zn57    1.979   .     S
O51    Zn58    1.951   .     S
O52    Zn57    1.998   .     S
O53    Zn58    1.992   .     S
O54    Zn57    1.951   .     S
O55    Zn58    1.979   .     S
C59    C67     1.419   .     S
C59    O105    1.286   .     A
C59    O107    1.285   .     A
C60    C62     1.478   .     S
C60    C80     1.421   .     A
C60    C77     1.399   .     A
C61    C67     1.405   .     A
C61    O106    1.383   .     S
C61    C237    1.383   .     S
C62    O109    1.290   .     A
C62    O108    1.306   .     A
C63    H95     1.084   .     S
C63    C64     1.395   .     A
C63    C409    1.383   1_545 S
C64    C65     1.392   .     A
C64    C73     1.413   .     S
C65    H96     1.084   .     S
C65    C414    1.369   1_545 S
C66    H97     1.084   .     S
C66    C67     1.398   .     A
C66    C239    1.369   .     S
C68    N104    1.361   .     A
C68    H98     1.082   .     S
C68    C127    1.415   .     S
C69    N103    1.376   .     A
C69    Cl87    1.753   .     S
C70    C80     1.409   .     A
C70    C601    1.415   .     S
C70    C603    1.420   .     S
C71    H99     1.082   .     S
C71    N103    1.365   .     A
C72    H100    1.079   .     S
C72    N104    1.369   .     A
C72    C129    1.417   .     S
C73    O110    1.285   .     A
C73    O111    1.283   .     A
C74    O113    1.290   .     A
C74    C76     1.442   .     S
C74    O112    1.291   .     A
C75    C86     1.389   .     A
C75    C604    1.404   1_554 S
C75    Cl610   1.759   1_554 S
C76    C86     1.398   .     A
C76    C85     1.407   .     A
C77    C78     1.392   .     A
C77    H102    1.082   .     S
C78    C601    1.393   .     S
C78    H613    1.082   .     S
C79    H90     1.079   .     S
C79    C592    1.415   1_554 S
C79    C600    1.393   1_554 S
C80    C84     1.410   .     A
C81    C85     1.391   .     A
C81    C592    1.420   1_554 S
C81    C604    1.420   1_554 S
C82    C83     1.389   .     A
C82    C603    1.420   .     S
C82    C597    1.404   .     S
C83    H101    1.083   .     S
C83    C84     1.382   .     A
C84    H92     1.072   .     S
C85    O114    1.383   .     S
C86    H89     1.084   .     S
Cl88   C597    1.759   .     S
H91    C600    1.082   1_554 S
H93    O114    0.991   .     S
H94    O106    0.992   .     S
N103   Zn115   2.016   .     S
N104   Zn116   2.016   .     S
O105   Zn115   1.992   .     S
O107   Zn116   1.998   .     S
O108   Zn115   1.979   .     S
O109   Zn116   1.951   .     S
O110   Zn115   1.998   .     S
O111   Zn116   1.992   .     S
O112   Zn115   1.951   .     S
O113   Zn116   1.979   .     S
C117   C125    1.419   .     S
C117   O163    1.286   .     A
C117   O165    1.285   .     A
C118   C120    1.478   .     S
C118   C138    1.421   .     A
C118   C135    1.399   .     A
C119   C125    1.405   .     A
C119   O164    1.383   .     S
C119   C295    1.383   .     S
C120   O167    1.290   .     A
C120   O166    1.306   .     A
C121   H153    1.084   .     S
C121   C122    1.395   .     A
C121   C467    1.383   1_545 S
C122   C123    1.392   .     A
C122   C131    1.413   .     S
C123   H154    1.084   .     S
C123   C472    1.369   1_545 S
C124   H155    1.084   .     S
C124   C125    1.398   .     A
C124   C297    1.369   .     S
C126   N162    1.361   .     A
C126   H156    1.082   .     S
C126   C11     1.415   1_655 S
C127   N161    1.376   .     A
C127   Cl145   1.753   .     S
C128   C138    1.409   .     A
C128   C659    1.415   .     S
C128   C661    1.420   .     S
C129   H157    1.082   .     S
C129   N161    1.365   .     A
C130   H158    1.079   .     S
C130   N162    1.369   .     A
C130   C13     1.417   1_655 S
C131   O168    1.285   .     A
C131   O169    1.283   .     A
C132   O171    1.290   .     A
C132   C134    1.442   .     S
C132   O170    1.291   .     A
C133   C144    1.389   .     A
C133   C662    1.404   1_554 S
C133   Cl668   1.759   1_554 S
C134   C144    1.398   .     A
C134   C143    1.407   .     A
C135   C136    1.392   .     A
C135   H160    1.082   .     S
C136   C659    1.393   .     S
C136   H671    1.082   .     S
C137   H148    1.079   .     S
C137   C650    1.415   1_554 S
C137   C658    1.393   1_554 S
C138   C142    1.410   .     A
C139   C143    1.391   .     A
C139   C650    1.420   1_554 S
C139   C662    1.420   1_554 S
C140   C141    1.389   .     A
C140   C661    1.420   .     S
C140   C655    1.404   .     S
C141   H159    1.083   .     S
C141   C142    1.382   .     A
C142   H150    1.072   .     S
C143   O172    1.383   .     S
C144   H147    1.084   .     S
Cl146  C655    1.759   .     S
H149   C658    1.082   1_554 S
H151   O172    0.991   .     S
H152   O164    0.992   .     S
N161   Zn173   2.016   .     S
N162   Zn174   2.016   .     S
O163   Zn173   1.992   .     S
O165   Zn174   1.998   .     S
O166   Zn173   1.979   .     S
O167   Zn174   1.951   .     S
O168   Zn173   1.998   .     S
O169   Zn174   1.992   .     S
O170   Zn173   1.951   .     S
O171   Zn174   1.979   .     S
C175   C183    1.419   .     S
C175   O221    1.286   .     A
C175   O223    1.285   .     A
C176   C178    1.478   .     S
C176   C196    1.421   .     A
C176   C193    1.399   .     A
C177   C183    1.405   .     A
C177   O222    1.383   .     S
C177   C353    1.383   .     S
C178   O225    1.290   .     A
C178   O224    1.306   .     A
C179   H211    1.084   .     S
C179   C180    1.395   .     A
C180   C181    1.392   .     A
C180   C189    1.413   .     S
C181   H212    1.084   .     S
C182   H213    1.084   .     S
C182   C183    1.398   .     A
C182   C355    1.369   .     S
C184   N220    1.361   .     A
C184   H214    1.082   .     S
C184   C243    1.415   .     S
C185   N219    1.376   .     A
C185   Cl203   1.753   .     S
C185   C300    1.415   1_455 S
C186   C196    1.409   .     A
C186   C717    1.415   .     S
C186   C719    1.420   .     S
C187   H215    1.082   .     S
C187   N219    1.365   .     A
C187   C304    1.417   1_455 S
C188   H216    1.079   .     S
C188   N220    1.369   .     A
C188   C245    1.417   .     S
C189   O226    1.285   .     A
C189   O227    1.283   .     A
C190   O229    1.290   .     A
C190   C192    1.442   .     S
C190   O228    1.291   .     A
C191   C202    1.389   .     A
C191   C720    1.404   1_554 S
C191   Cl726   1.759   1_554 S
C192   C202    1.398   .     A
C192   C201    1.407   .     A
C193   C194    1.392   .     A
C193   H218    1.082   .     S
C194   C717    1.393   .     S
C194   H729    1.082   .     S
C195   H206    1.079   .     S
C195   C708    1.415   1_554 S
C195   C716    1.393   1_554 S
C196   C200    1.410   .     A
C197   C201    1.391   .     A
C197   C708    1.420   1_554 S
C197   C720    1.420   1_554 S
C198   C199    1.389   .     A
C198   C719    1.420   .     S
C198   C713    1.404   .     S
C199   H217    1.083   .     S
C199   C200    1.382   .     A
C200   H208    1.072   .     S
C201   O230    1.383   .     S
C202   H205    1.084   .     S
Cl204  C713    1.759   .     S
H207   C716    1.082   1_554 S
H209   O230    0.991   .     S
H210   O222    0.992   .     S
N219   Zn231   2.016   .     S
N220   Zn232   2.016   .     S
O221   Zn231   1.992   .     S
O223   Zn232   1.998   .     S
O224   Zn231   1.979   .     S
O225   Zn232   1.951   .     S
O226   Zn231   1.998   .     S
O227   Zn232   1.992   .     S
O228   Zn231   1.951   .     S
O229   Zn232   1.979   .     S
C233   C241    1.419   .     S
C233   O279    1.286   .     A
C233   O281    1.285   .     A
C234   C236    1.478   .     S
C234   C254    1.421   .     A
C234   C251    1.399   .     A
C235   C241    1.405   .     A
C235   O280    1.383   .     S
C235   C411    1.383   .     S
C236   O283    1.290   .     A
C236   O282    1.306   .     A
C237   H269    1.084   .     S
C237   C238    1.395   .     A
C238   C239    1.392   .     A
C238   C247    1.413   .     S
C239   H270    1.084   .     S
C240   H271    1.084   .     S
C240   C241    1.398   .     A
C240   C413    1.369   .     S
C242   N278    1.361   .     A
C242   H272    1.082   .     S
C242   C301    1.415   .     S
C243   N277    1.376   .     A
C243   Cl261   1.753   .     S
C244   C254    1.409   .     A
C244   C775    1.415   .     S
C244   C777    1.420   .     S
C245   H273    1.082   .     S
C245   N277    1.365   .     A
C246   H274    1.079   .     S
C246   N278    1.369   .     A
C246   C303    1.417   .     S
C247   O284    1.285   .     A
C247   O285    1.283   .     A
C248   O287    1.290   .     A
C248   C250    1.442   .     S
C248   O286    1.291   .     A
C249   C260    1.389   .     A
C249   C778    1.404   1_554 S
C249   Cl784   1.759   1_554 S
C250   C260    1.398   .     A
C250   C259    1.407   .     A
C251   C252    1.392   .     A
C251   H276    1.082   .     S
C252   C775    1.393   .     S
C252   H787    1.082   .     S
C253   H264    1.079   .     S
C253   C766    1.415   1_554 S
C253   C774    1.393   1_554 S
C254   C258    1.410   .     A
C255   C259    1.391   .     A
C255   C766    1.420   1_554 S
C255   C778    1.420   1_554 S
C256   C257    1.389   .     A
C256   C777    1.420   .     S
C256   C771    1.404   .     S
C257   H275    1.083   .     S
C257   C258    1.382   .     A
C258   H266    1.072   .     S
C259   O288    1.383   .     S
C260   H263    1.084   .     S
Cl262  C771    1.759   .     S
H265   C774    1.082   1_554 S
H267   O288    0.991   .     S
H268   O280    0.992   .     S
N277   Zn289   2.016   .     S
N278   Zn290   2.016   .     S
O279   Zn289   1.992   .     S
O281   Zn290   1.998   .     S
O282   Zn289   1.979   .     S
O283   Zn290   1.951   .     S
O284   Zn289   1.998   .     S
O285   Zn290   1.992   .     S
O286   Zn289   1.951   .     S
O287   Zn290   1.979   .     S
C291   C299    1.419   .     S
C291   O337    1.286   .     A
C291   O339    1.285   .     A
C292   C294    1.478   .     S
C292   C312    1.421   .     A
C292   C309    1.399   .     A
C293   C299    1.405   .     A
C293   O338    1.383   .     S
C293   C469    1.383   .     S
C294   O341    1.290   .     A
C294   O340    1.306   .     A
C295   H327    1.084   .     S
C295   C296    1.395   .     A
C296   C297    1.392   .     A
C296   C305    1.413   .     S
C297   H328    1.084   .     S
C298   H329    1.084   .     S
C298   C299    1.398   .     A
C298   C471    1.369   .     S
C300   N336    1.361   .     A
C300   H330    1.082   .     S
C300   C185    1.415   1_655 S
C301   N335    1.376   .     A
C301   Cl319   1.753   .     S
C302   C312    1.409   .     A
C302   C833    1.415   .     S
C302   C835    1.420   .     S
C303   H331    1.082   .     S
C303   N335    1.365   .     A
C304   H332    1.079   .     S
C304   N336    1.369   .     A
C304   C187    1.417   1_655 S
C305   O342    1.285   .     A
C305   O343    1.283   .     A
C306   O345    1.290   .     A
C306   C308    1.442   .     S
C306   O344    1.291   .     A
C307   C318    1.389   .     A
C307   C836    1.404   1_554 S
C307   Cl842   1.759   1_554 S
C308   C318    1.398   .     A
C308   C317    1.407   .     A
C309   C310    1.392   .     A
C309   H334    1.082   .     S
C310   C833    1.393   .     S
C310   H845    1.082   .     S
C311   H322    1.079   .     S
C311   C824    1.415   1_554 S
C311   C832    1.393   1_554 S
C312   C316    1.410   .     A
C313   C317    1.391   .     A
C313   C824    1.420   1_554 S
C313   C836    1.420   1_554 S
C314   C315    1.389   .     A
C314   C835    1.420   .     S
C314   C829    1.404   .     S
C315   H333    1.083   .     S
C315   C316    1.382   .     A
C316   H324    1.072   .     S
C317   O346    1.383   .     S
C318   H321    1.084   .     S
Cl320  C829    1.759   .     S
H323   C832    1.082   1_554 S
H325   O346    0.991   .     S
H326   O338    0.992   .     S
N335   Zn347   2.016   .     S
N336   Zn348   2.016   .     S
O337   Zn347   1.992   .     S
O339   Zn348   1.998   .     S
O340   Zn347   1.979   .     S
O341   Zn348   1.951   .     S
O342   Zn347   1.998   .     S
O343   Zn348   1.992   .     S
O344   Zn347   1.951   .     S
O345   Zn348   1.979   .     S
C349   C357    1.419   .     S
C349   O395    1.286   .     A
C349   O397    1.285   .     A
C350   C352    1.478   .     S
C350   C370    1.421   .     A
C350   C367    1.399   .     A
C351   C357    1.405   .     A
C351   O396    1.383   .     S
C351   C5      1.383   1_565 S
C352   O399    1.290   .     A
C352   O398    1.306   .     A
C353   H385    1.084   .     S
C353   C354    1.395   .     A
C354   C355    1.392   .     A
C354   C363    1.413   .     S
C355   H386    1.084   .     S
C356   H387    1.084   .     S
C356   C357    1.398   .     A
C356   C7      1.369   1_565 S
C358   N394    1.361   .     A
C358   H388    1.082   .     S
C358   C417    1.415   .     S
C359   N393    1.376   .     A
C359   Cl377   1.753   .     S
C359   C474    1.415   1_455 S
C360   C370    1.409   .     A
C360   C891    1.415   .     S
C360   C893    1.420   .     S
C361   H389    1.082   .     S
C361   N393    1.365   .     A
C361   C478    1.417   1_455 S
C362   H390    1.079   .     S
C362   N394    1.369   .     A
C362   C419    1.417   .     S
C363   O400    1.285   .     A
C363   O401    1.283   .     A
C364   O403    1.290   .     A
C364   C366    1.442   .     S
C364   O402    1.291   .     A
C365   C376    1.389   .     A
C365   C894    1.404   1_554 S
C365   Cl900   1.759   1_554 S
C366   C376    1.398   .     A
C366   C375    1.407   .     A
C367   C368    1.392   .     A
C367   H392    1.082   .     S
C368   C891    1.393   .     S
C368   H903    1.082   .     S
C369   H380    1.079   .     S
C369   C882    1.415   1_554 S
C369   C890    1.393   1_554 S
C370   C374    1.410   .     A
C371   C375    1.391   .     A
C371   C882    1.420   1_554 S
C371   C894    1.420   1_554 S
C372   C373    1.389   .     A
C372   C893    1.420   .     S
C372   C887    1.404   .     S
C373   H391    1.083   .     S
C373   C374    1.382   .     A
C374   H382    1.072   .     S
C375   O404    1.383   .     S
C376   H379    1.084   .     S
Cl378  C887    1.759   .     S
H381   C890    1.082   1_554 S
H383   O404    0.991   .     S
H384   O396    0.992   .     S
N393   Zn405   2.016   .     S
N394   Zn406   2.016   .     S
O395   Zn405   1.992   .     S
O397   Zn406   1.998   .     S
O398   Zn405   1.979   .     S
O399   Zn406   1.951   .     S
O400   Zn405   1.998   .     S
O401   Zn406   1.992   .     S
O402   Zn405   1.951   .     S
O403   Zn406   1.979   .     S
C407   C415    1.419   .     S
C407   O453    1.286   .     A
C407   O455    1.285   .     A
C408   C410    1.478   .     S
C408   C428    1.421   .     A
C408   C425    1.399   .     A
C409   C415    1.405   .     A
C409   O454    1.383   .     S
C409   C63     1.383   1_565 S
C410   O457    1.290   .     A
C410   O456    1.306   .     A
C411   H443    1.084   .     S
C411   C412    1.395   .     A
C412   C413    1.392   .     A
C412   C421    1.413   .     S
C413   H444    1.084   .     S
C414   H445    1.084   .     S
C414   C415    1.398   .     A
C414   C65     1.369   1_565 S
C416   N452    1.361   .     A
C416   H446    1.082   .     S
C416   C475    1.415   .     S
C417   N451    1.376   .     A
C417   Cl435   1.753   .     S
C418   C428    1.409   .     A
C418   C949    1.415   .     S
C418   C951    1.420   .     S
C419   H447    1.082   .     S
C419   N451    1.365   .     A
C420   H448    1.079   .     S
C420   N452    1.369   .     A
C420   C477    1.417   .     S
C421   O458    1.285   .     A
C421   O459    1.283   .     A
C422   O461    1.290   .     A
C422   C424    1.442   .     S
C422   O460    1.291   .     A
C423   C434    1.389   .     A
C423   C952    1.404   1_554 S
C423   Cl958   1.759   1_554 S
C424   C434    1.398   .     A
C424   C433    1.407   .     A
C425   C426    1.392   .     A
C425   H450    1.082   .     S
C426   C949    1.393   .     S
C426   H961    1.082   .     S
C427   H438    1.079   .     S
C427   C940    1.415   1_554 S
C427   C948    1.393   1_554 S
C428   C432    1.410   .     A
C429   C433    1.391   .     A
C429   C940    1.420   1_554 S
C429   C952    1.420   1_554 S
C430   C431    1.389   .     A
C430   C951    1.420   .     S
C430   C945    1.404   .     S
C431   H449    1.083   .     S
C431   C432    1.382   .     A
C432   H440    1.072   .     S
C433   O462    1.383   .     S
C434   H437    1.084   .     S
Cl436  C945    1.759   .     S
H439   C948    1.082   1_554 S
H441   O462    0.991   .     S
H442   O454    0.992   .     S
N451   Zn463   2.016   .     S
N452   Zn464   2.016   .     S
O453   Zn463   1.992   .     S
O455   Zn464   1.998   .     S
O456   Zn463   1.979   .     S
O457   Zn464   1.951   .     S
O458   Zn463   1.998   .     S
O459   Zn464   1.992   .     S
O460   Zn463   1.951   .     S
O461   Zn464   1.979   .     S
C465   C473    1.419   .     S
C465   O511    1.286   .     A
C465   O513    1.285   .     A
C466   C468    1.478   .     S
C466   C486    1.421   .     A
C466   C483    1.399   .     A
C467   C473    1.405   .     A
C467   O512    1.383   .     S
C467   C121    1.383   1_565 S
C468   O515    1.290   .     A
C468   O514    1.306   .     A
C469   H501    1.084   .     S
C469   C470    1.395   .     A
C470   C471    1.392   .     A
C470   C479    1.413   .     S
C471   H502    1.084   .     S
C472   H503    1.084   .     S
C472   C473    1.398   .     A
C472   C123    1.369   1_565 S
C474   N510    1.361   .     A
C474   H504    1.082   .     S
C474   C359    1.415   1_655 S
C475   N509    1.376   .     A
C475   Cl493   1.753   .     S
C476   C486    1.409   .     A
C476   C1007   1.415   .     S
C476   C1009   1.420   .     S
C477   H505    1.082   .     S
C477   N509    1.365   .     A
C478   H506    1.079   .     S
C478   N510    1.369   .     A
C478   C361    1.417   1_655 S
C479   O516    1.285   .     A
C479   O517    1.283   .     A
C480   O519    1.290   .     A
C480   C482    1.442   .     S
C480   O518    1.291   .     A
C481   C492    1.389   .     A
C481   C1010   1.404   1_554 S
C481   Cl1016  1.759   1_554 S
C482   C492    1.398   .     A
C482   C491    1.407   .     A
C483   C484    1.392   .     A
C483   H508    1.082   .     S
C484   C1007   1.393   .     S
C484   H1019   1.082   .     S
C485   H496    1.079   .     S
C485   C998    1.415   1_554 S
C485   C1006   1.393   1_554 S
C486   C490    1.410   .     A
C487   C491    1.391   .     A
C487   C998    1.420   1_554 S
C487   C1010   1.420   1_554 S
C488   C489    1.389   .     A
C488   C1009   1.420   .     S
C488   C1003   1.404   .     S
C489   H507    1.083   .     S
C489   C490    1.382   .     A
C490   H498    1.072   .     S
C491   O520    1.383   .     S
C492   H495    1.084   .     S
Cl494  C1003   1.759   .     S
H497   C1006   1.082   1_554 S
H499   O520    0.991   .     S
H500   O512    0.992   .     S
N509   Zn521   2.016   .     S
N510   Zn522   2.016   .     S
O511   Zn521   1.992   .     S
O513   Zn522   1.998   .     S
O514   Zn521   1.979   .     S
O515   Zn522   1.951   .     S
O516   Zn521   1.998   .     S
O517   Zn522   1.992   .     S
O518   Zn521   1.951   .     S
O519   Zn522   1.979   .     S
C523   C531    1.419   .     S
C523   O569    1.286   .     A
C523   O571    1.285   .     A
C524   C526    1.478   .     S
C524   C544    1.421   .     A
C524   C541    1.399   .     A
C525   C531    1.405   .     A
C525   O570    1.383   .     S
C525   C701    1.383   .     S
C526   O573    1.290   .     A
C526   O572    1.306   .     A
C527   H559    1.084   .     S
C527   C528    1.395   .     A
C527   C873    1.383   1_545 S
C528   C529    1.392   .     A
C528   C537    1.413   .     S
C529   H560    1.084   .     S
C529   C878    1.369   1_545 S
C530   H561    1.084   .     S
C530   C531    1.398   .     A
C530   C703    1.369   .     S
C532   N568    1.361   .     A
C532   H562    1.082   .     S
C532   C591    1.415   .     S
C533   N567    1.376   .     A
C533   Cl551   1.753   .     S
C533   C648    1.415   1_455 S
C534   C544    1.409   .     A
C534   C21     1.415   1_556 S
C534   C23     1.420   1_556 S
C535   H563    1.082   .     S
C535   N567    1.365   .     A
C535   C652    1.417   1_455 S
C536   H564    1.079   .     S
C536   N568    1.369   .     A
C536   C593    1.417   .     S
C537   O574    1.285   .     A
C537   O575    1.283   .     A
C538   O577    1.290   .     A
C538   C540    1.442   .     S
C538   O576    1.291   .     A
C539   C550    1.389   .     A
C540   C550    1.398   .     A
C540   C549    1.407   .     A
C541   C542    1.392   .     A
C541   H566    1.082   .     S
C542   C21     1.393   1_556 S
C542   H33     1.082   1_556 S
C543   H554    1.079   .     S
C544   C548    1.410   .     A
C545   C549    1.391   .     A
C546   C547    1.389   .     A
C546   C23     1.420   1_556 S
C546   C17     1.404   1_556 S
C547   H565    1.083   .     S
C547   C548    1.382   .     A
C548   H556    1.072   .     S
C549   O578    1.383   .     S
C550   H553    1.084   .     S
Cl552  C17     1.759   1_556 S
H557   O578    0.991   .     S
H558   O570    0.992   .     S
N567   Zn579   2.016   .     S
N568   Zn580   2.016   .     S
O569   Zn579   1.992   .     S
O571   Zn580   1.998   .     S
O572   Zn579   1.979   .     S
O573   Zn580   1.951   .     S
O574   Zn579   1.998   .     S
O575   Zn580   1.992   .     S
O576   Zn579   1.951   .     S
O577   Zn580   1.979   .     S
C581   C589    1.419   .     S
C581   O627    1.286   .     A
C581   O629    1.285   .     A
C582   C584    1.478   .     S
C582   C602    1.421   .     A
C582   C599    1.399   .     A
C583   C589    1.405   .     A
C583   O628    1.383   .     S
C583   C759    1.383   .     S
C584   O631    1.290   .     A
C584   O630    1.306   .     A
C585   H617    1.084   .     S
C585   C586    1.395   .     A
C585   C931    1.383   1_545 S
C586   C587    1.392   .     A
C586   C595    1.413   .     S
C587   H618    1.084   .     S
C587   C936    1.369   1_545 S
C588   H619    1.084   .     S
C588   C589    1.398   .     A
C588   C761    1.369   .     S
C590   N626    1.361   .     A
C590   H620    1.082   .     S
C590   C649    1.415   .     S
C591   N625    1.376   .     A
C591   Cl609   1.753   .     S
C592   C602    1.409   .     A
C592   C79     1.415   1_556 S
C592   C81     1.420   1_556 S
C593   H621    1.082   .     S
C593   N625    1.365   .     A
C594   H622    1.079   .     S
C594   N626    1.369   .     A
C594   C651    1.417   .     S
C595   O632    1.285   .     A
C595   O633    1.283   .     A
C596   O635    1.290   .     A
C596   C598    1.442   .     S
C596   O634    1.291   .     A
C597   C608    1.389   .     A
C598   C608    1.398   .     A
C598   C607    1.407   .     A
C599   C600    1.392   .     A
C599   H624    1.082   .     S
C600   C79     1.393   1_556 S
C600   H91     1.082   1_556 S
C601   H612    1.079   .     S
C602   C606    1.410   .     A
C603   C607    1.391   .     A
C604   C605    1.389   .     A
C604   C81     1.420   1_556 S
C604   C75     1.404   1_556 S
C605   H623    1.083   .     S
C605   C606    1.382   .     A
C606   H614    1.072   .     S
C607   O636    1.383   .     S
C608   H611    1.084   .     S
Cl610  C75     1.759   1_556 S
H615   O636    0.991   .     S
H616   O628    0.992   .     S
N625   Zn637   2.016   .     S
N626   Zn638   2.016   .     S
O627   Zn637   1.992   .     S
O629   Zn638   1.998   .     S
O630   Zn637   1.979   .     S
O631   Zn638   1.951   .     S
O632   Zn637   1.998   .     S
O633   Zn638   1.992   .     S
O634   Zn637   1.951   .     S
O635   Zn638   1.979   .     S
C639   C647    1.419   .     S
C639   O685    1.286   .     A
C639   O687    1.285   .     A
C640   C642    1.478   .     S
C640   C660    1.421   .     A
C640   C657    1.399   .     A
C641   C647    1.405   .     A
C641   O686    1.383   .     S
C641   C817    1.383   .     S
C642   O689    1.290   .     A
C642   O688    1.306   .     A
C643   H675    1.084   .     S
C643   C644    1.395   .     A
C643   C989    1.383   1_545 S
C644   C645    1.392   .     A
C644   C653    1.413   .     S
C645   H676    1.084   .     S
C645   C994    1.369   1_545 S
C646   H677    1.084   .     S
C646   C647    1.398   .     A
C646   C819    1.369   .     S
C648   N684    1.361   .     A
C648   H678    1.082   .     S
C648   C533    1.415   1_655 S
C649   N683    1.376   .     A
C649   Cl667   1.753   .     S
C650   C660    1.409   .     A
C650   C137    1.415   1_556 S
C650   C139    1.420   1_556 S
C651   H679    1.082   .     S
C651   N683    1.365   .     A
C652   H680    1.079   .     S
C652   N684    1.369   .     A
C652   C535    1.417   1_655 S
C653   O690    1.285   .     A
C653   O691    1.283   .     A
C654   O693    1.290   .     A
C654   C656    1.442   .     S
C654   O692    1.291   .     A
C655   C666    1.389   .     A
C656   C666    1.398   .     A
C656   C665    1.407   .     A
C657   C658    1.392   .     A
C657   H682    1.082   .     S
C658   C137    1.393   1_556 S
C658   H149    1.082   1_556 S
C659   H670    1.079   .     S
C660   C664    1.410   .     A
C661   C665    1.391   .     A
C662   C663    1.389   .     A
C662   C139    1.420   1_556 S
C662   C133    1.404   1_556 S
C663   H681    1.083   .     S
C663   C664    1.382   .     A
C664   H672    1.072   .     S
C665   O694    1.383   .     S
C666   H669    1.084   .     S
Cl668  C133    1.759   1_556 S
H673   O694    0.991   .     S
H674   O686    0.992   .     S
N683   Zn695   2.016   .     S
N684   Zn696   2.016   .     S
O685   Zn695   1.992   .     S
O687   Zn696   1.998   .     S
O688   Zn695   1.979   .     S
O689   Zn696   1.951   .     S
O690   Zn695   1.998   .     S
O691   Zn696   1.992   .     S
O692   Zn695   1.951   .     S
O693   Zn696   1.979   .     S
C697   C705    1.419   .     S
C697   O743    1.286   .     A
C697   O745    1.285   .     A
C698   C700    1.478   .     S
C698   C718    1.421   .     A
C698   C715    1.399   .     A
C699   C705    1.405   .     A
C699   O744    1.383   .     S
C699   C875    1.383   .     S
C700   O747    1.290   .     A
C700   O746    1.306   .     A
C701   H733    1.084   .     S
C701   C702    1.395   .     A
C702   C703    1.392   .     A
C702   C711    1.413   .     S
C703   H734    1.084   .     S
C704   H735    1.084   .     S
C704   C705    1.398   .     A
C704   C877    1.369   .     S
C706   N742    1.361   .     A
C706   H736    1.082   .     S
C706   C765    1.415   .     S
C707   N741    1.376   .     A
C707   Cl725   1.753   .     S
C707   C822    1.415   1_455 S
C708   C718    1.409   .     A
C708   C195    1.415   1_556 S
C708   C197    1.420   1_556 S
C709   H737    1.082   .     S
C709   N741    1.365   .     A
C709   C826    1.417   1_455 S
C710   H738    1.079   .     S
C710   N742    1.369   .     A
C710   C767    1.417   .     S
C711   O748    1.285   .     A
C711   O749    1.283   .     A
C712   O751    1.290   .     A
C712   C714    1.442   .     S
C712   O750    1.291   .     A
C713   C724    1.389   .     A
C714   C724    1.398   .     A
C714   C723    1.407   .     A
C715   C716    1.392   .     A
C715   H740    1.082   .     S
C716   C195    1.393   1_556 S
C716   H207    1.082   1_556 S
C717   H728    1.079   .     S
C718   C722    1.410   .     A
C719   C723    1.391   .     A
C720   C721    1.389   .     A
C720   C197    1.420   1_556 S
C720   C191    1.404   1_556 S
C721   H739    1.083   .     S
C721   C722    1.382   .     A
C722   H730    1.072   .     S
C723   O752    1.383   .     S
C724   H727    1.084   .     S
Cl726  C191    1.759   1_556 S
H731   O752    0.991   .     S
H732   O744    0.992   .     S
N741   Zn753   2.016   .     S
N742   Zn754   2.016   .     S
O743   Zn753   1.992   .     S
O745   Zn754   1.998   .     S
O746   Zn753   1.979   .     S
O747   Zn754   1.951   .     S
O748   Zn753   1.998   .     S
O749   Zn754   1.992   .     S
O750   Zn753   1.951   .     S
O751   Zn754   1.979   .     S
C755   C763    1.419   .     S
C755   O801    1.286   .     A
C755   O803    1.285   .     A
C756   C758    1.478   .     S
C756   C776    1.421   .     A
C756   C773    1.399   .     A
C757   C763    1.405   .     A
C757   O802    1.383   .     S
C757   C933    1.383   .     S
C758   O805    1.290   .     A
C758   O804    1.306   .     A
C759   H791    1.084   .     S
C759   C760    1.395   .     A
C760   C761    1.392   .     A
C760   C769    1.413   .     S
C761   H792    1.084   .     S
C762   H793    1.084   .     S
C762   C763    1.398   .     A
C762   C935    1.369   .     S
C764   N800    1.361   .     A
C764   H794    1.082   .     S
C764   C823    1.415   .     S
C765   N799    1.376   .     A
C765   Cl783   1.753   .     S
C766   C776    1.409   .     A
C766   C253    1.415   1_556 S
C766   C255    1.420   1_556 S
C767   H795    1.082   .     S
C767   N799    1.365   .     A
C768   H796    1.079   .     S
C768   N800    1.369   .     A
C768   C825    1.417   .     S
C769   O806    1.285   .     A
C769   O807    1.283   .     A
C770   O809    1.290   .     A
C770   C772    1.442   .     S
C770   O808    1.291   .     A
C771   C782    1.389   .     A
C772   C782    1.398   .     A
C772   C781    1.407   .     A
C773   C774    1.392   .     A
C773   H798    1.082   .     S
C774   C253    1.393   1_556 S
C774   H265    1.082   1_556 S
C775   H786    1.079   .     S
C776   C780    1.410   .     A
C777   C781    1.391   .     A
C778   C779    1.389   .     A
C778   C255    1.420   1_556 S
C778   C249    1.404   1_556 S
C779   H797    1.083   .     S
C779   C780    1.382   .     A
C780   H788    1.072   .     S
C781   O810    1.383   .     S
C782   H785    1.084   .     S
Cl784  C249    1.759   1_556 S
H789   O810    0.991   .     S
H790   O802    0.992   .     S
N799   Zn811   2.016   .     S
N800   Zn812   2.016   .     S
O801   Zn811   1.992   .     S
O803   Zn812   1.998   .     S
O804   Zn811   1.979   .     S
O805   Zn812   1.951   .     S
O806   Zn811   1.998   .     S
O807   Zn812   1.992   .     S
O808   Zn811   1.951   .     S
O809   Zn812   1.979   .     S
C813   C821    1.419   .     S
C813   O859    1.286   .     A
C813   O861    1.285   .     A
C814   C816    1.478   .     S
C814   C834    1.421   .     A
C814   C831    1.399   .     A
C815   C821    1.405   .     A
C815   O860    1.383   .     S
C815   C991    1.383   .     S
C816   O863    1.290   .     A
C816   O862    1.306   .     A
C817   H849    1.084   .     S
C817   C818    1.395   .     A
C818   C819    1.392   .     A
C818   C827    1.413   .     S
C819   H850    1.084   .     S
C820   H851    1.084   .     S
C820   C821    1.398   .     A
C820   C993    1.369   .     S
C822   N858    1.361   .     A
C822   H852    1.082   .     S
C822   C707    1.415   1_655 S
C823   N857    1.376   .     A
C823   Cl841   1.753   .     S
C824   C834    1.409   .     A
C824   C311    1.415   1_556 S
C824   C313    1.420   1_556 S
C825   H853    1.082   .     S
C825   N857    1.365   .     A
C826   H854    1.079   .     S
C826   N858    1.369   .     A
C826   C709    1.417   1_655 S
C827   O864    1.285   .     A
C827   O865    1.283   .     A
C828   O867    1.290   .     A
C828   C830    1.442   .     S
C828   O866    1.291   .     A
C829   C840    1.389   .     A
C830   C840    1.398   .     A
C830   C839    1.407   .     A
C831   C832    1.392   .     A
C831   H856    1.082   .     S
C832   C311    1.393   1_556 S
C832   H323    1.082   1_556 S
C833   H844    1.079   .     S
C834   C838    1.410   .     A
C835   C839    1.391   .     A
C836   C837    1.389   .     A
C836   C313    1.420   1_556 S
C836   C307    1.404   1_556 S
C837   H855    1.083   .     S
C837   C838    1.382   .     A
C838   H846    1.072   .     S
C839   O868    1.383   .     S
C840   H843    1.084   .     S
Cl842  C307    1.759   1_556 S
H847   O868    0.991   .     S
H848   O860    0.992   .     S
N857   Zn869   2.016   .     S
N858   Zn870   2.016   .     S
O859   Zn869   1.992   .     S
O861   Zn870   1.998   .     S
O862   Zn869   1.979   .     S
O863   Zn870   1.951   .     S
O864   Zn869   1.998   .     S
O865   Zn870   1.992   .     S
O866   Zn869   1.951   .     S
O867   Zn870   1.979   .     S
C871   C879    1.419   .     S
C871   O917    1.286   .     A
C871   O919    1.285   .     A
C872   C874    1.478   .     S
C872   C892    1.421   .     A
C872   C889    1.399   .     A
C873   C879    1.405   .     A
C873   O918    1.383   .     S
C873   C527    1.383   1_565 S
C874   O921    1.290   .     A
C874   O920    1.306   .     A
C875   H907    1.084   .     S
C875   C876    1.395   .     A
C876   C877    1.392   .     A
C876   C885    1.413   .     S
C877   H908    1.084   .     S
C878   H909    1.084   .     S
C878   C879    1.398   .     A
C878   C529    1.369   1_565 S
C880   N916    1.361   .     A
C880   H910    1.082   .     S
C880   C939    1.415   .     S
C881   N915    1.376   .     A
C881   Cl899   1.753   .     S
C881   C996    1.415   1_455 S
C882   C892    1.409   .     A
C882   C369    1.415   1_556 S
C882   C371    1.420   1_556 S
C883   H911    1.082   .     S
C883   N915    1.365   .     A
C883   C1000   1.417   1_455 S
C884   H912    1.079   .     S
C884   N916    1.369   .     A
C884   C941    1.417   .     S
C885   O922    1.285   .     A
C885   O923    1.283   .     A
C886   O925    1.290   .     A
C886   C888    1.442   .     S
C886   O924    1.291   .     A
C887   C898    1.389   .     A
C888   C898    1.398   .     A
C888   C897    1.407   .     A
C889   C890    1.392   .     A
C889   H914    1.082   .     S
C890   C369    1.393   1_556 S
C890   H381    1.082   1_556 S
C891   H902    1.079   .     S
C892   C896    1.410   .     A
C893   C897    1.391   .     A
C894   C895    1.389   .     A
C894   C371    1.420   1_556 S
C894   C365    1.404   1_556 S
C895   H913    1.083   .     S
C895   C896    1.382   .     A
C896   H904    1.072   .     S
C897   O926    1.383   .     S
C898   H901    1.084   .     S
Cl900  C365    1.759   1_556 S
H905   O926    0.991   .     S
H906   O918    0.992   .     S
N915   Zn927   2.016   .     S
N916   Zn928   2.016   .     S
O917   Zn927   1.992   .     S
O919   Zn928   1.998   .     S
O920   Zn927   1.979   .     S
O921   Zn928   1.951   .     S
O922   Zn927   1.998   .     S
O923   Zn928   1.992   .     S
O924   Zn927   1.951   .     S
O925   Zn928   1.979   .     S
C929   C937    1.419   .     S
C929   O975    1.286   .     A
C929   O977    1.285   .     A
C930   C932    1.478   .     S
C930   C950    1.421   .     A
C930   C947    1.399   .     A
C931   C937    1.405   .     A
C931   O976    1.383   .     S
C931   C585    1.383   1_565 S
C932   O979    1.290   .     A
C932   O978    1.306   .     A
C933   H965    1.084   .     S
C933   C934    1.395   .     A
C934   C935    1.392   .     A
C934   C943    1.413   .     S
C935   H966    1.084   .     S
C936   H967    1.084   .     S
C936   C937    1.398   .     A
C936   C587    1.369   1_565 S
C938   N974    1.361   .     A
C938   H968    1.082   .     S
C938   C997    1.415   .     S
C939   N973    1.376   .     A
C939   Cl957   1.753   .     S
C940   C950    1.409   .     A
C940   C427    1.415   1_556 S
C940   C429    1.420   1_556 S
C941   H969    1.082   .     S
C941   N973    1.365   .     A
C942   H970    1.079   .     S
C942   N974    1.369   .     A
C942   C999    1.417   .     S
C943   O980    1.285   .     A
C943   O981    1.283   .     A
C944   O983    1.290   .     A
C944   C946    1.442   .     S
C944   O982    1.291   .     A
C945   C956    1.389   .     A
C946   C956    1.398   .     A
C946   C955    1.407   .     A
C947   C948    1.392   .     A
C947   H972    1.082   .     S
C948   C427    1.393   1_556 S
C948   H439    1.082   1_556 S
C949   H960    1.079   .     S
C950   C954    1.410   .     A
C951   C955    1.391   .     A
C952   C953    1.389   .     A
C952   C429    1.420   1_556 S
C952   C423    1.404   1_556 S
C953   H971    1.083   .     S
C953   C954    1.382   .     A
C954   H962    1.072   .     S
C955   O984    1.383   .     S
C956   H959    1.084   .     S
Cl958  C423    1.759   1_556 S
H963   O984    0.991   .     S
H964   O976    0.992   .     S
N973   Zn985   2.016   .     S
N974   Zn986   2.016   .     S
O975   Zn985   1.992   .     S
O977   Zn986   1.998   .     S
O978   Zn985   1.979   .     S
O979   Zn986   1.951   .     S
O980   Zn985   1.998   .     S
O981   Zn986   1.992   .     S
O982   Zn985   1.951   .     S
O983   Zn986   1.979   .     S
C987   C995    1.419   .     S
C987   O1033   1.286   .     A
C987   O1035   1.285   .     A
C988   C990    1.478   .     S
C988   C1008   1.421   .     A
C988   C1005   1.399   .     A
C989   C995    1.405   .     A
C989   O1034   1.383   .     S
C989   C643    1.383   1_565 S
C990   O1037   1.290   .     A
C990   O1036   1.306   .     A
C991   H1023   1.084   .     S
C991   C992    1.395   .     A
C992   C993    1.392   .     A
C992   C1001   1.413   .     S
C993   H1024   1.084   .     S
C994   H1025   1.084   .     S
C994   C995    1.398   .     A
C994   C645    1.369   1_565 S
C996   N1032   1.361   .     A
C996   H1026   1.082   .     S
C996   C881    1.415   1_655 S
C997   N1031   1.376   .     A
C997   Cl1015  1.753   .     S
C998   C1008   1.409   .     A
C998   C485    1.415   1_556 S
C998   C487    1.420   1_556 S
C999   H1027   1.082   .     S
C999   N1031   1.365   .     A
C1000  H1028   1.079   .     S
C1000  N1032   1.369   .     A
C1000  C883    1.417   1_655 S
C1001  O1038   1.285   .     A
C1001  O1039   1.283   .     A
C1002  O1041   1.290   .     A
C1002  C1004   1.442   .     S
C1002  O1040   1.291   .     A
C1003  C1014   1.389   .     A
C1004  C1014   1.398   .     A
C1004  C1013   1.407   .     A
C1005  C1006   1.392   .     A
C1005  H1030   1.082   .     S
C1006  C485    1.393   1_556 S
C1006  H497    1.082   1_556 S
C1007  H1018   1.079   .     S
C1008  C1012   1.410   .     A
C1009  C1013   1.391   .     A
C1010  C1011   1.389   .     A
C1010  C487    1.420   1_556 S
C1010  C481    1.404   1_556 S
C1011  H1029   1.083   .     S
C1011  C1012   1.382   .     A
C1012  H1020   1.072   .     S
C1013  O1042   1.383   .     S
C1014  H1017   1.084   .     S
Cl1016 C481    1.759   1_556 S
H1021  O1042   0.991   .     S
H1022  O1034   0.992   .     S
N1031  Zn1043  2.016   .     S
N1032  Zn1044  2.016   .     S
O1033  Zn1043  1.992   .     S
O1035  Zn1044  1.998   .     S
O1036  Zn1043  1.979   .     S
O1037  Zn1044  1.951   .     S
O1038  Zn1043  1.998   .     S
O1039  Zn1044  1.992   .     S
O1040  Zn1043  1.951   .     S
O1041  Zn1044  1.979   .     S
