data_str_m3_o10_o17_pcu_sym.8
_audit_creation_date              2020-01-03
_audit_creation_method            'Materials Studio'
_symmetry_space_group_name_H-M    'P1'
_symmetry_Int_Tables_number       1
_symmetry_cell_setting            triclinic
loop_
_symmetry_equiv_pos_as_xyz
  x,y,z
_cell_length_a                    23.3050
_cell_length_b                    25.6483
_cell_length_c                    29.7502
_cell_angle_alpha                 90.8411
_cell_angle_beta                  86.0538
_cell_angle_gamma                 93.5769
loop_
_atom_site_label
_atom_site_type_symbol
_atom_site_fract_x
_atom_site_fract_y
_atom_site_fract_z
_atom_site_U_iso_or_equiv
_atom_site_adp_type
_atom_site_occupancy
C1     C     0.18191   0.26490   0.24882   0.00000  Uiso   1.00
C2     C     0.20283   0.20308   0.40518   0.00000  Uiso   1.00
C3     C     0.16424   0.16835   0.11607   0.00000  Uiso   1.00
C4     C     0.16910   0.16498   0.38393   0.00000  Uiso   1.00
C5     C     0.19777   0.20679   0.09223   0.00000  Uiso   1.00
C6     C     0.13556   0.12654   0.40777   0.00000  Uiso   1.00
C7     C     0.19818   0.20758   0.04553   0.00000  Uiso   1.00
C8     C     0.13516   0.12575   0.45447   0.00000  Uiso   1.00
C9     C     0.16580   0.16750   0.02342   0.00000  Uiso   1.00
C10    C     0.16753   0.16583   0.47658   0.00000  Uiso   1.00
C11    C     0.13173   0.12896   0.04829   0.00000  Uiso   1.00
C12    C     0.15143   0.06844   0.25118   0.00000  Uiso   1.00
C13    C     0.20160   0.20437   0.45171   0.00000  Uiso   1.00
C14    C     0.23090   0.24667   0.02045   0.00000  Uiso   1.00
C15    C     0.10243   0.08667   0.47955   0.00000  Uiso   1.00
C16    C     0.22699   0.33236   0.05414   0.00000  Uiso   1.00
C17    C     0.10634   0.00097   0.44587   0.00000  Uiso   1.00
C18    C     0.23297   0.24420   0.47353   0.00000  Uiso   1.00
C19    C     0.10036   0.08913   0.02647   0.00000  Uiso   1.00
C20    C     0.18996   0.31939   0.24813   0.00000  Uiso   1.00
C21    C     0.14337   0.01394   0.25187   0.00000  Uiso   1.00
C22    C     0.16744   0.16625   0.33640   0.00000  Uiso   1.00
C23    C     0.16590   0.16708   0.16360   0.00000  Uiso   1.00
C24    C     0.13050   0.13025   0.09482   0.00000  Uiso   1.00
H25    H     0.10504   0.10074   0.11456   0.00000  Uiso   1.00
H26    H     0.32874   0.20574   0.28396   0.00000  Uiso   1.00
H27    H     0.30006   0.30044   0.02500   0.00000  Uiso   1.00
H28    H     0.21314   0.01730   0.02332   0.00000  Uiso   1.00
H29    H     0.25287   0.02875   0.07290   0.00000  Uiso   1.00
H30    H     0.18835   0.31947   0.07608   0.00000  Uiso   1.00
H31    H     0.03327   0.03289   0.47500   0.00000  Uiso   1.00
H32    H     0.12018   0.31603   0.47669   0.00000  Uiso   1.00
H33    H     0.14499   0.01386   0.42393   0.00000  Uiso   1.00
H34    H     0.08047   0.30459   0.42710   0.00000  Uiso   1.00
H35    H     0.22829   0.23259   0.38544   0.00000  Uiso   1.00
H36    H     0.22333   0.23574   0.11043   0.00000  Uiso   1.00
H37    H     0.11001   0.09759   0.38957   0.00000  Uiso   1.00
H38    H     0.25826   0.27406   0.45414   0.00000  Uiso   1.00
H39    H     0.07507   0.05928   0.04586   0.00000  Uiso   1.00
H40    H     0.23397   0.00305   0.24454   0.00000  Uiso   1.00
H41    H     0.09937   0.33029   0.25546   0.00000  Uiso   1.00
H42    H     0.00459   0.12759   0.21604   0.00000  Uiso   1.00
N43    N     0.31678   0.15265   0.23783   0.00000  Uiso   1.00
N44    N     0.01656   0.18068   0.26217   0.00000  Uiso   1.00
N45    N     0.26151   0.28863   0.04207   0.00000  Uiso   1.00
N46    N     0.07183   0.04471   0.45793   0.00000  Uiso   1.00
O47    O     0.12975   0.24619   0.25298   0.00000  Uiso   1.00
O48    O     0.20358   0.08714   0.24701   0.00000  Uiso   1.00
O49    O     0.22613   0.23721   0.24518   0.00000  Uiso   1.00
O50    O     0.10720   0.09613   0.25481   0.00000  Uiso   1.00
O51    O     0.11847   0.17117   0.31997   0.00000  Uiso   1.00
O52    O     0.21486   0.16216   0.18002   0.00000  Uiso   1.00
O53    O     0.21485   0.16219   0.31217   0.00000  Uiso   1.00
O54    O     0.11848   0.17115   0.18782   0.00000  Uiso   1.00
Zn55   Zn    0.10231   0.17266   0.25521   0.00000  Uiso   1.00
Zn56   Zn    0.23102   0.16067   0.24479   0.00000  Uiso   1.00
C57    C     0.51524   0.26490   0.24882   0.00000  Uiso   1.00
C58    C     0.53616   0.20308   0.40518   0.00000  Uiso   1.00
C59    C     0.49757   0.16835   0.11607   0.00000  Uiso   1.00
C60    C     0.50243   0.16498   0.38393   0.00000  Uiso   1.00
C61    C     0.53111   0.20679   0.09223   0.00000  Uiso   1.00
C62    C     0.46889   0.12654   0.40777   0.00000  Uiso   1.00
C63    C     0.53151   0.20758   0.04553   0.00000  Uiso   1.00
C64    C     0.46849   0.12575   0.45447   0.00000  Uiso   1.00
C65    C     0.49913   0.16750   0.02342   0.00000  Uiso   1.00
C66    C     0.50087   0.16583   0.47658   0.00000  Uiso   1.00
C67    C     0.46506   0.12896   0.04829   0.00000  Uiso   1.00
C68    C     0.48476   0.06844   0.25118   0.00000  Uiso   1.00
C69    C     0.53494   0.20437   0.45171   0.00000  Uiso   1.00
C70    C     0.56423   0.24667   0.02045   0.00000  Uiso   1.00
C71    C     0.43577   0.08667   0.47955   0.00000  Uiso   1.00
C72    C     0.56033   0.33236   0.05414   0.00000  Uiso   1.00
C73    C     0.43968   0.00097   0.44587   0.00000  Uiso   1.00
C74    C     0.56630   0.24420   0.47353   0.00000  Uiso   1.00
C75    C     0.43370   0.08913   0.02647   0.00000  Uiso   1.00
C76    C     0.52329   0.31939   0.24813   0.00000  Uiso   1.00
C77    C     0.47671   0.01394   0.25187   0.00000  Uiso   1.00
C78    C     0.50077   0.16625   0.33640   0.00000  Uiso   1.00
C79    C     0.49923   0.16708   0.16360   0.00000  Uiso   1.00
C80    C     0.46384   0.13025   0.09482   0.00000  Uiso   1.00
H81    H     0.43837   0.10074   0.11456   0.00000  Uiso   1.00
H82    H     0.66208   0.20574   0.28396   0.00000  Uiso   1.00
H83    H     0.63340   0.30044   0.02500   0.00000  Uiso   1.00
H84    H     0.54647   0.01730   0.02332   0.00000  Uiso   1.00
H85    H     0.58620   0.02875   0.07290   0.00000  Uiso   1.00
H86    H     0.52168   0.31947   0.07608   0.00000  Uiso   1.00
H87    H     0.36660   0.03289   0.47500   0.00000  Uiso   1.00
H88    H     0.45352   0.31603   0.47669   0.00000  Uiso   1.00
H89    H     0.47833   0.01386   0.42393   0.00000  Uiso   1.00
H90    H     0.41380   0.30459   0.42710   0.00000  Uiso   1.00
H91    H     0.56162   0.23259   0.38544   0.00000  Uiso   1.00
H92    H     0.55666   0.23574   0.11043   0.00000  Uiso   1.00
H93    H     0.44334   0.09759   0.38957   0.00000  Uiso   1.00
H94    H     0.59160   0.27406   0.45414   0.00000  Uiso   1.00
H95    H     0.40840   0.05928   0.04586   0.00000  Uiso   1.00
H96    H     0.56730   0.00305   0.24454   0.00000  Uiso   1.00
H97    H     0.43270   0.33029   0.25546   0.00000  Uiso   1.00
H98    H     0.33793   0.12759   0.21604   0.00000  Uiso   1.00
N99    N     0.65011   0.15265   0.23783   0.00000  Uiso   1.00
N100   N     0.34989   0.18068   0.26217   0.00000  Uiso   1.00
N101   N     0.59484   0.28863   0.04207   0.00000  Uiso   1.00
N102   N     0.40516   0.04471   0.45793   0.00000  Uiso   1.00
O103   O     0.46308   0.24619   0.25298   0.00000  Uiso   1.00
O104   O     0.53692   0.08714   0.24701   0.00000  Uiso   1.00
O105   O     0.55946   0.23721   0.24518   0.00000  Uiso   1.00
O106   O     0.44054   0.09613   0.25481   0.00000  Uiso   1.00
O107   O     0.45181   0.17117   0.31997   0.00000  Uiso   1.00
O108   O     0.54819   0.16216   0.18002   0.00000  Uiso   1.00
O109   O     0.54819   0.16219   0.31217   0.00000  Uiso   1.00
O110   O     0.45181   0.17115   0.18782   0.00000  Uiso   1.00
Zn111  Zn    0.43565   0.17266   0.25521   0.00000  Uiso   1.00
Zn112  Zn    0.56435   0.16067   0.24479   0.00000  Uiso   1.00
C113   C     0.84858   0.26490   0.24882   0.00000  Uiso   1.00
C114   C     0.86949   0.20308   0.40518   0.00000  Uiso   1.00
C115   C     0.83090   0.16835   0.11607   0.00000  Uiso   1.00
C116   C     0.83576   0.16498   0.38393   0.00000  Uiso   1.00
C117   C     0.86444   0.20679   0.09223   0.00000  Uiso   1.00
C118   C     0.80223   0.12654   0.40777   0.00000  Uiso   1.00
C119   C     0.86484   0.20758   0.04553   0.00000  Uiso   1.00
C120   C     0.80182   0.12575   0.45447   0.00000  Uiso   1.00
C121   C     0.83246   0.16750   0.02342   0.00000  Uiso   1.00
C122   C     0.83420   0.16583   0.47658   0.00000  Uiso   1.00
C123   C     0.79840   0.12896   0.04829   0.00000  Uiso   1.00
C124   C     0.81809   0.06844   0.25118   0.00000  Uiso   1.00
C125   C     0.86827   0.20437   0.45171   0.00000  Uiso   1.00
C126   C     0.89757   0.24667   0.02045   0.00000  Uiso   1.00
C127   C     0.76910   0.08667   0.47955   0.00000  Uiso   1.00
C128   C     0.89366   0.33236   0.05414   0.00000  Uiso   1.00
C129   C     0.77301   0.00097   0.44587   0.00000  Uiso   1.00
C130   C     0.89964   0.24420   0.47353   0.00000  Uiso   1.00
C131   C     0.76703   0.08913   0.02647   0.00000  Uiso   1.00
C132   C     0.85663   0.31939   0.24813   0.00000  Uiso   1.00
C133   C     0.81004   0.01394   0.25187   0.00000  Uiso   1.00
C134   C     0.83410   0.16625   0.33640   0.00000  Uiso   1.00
C135   C     0.83256   0.16708   0.16360   0.00000  Uiso   1.00
C136   C     0.79717   0.13025   0.09482   0.00000  Uiso   1.00
H137   H     0.77171   0.10074   0.11456   0.00000  Uiso   1.00
H138   H     0.99541   0.20574   0.28396   0.00000  Uiso   1.00
H139   H     0.96673   0.30044   0.02500   0.00000  Uiso   1.00
H140   H     0.87981   0.01730   0.02332   0.00000  Uiso   1.00
H141   H     0.91954   0.02875   0.07290   0.00000  Uiso   1.00
H142   H     0.85502   0.31947   0.07608   0.00000  Uiso   1.00
H143   H     0.69994   0.03289   0.47500   0.00000  Uiso   1.00
H144   H     0.78685   0.31603   0.47669   0.00000  Uiso   1.00
H145   H     0.81166   0.01386   0.42393   0.00000  Uiso   1.00
H146   H     0.74713   0.30459   0.42710   0.00000  Uiso   1.00
H147   H     0.89496   0.23259   0.38544   0.00000  Uiso   1.00
H148   H     0.88999   0.23574   0.11043   0.00000  Uiso   1.00
H149   H     0.77668   0.09759   0.38957   0.00000  Uiso   1.00
H150   H     0.92493   0.27406   0.45414   0.00000  Uiso   1.00
H151   H     0.74173   0.05928   0.04586   0.00000  Uiso   1.00
H152   H     0.90063   0.00305   0.24454   0.00000  Uiso   1.00
H153   H     0.76603   0.33029   0.25546   0.00000  Uiso   1.00
H154   H     0.67126   0.12759   0.21604   0.00000  Uiso   1.00
N155   N     0.98344   0.15265   0.23783   0.00000  Uiso   1.00
N156   N     0.68322   0.18068   0.26217   0.00000  Uiso   1.00
N157   N     0.92817   0.28863   0.04207   0.00000  Uiso   1.00
N158   N     0.73849   0.04471   0.45793   0.00000  Uiso   1.00
O159   O     0.79642   0.24619   0.25298   0.00000  Uiso   1.00
O160   O     0.87025   0.08714   0.24701   0.00000  Uiso   1.00
O161   O     0.89280   0.23721   0.24518   0.00000  Uiso   1.00
O162   O     0.77387   0.09613   0.25481   0.00000  Uiso   1.00
O163   O     0.78514   0.17117   0.31997   0.00000  Uiso   1.00
O164   O     0.88153   0.16216   0.18002   0.00000  Uiso   1.00
O165   O     0.88152   0.16219   0.31217   0.00000  Uiso   1.00
O166   O     0.78515   0.17115   0.18782   0.00000  Uiso   1.00
Zn167  Zn    0.76898   0.17266   0.25521   0.00000  Uiso   1.00
Zn168  Zn    0.89769   0.16067   0.24479   0.00000  Uiso   1.00
C169   C     0.18191   0.59823   0.24882   0.00000  Uiso   1.00
C170   C     0.20283   0.53641   0.40518   0.00000  Uiso   1.00
C171   C     0.16424   0.50168   0.11607   0.00000  Uiso   1.00
C172   C     0.16910   0.49832   0.38393   0.00000  Uiso   1.00
C173   C     0.19777   0.54012   0.09223   0.00000  Uiso   1.00
C174   C     0.13556   0.45988   0.40777   0.00000  Uiso   1.00
C175   C     0.19818   0.54091   0.04553   0.00000  Uiso   1.00
C176   C     0.13516   0.45909   0.45447   0.00000  Uiso   1.00
C177   C     0.16580   0.50083   0.02342   0.00000  Uiso   1.00
C178   C     0.16753   0.49917   0.47658   0.00000  Uiso   1.00
C179   C     0.13173   0.46229   0.04829   0.00000  Uiso   1.00
C180   C     0.15143   0.40177   0.25118   0.00000  Uiso   1.00
C181   C     0.20160   0.53771   0.45171   0.00000  Uiso   1.00
C182   C     0.23090   0.58000   0.02045   0.00000  Uiso   1.00
C183   C     0.10243   0.42000   0.47955   0.00000  Uiso   1.00
C184   C     0.22699   0.66569   0.05414   0.00000  Uiso   1.00
C185   C     0.10634   0.33431   0.44587   0.00000  Uiso   1.00
C186   C     0.23297   0.57753   0.47353   0.00000  Uiso   1.00
C187   C     0.10036   0.42247   0.02647   0.00000  Uiso   1.00
C188   C     0.18996   0.65273   0.24813   0.00000  Uiso   1.00
C189   C     0.14337   0.34727   0.25187   0.00000  Uiso   1.00
C190   C     0.16744   0.49959   0.33640   0.00000  Uiso   1.00
C191   C     0.16590   0.50041   0.16360   0.00000  Uiso   1.00
C192   C     0.13050   0.46359   0.09482   0.00000  Uiso   1.00
H193   H     0.10504   0.43408   0.11456   0.00000  Uiso   1.00
H194   H     0.32874   0.53907   0.28396   0.00000  Uiso   1.00
H195   H     0.30006   0.63378   0.02500   0.00000  Uiso   1.00
H196   H     0.21314   0.35063   0.02332   0.00000  Uiso   1.00
H197   H     0.25287   0.36208   0.07290   0.00000  Uiso   1.00
H198   H     0.18835   0.65281   0.07608   0.00000  Uiso   1.00
H199   H     0.03327   0.36623   0.47500   0.00000  Uiso   1.00
H200   H     0.12018   0.64937   0.47669   0.00000  Uiso   1.00
H201   H     0.14499   0.34719   0.42393   0.00000  Uiso   1.00
H202   H     0.08047   0.63792   0.42710   0.00000  Uiso   1.00
H203   H     0.22829   0.56592   0.38544   0.00000  Uiso   1.00
H204   H     0.22333   0.56907   0.11043   0.00000  Uiso   1.00
H205   H     0.11001   0.43093   0.38957   0.00000  Uiso   1.00
H206   H     0.25826   0.60739   0.45414   0.00000  Uiso   1.00
H207   H     0.07507   0.39261   0.04586   0.00000  Uiso   1.00
H208   H     0.23397   0.33638   0.24454   0.00000  Uiso   1.00
H209   H     0.09937   0.66362   0.25546   0.00000  Uiso   1.00
H210   H     0.00459   0.46093   0.21604   0.00000  Uiso   1.00
N211   N     0.31678   0.48598   0.23783   0.00000  Uiso   1.00
N212   N     0.01656   0.51402   0.26217   0.00000  Uiso   1.00
N213   N     0.26151   0.62196   0.04207   0.00000  Uiso   1.00
N214   N     0.07183   0.37804   0.45793   0.00000  Uiso   1.00
O215   O     0.12975   0.57952   0.25298   0.00000  Uiso   1.00
O216   O     0.20358   0.42048   0.24701   0.00000  Uiso   1.00
O217   O     0.22613   0.57054   0.24518   0.00000  Uiso   1.00
O218   O     0.10720   0.42946   0.25481   0.00000  Uiso   1.00
O219   O     0.11847   0.50450   0.31997   0.00000  Uiso   1.00
O220   O     0.21486   0.49550   0.18002   0.00000  Uiso   1.00
O221   O     0.21485   0.49552   0.31217   0.00000  Uiso   1.00
O222   O     0.11848   0.50448   0.18782   0.00000  Uiso   1.00
Zn223  Zn    0.10231   0.50600   0.25521   0.00000  Uiso   1.00
Zn224  Zn    0.23102   0.49400   0.24479   0.00000  Uiso   1.00
C225   C     0.51524   0.59823   0.24882   0.00000  Uiso   1.00
C226   C     0.53616   0.53641   0.40518   0.00000  Uiso   1.00
C227   C     0.49757   0.50168   0.11607   0.00000  Uiso   1.00
C228   C     0.50243   0.49832   0.38393   0.00000  Uiso   1.00
C229   C     0.53111   0.54012   0.09223   0.00000  Uiso   1.00
C230   C     0.46889   0.45988   0.40777   0.00000  Uiso   1.00
C231   C     0.53151   0.54091   0.04553   0.00000  Uiso   1.00
C232   C     0.46849   0.45909   0.45447   0.00000  Uiso   1.00
C233   C     0.49913   0.50083   0.02342   0.00000  Uiso   1.00
C234   C     0.50087   0.49917   0.47658   0.00000  Uiso   1.00
C235   C     0.46506   0.46229   0.04829   0.00000  Uiso   1.00
C236   C     0.48476   0.40177   0.25118   0.00000  Uiso   1.00
C237   C     0.53494   0.53771   0.45171   0.00000  Uiso   1.00
C238   C     0.56423   0.58000   0.02045   0.00000  Uiso   1.00
C239   C     0.43577   0.42000   0.47955   0.00000  Uiso   1.00
C240   C     0.56033   0.66569   0.05414   0.00000  Uiso   1.00
C241   C     0.43968   0.33431   0.44587   0.00000  Uiso   1.00
C242   C     0.56630   0.57753   0.47353   0.00000  Uiso   1.00
C243   C     0.43370   0.42247   0.02647   0.00000  Uiso   1.00
C244   C     0.52329   0.65273   0.24813   0.00000  Uiso   1.00
C245   C     0.47671   0.34727   0.25187   0.00000  Uiso   1.00
C246   C     0.50077   0.49959   0.33640   0.00000  Uiso   1.00
C247   C     0.49923   0.50041   0.16360   0.00000  Uiso   1.00
C248   C     0.46384   0.46359   0.09482   0.00000  Uiso   1.00
H249   H     0.43837   0.43408   0.11456   0.00000  Uiso   1.00
H250   H     0.66208   0.53907   0.28396   0.00000  Uiso   1.00
H251   H     0.63340   0.63378   0.02500   0.00000  Uiso   1.00
H252   H     0.54647   0.35063   0.02332   0.00000  Uiso   1.00
H253   H     0.58620   0.36208   0.07290   0.00000  Uiso   1.00
H254   H     0.52168   0.65281   0.07608   0.00000  Uiso   1.00
H255   H     0.36660   0.36623   0.47500   0.00000  Uiso   1.00
H256   H     0.45352   0.64937   0.47669   0.00000  Uiso   1.00
H257   H     0.47833   0.34719   0.42393   0.00000  Uiso   1.00
H258   H     0.41380   0.63792   0.42710   0.00000  Uiso   1.00
H259   H     0.56162   0.56592   0.38544   0.00000  Uiso   1.00
H260   H     0.55666   0.56907   0.11043   0.00000  Uiso   1.00
H261   H     0.44334   0.43093   0.38957   0.00000  Uiso   1.00
H262   H     0.59160   0.60739   0.45414   0.00000  Uiso   1.00
H263   H     0.40840   0.39261   0.04586   0.00000  Uiso   1.00
H264   H     0.56730   0.33638   0.24454   0.00000  Uiso   1.00
H265   H     0.43270   0.66362   0.25546   0.00000  Uiso   1.00
H266   H     0.33793   0.46093   0.21604   0.00000  Uiso   1.00
N267   N     0.65011   0.48598   0.23783   0.00000  Uiso   1.00
N268   N     0.34989   0.51402   0.26217   0.00000  Uiso   1.00
N269   N     0.59484   0.62196   0.04207   0.00000  Uiso   1.00
N270   N     0.40516   0.37804   0.45793   0.00000  Uiso   1.00
O271   O     0.46308   0.57952   0.25298   0.00000  Uiso   1.00
O272   O     0.53692   0.42048   0.24701   0.00000  Uiso   1.00
O273   O     0.55946   0.57054   0.24518   0.00000  Uiso   1.00
O274   O     0.44054   0.42946   0.25481   0.00000  Uiso   1.00
O275   O     0.45181   0.50450   0.31997   0.00000  Uiso   1.00
O276   O     0.54819   0.49550   0.18002   0.00000  Uiso   1.00
O277   O     0.54819   0.49552   0.31217   0.00000  Uiso   1.00
O278   O     0.45181   0.50448   0.18782   0.00000  Uiso   1.00
Zn279  Zn    0.43565   0.50600   0.25521   0.00000  Uiso   1.00
Zn280  Zn    0.56435   0.49400   0.24479   0.00000  Uiso   1.00
C281   C     0.84858   0.59823   0.24882   0.00000  Uiso   1.00
C282   C     0.86949   0.53641   0.40518   0.00000  Uiso   1.00
C283   C     0.83090   0.50168   0.11607   0.00000  Uiso   1.00
C284   C     0.83576   0.49832   0.38393   0.00000  Uiso   1.00
C285   C     0.86444   0.54012   0.09223   0.00000  Uiso   1.00
C286   C     0.80223   0.45988   0.40777   0.00000  Uiso   1.00
C287   C     0.86484   0.54091   0.04553   0.00000  Uiso   1.00
C288   C     0.80182   0.45909   0.45447   0.00000  Uiso   1.00
C289   C     0.83246   0.50083   0.02342   0.00000  Uiso   1.00
C290   C     0.83420   0.49917   0.47658   0.00000  Uiso   1.00
C291   C     0.79840   0.46229   0.04829   0.00000  Uiso   1.00
C292   C     0.81809   0.40177   0.25118   0.00000  Uiso   1.00
C293   C     0.86827   0.53771   0.45171   0.00000  Uiso   1.00
C294   C     0.89757   0.58000   0.02045   0.00000  Uiso   1.00
C295   C     0.76910   0.42000   0.47955   0.00000  Uiso   1.00
C296   C     0.89366   0.66569   0.05414   0.00000  Uiso   1.00
C297   C     0.77301   0.33431   0.44587   0.00000  Uiso   1.00
C298   C     0.89964   0.57753   0.47353   0.00000  Uiso   1.00
C299   C     0.76703   0.42247   0.02647   0.00000  Uiso   1.00
C300   C     0.85663   0.65273   0.24813   0.00000  Uiso   1.00
C301   C     0.81004   0.34727   0.25187   0.00000  Uiso   1.00
C302   C     0.83410   0.49959   0.33640   0.00000  Uiso   1.00
C303   C     0.83256   0.50041   0.16360   0.00000  Uiso   1.00
C304   C     0.79717   0.46359   0.09482   0.00000  Uiso   1.00
H305   H     0.77171   0.43408   0.11456   0.00000  Uiso   1.00
H306   H     0.99541   0.53907   0.28396   0.00000  Uiso   1.00
H307   H     0.96673   0.63378   0.02500   0.00000  Uiso   1.00
H308   H     0.87981   0.35063   0.02332   0.00000  Uiso   1.00
H309   H     0.91954   0.36208   0.07290   0.00000  Uiso   1.00
H310   H     0.85502   0.65281   0.07608   0.00000  Uiso   1.00
H311   H     0.69994   0.36623   0.47500   0.00000  Uiso   1.00
H312   H     0.78685   0.64937   0.47669   0.00000  Uiso   1.00
H313   H     0.81166   0.34719   0.42393   0.00000  Uiso   1.00
H314   H     0.74713   0.63792   0.42710   0.00000  Uiso   1.00
H315   H     0.89496   0.56592   0.38544   0.00000  Uiso   1.00
H316   H     0.88999   0.56907   0.11043   0.00000  Uiso   1.00
H317   H     0.77668   0.43093   0.38957   0.00000  Uiso   1.00
H318   H     0.92493   0.60739   0.45414   0.00000  Uiso   1.00
H319   H     0.74173   0.39261   0.04586   0.00000  Uiso   1.00
H320   H     0.90063   0.33638   0.24454   0.00000  Uiso   1.00
H321   H     0.76603   0.66362   0.25546   0.00000  Uiso   1.00
H322   H     0.67126   0.46093   0.21604   0.00000  Uiso   1.00
N323   N     0.98344   0.48598   0.23783   0.00000  Uiso   1.00
N324   N     0.68322   0.51402   0.26217   0.00000  Uiso   1.00
N325   N     0.92817   0.62196   0.04207   0.00000  Uiso   1.00
N326   N     0.73849   0.37804   0.45793   0.00000  Uiso   1.00
O327   O     0.79642   0.57952   0.25298   0.00000  Uiso   1.00
O328   O     0.87025   0.42048   0.24701   0.00000  Uiso   1.00
O329   O     0.89280   0.57054   0.24518   0.00000  Uiso   1.00
O330   O     0.77387   0.42946   0.25481   0.00000  Uiso   1.00
O331   O     0.78514   0.50450   0.31997   0.00000  Uiso   1.00
O332   O     0.88153   0.49550   0.18002   0.00000  Uiso   1.00
O333   O     0.88152   0.49552   0.31217   0.00000  Uiso   1.00
O334   O     0.78515   0.50448   0.18782   0.00000  Uiso   1.00
Zn335  Zn    0.76898   0.50600   0.25521   0.00000  Uiso   1.00
Zn336  Zn    0.89769   0.49400   0.24479   0.00000  Uiso   1.00
C337   C     0.18191   0.93156   0.24882   0.00000  Uiso   1.00
C338   C     0.20283   0.86975   0.40518   0.00000  Uiso   1.00
C339   C     0.16424   0.83502   0.11607   0.00000  Uiso   1.00
C340   C     0.16910   0.83165   0.38393   0.00000  Uiso   1.00
C341   C     0.19777   0.87346   0.09223   0.00000  Uiso   1.00
C342   C     0.13556   0.79321   0.40777   0.00000  Uiso   1.00
C343   C     0.19818   0.87425   0.04553   0.00000  Uiso   1.00
C344   C     0.13516   0.79242   0.45447   0.00000  Uiso   1.00
C345   C     0.16580   0.83417   0.02342   0.00000  Uiso   1.00
C346   C     0.16753   0.83250   0.47658   0.00000  Uiso   1.00
C347   C     0.13173   0.79563   0.04829   0.00000  Uiso   1.00
C348   C     0.15143   0.73510   0.25118   0.00000  Uiso   1.00
C349   C     0.20160   0.87104   0.45171   0.00000  Uiso   1.00
C350   C     0.23090   0.91333   0.02045   0.00000  Uiso   1.00
C351   C     0.10243   0.75333   0.47955   0.00000  Uiso   1.00
C352   C     0.22699   0.99902   0.05414   0.00000  Uiso   1.00
C353   C     0.10634   0.66764   0.44587   0.00000  Uiso   1.00
C354   C     0.23297   0.91087   0.47353   0.00000  Uiso   1.00
C355   C     0.10036   0.75580   0.02647   0.00000  Uiso   1.00
C356   C     0.18996   0.98606   0.24813   0.00000  Uiso   1.00
C357   C     0.14337   0.68061   0.25187   0.00000  Uiso   1.00
C358   C     0.16744   0.83292   0.33640   0.00000  Uiso   1.00
C359   C     0.16590   0.83375   0.16360   0.00000  Uiso   1.00
C360   C     0.13050   0.79692   0.09482   0.00000  Uiso   1.00
H361   H     0.10504   0.76741   0.11456   0.00000  Uiso   1.00
H362   H     0.32874   0.87241   0.28396   0.00000  Uiso   1.00
H363   H     0.30006   0.96711   0.02500   0.00000  Uiso   1.00
H364   H     0.21314   0.68397   0.02332   0.00000  Uiso   1.00
H365   H     0.25287   0.69541   0.07290   0.00000  Uiso   1.00
H366   H     0.18835   0.98614   0.07608   0.00000  Uiso   1.00
H367   H     0.03327   0.69956   0.47500   0.00000  Uiso   1.00
H368   H     0.12018   0.98270   0.47669   0.00000  Uiso   1.00
H369   H     0.14499   0.68052   0.42393   0.00000  Uiso   1.00
H370   H     0.08047   0.97126   0.42710   0.00000  Uiso   1.00
H371   H     0.22829   0.89926   0.38544   0.00000  Uiso   1.00
H372   H     0.22333   0.90240   0.11043   0.00000  Uiso   1.00
H373   H     0.11001   0.76426   0.38957   0.00000  Uiso   1.00
H374   H     0.25826   0.94073   0.45414   0.00000  Uiso   1.00
H375   H     0.07507   0.72594   0.04586   0.00000  Uiso   1.00
H376   H     0.23397   0.66971   0.24454   0.00000  Uiso   1.00
H377   H     0.09937   0.99695   0.25546   0.00000  Uiso   1.00
H378   H     0.00459   0.79426   0.21604   0.00000  Uiso   1.00
N379   N     0.31678   0.81932   0.23783   0.00000  Uiso   1.00
N380   N     0.01656   0.84735   0.26217   0.00000  Uiso   1.00
N381   N     0.26151   0.95529   0.04207   0.00000  Uiso   1.00
N382   N     0.07183   0.71137   0.45793   0.00000  Uiso   1.00
O383   O     0.12975   0.91286   0.25298   0.00000  Uiso   1.00
O384   O     0.20358   0.75381   0.24701   0.00000  Uiso   1.00
O385   O     0.22613   0.90387   0.24518   0.00000  Uiso   1.00
O386   O     0.10720   0.76279   0.25481   0.00000  Uiso   1.00
O387   O     0.11847   0.83784   0.31997   0.00000  Uiso   1.00
O388   O     0.21486   0.82883   0.18002   0.00000  Uiso   1.00
O389   O     0.21485   0.82885   0.31217   0.00000  Uiso   1.00
O390   O     0.11848   0.83781   0.18782   0.00000  Uiso   1.00
Zn391  Zn    0.10231   0.83933   0.25521   0.00000  Uiso   1.00
Zn392  Zn    0.23102   0.82734   0.24479   0.00000  Uiso   1.00
C393   C     0.51524   0.93156   0.24882   0.00000  Uiso   1.00
C394   C     0.53616   0.86975   0.40518   0.00000  Uiso   1.00
C395   C     0.49757   0.83502   0.11607   0.00000  Uiso   1.00
C396   C     0.50243   0.83165   0.38393   0.00000  Uiso   1.00
C397   C     0.53111   0.87346   0.09223   0.00000  Uiso   1.00
C398   C     0.46889   0.79321   0.40777   0.00000  Uiso   1.00
C399   C     0.53151   0.87425   0.04553   0.00000  Uiso   1.00
C400   C     0.46849   0.79242   0.45447   0.00000  Uiso   1.00
C401   C     0.49913   0.83417   0.02342   0.00000  Uiso   1.00
C402   C     0.50087   0.83250   0.47658   0.00000  Uiso   1.00
C403   C     0.46506   0.79563   0.04829   0.00000  Uiso   1.00
C404   C     0.48476   0.73510   0.25118   0.00000  Uiso   1.00
C405   C     0.53494   0.87104   0.45171   0.00000  Uiso   1.00
C406   C     0.56423   0.91333   0.02045   0.00000  Uiso   1.00
C407   C     0.43577   0.75333   0.47955   0.00000  Uiso   1.00
C408   C     0.56033   0.99902   0.05414   0.00000  Uiso   1.00
C409   C     0.43968   0.66764   0.44587   0.00000  Uiso   1.00
C410   C     0.56630   0.91087   0.47353   0.00000  Uiso   1.00
C411   C     0.43370   0.75580   0.02647   0.00000  Uiso   1.00
C412   C     0.52329   0.98606   0.24813   0.00000  Uiso   1.00
C413   C     0.47671   0.68061   0.25187   0.00000  Uiso   1.00
C414   C     0.50077   0.83292   0.33640   0.00000  Uiso   1.00
C415   C     0.49923   0.83375   0.16360   0.00000  Uiso   1.00
C416   C     0.46384   0.79692   0.09482   0.00000  Uiso   1.00
H417   H     0.43837   0.76741   0.11456   0.00000  Uiso   1.00
H418   H     0.66208   0.87241   0.28396   0.00000  Uiso   1.00
H419   H     0.63340   0.96711   0.02500   0.00000  Uiso   1.00
H420   H     0.54647   0.68397   0.02332   0.00000  Uiso   1.00
H421   H     0.58620   0.69541   0.07290   0.00000  Uiso   1.00
H422   H     0.52168   0.98614   0.07608   0.00000  Uiso   1.00
H423   H     0.36660   0.69956   0.47500   0.00000  Uiso   1.00
H424   H     0.45352   0.98270   0.47669   0.00000  Uiso   1.00
H425   H     0.47833   0.68052   0.42393   0.00000  Uiso   1.00
H426   H     0.41380   0.97126   0.42710   0.00000  Uiso   1.00
H427   H     0.56162   0.89926   0.38544   0.00000  Uiso   1.00
H428   H     0.55666   0.90240   0.11043   0.00000  Uiso   1.00
H429   H     0.44334   0.76426   0.38957   0.00000  Uiso   1.00
H430   H     0.59160   0.94073   0.45414   0.00000  Uiso   1.00
H431   H     0.40840   0.72594   0.04586   0.00000  Uiso   1.00
H432   H     0.56730   0.66971   0.24454   0.00000  Uiso   1.00
H433   H     0.43270   0.99695   0.25546   0.00000  Uiso   1.00
H434   H     0.33793   0.79426   0.21604   0.00000  Uiso   1.00
N435   N     0.65011   0.81932   0.23783   0.00000  Uiso   1.00
N436   N     0.34989   0.84735   0.26217   0.00000  Uiso   1.00
N437   N     0.59484   0.95529   0.04207   0.00000  Uiso   1.00
N438   N     0.40516   0.71137   0.45793   0.00000  Uiso   1.00
O439   O     0.46308   0.91286   0.25298   0.00000  Uiso   1.00
O440   O     0.53692   0.75381   0.24701   0.00000  Uiso   1.00
O441   O     0.55946   0.90387   0.24518   0.00000  Uiso   1.00
O442   O     0.44054   0.76279   0.25481   0.00000  Uiso   1.00
O443   O     0.45181   0.83784   0.31997   0.00000  Uiso   1.00
O444   O     0.54819   0.82883   0.18002   0.00000  Uiso   1.00
O445   O     0.54819   0.82885   0.31217   0.00000  Uiso   1.00
O446   O     0.45181   0.83781   0.18782   0.00000  Uiso   1.00
Zn447  Zn    0.43565   0.83933   0.25521   0.00000  Uiso   1.00
Zn448  Zn    0.56435   0.82734   0.24479   0.00000  Uiso   1.00
C449   C     0.84858   0.93156   0.24882   0.00000  Uiso   1.00
C450   C     0.86949   0.86975   0.40518   0.00000  Uiso   1.00
C451   C     0.83090   0.83502   0.11607   0.00000  Uiso   1.00
C452   C     0.83576   0.83165   0.38393   0.00000  Uiso   1.00
C453   C     0.86444   0.87346   0.09223   0.00000  Uiso   1.00
C454   C     0.80223   0.79321   0.40777   0.00000  Uiso   1.00
C455   C     0.86484   0.87425   0.04553   0.00000  Uiso   1.00
C456   C     0.80182   0.79242   0.45447   0.00000  Uiso   1.00
C457   C     0.83246   0.83417   0.02342   0.00000  Uiso   1.00
C458   C     0.83420   0.83250   0.47658   0.00000  Uiso   1.00
C459   C     0.79840   0.79563   0.04829   0.00000  Uiso   1.00
C460   C     0.81809   0.73510   0.25118   0.00000  Uiso   1.00
C461   C     0.86827   0.87104   0.45171   0.00000  Uiso   1.00
C462   C     0.89757   0.91333   0.02045   0.00000  Uiso   1.00
C463   C     0.76910   0.75333   0.47955   0.00000  Uiso   1.00
C464   C     0.89366   0.99902   0.05414   0.00000  Uiso   1.00
C465   C     0.77301   0.66764   0.44587   0.00000  Uiso   1.00
C466   C     0.89964   0.91087   0.47353   0.00000  Uiso   1.00
C467   C     0.76703   0.75580   0.02647   0.00000  Uiso   1.00
C468   C     0.85663   0.98606   0.24813   0.00000  Uiso   1.00
C469   C     0.81004   0.68061   0.25187   0.00000  Uiso   1.00
C470   C     0.83410   0.83292   0.33640   0.00000  Uiso   1.00
C471   C     0.83256   0.83375   0.16360   0.00000  Uiso   1.00
C472   C     0.79717   0.79692   0.09482   0.00000  Uiso   1.00
H473   H     0.77171   0.76741   0.11456   0.00000  Uiso   1.00
H474   H     0.99541   0.87241   0.28396   0.00000  Uiso   1.00
H475   H     0.96673   0.96711   0.02500   0.00000  Uiso   1.00
H476   H     0.87981   0.68397   0.02332   0.00000  Uiso   1.00
H477   H     0.91954   0.69541   0.07290   0.00000  Uiso   1.00
H478   H     0.85502   0.98614   0.07608   0.00000  Uiso   1.00
H479   H     0.69994   0.69956   0.47500   0.00000  Uiso   1.00
H480   H     0.78685   0.98270   0.47669   0.00000  Uiso   1.00
H481   H     0.81166   0.68052   0.42393   0.00000  Uiso   1.00
H482   H     0.74713   0.97126   0.42710   0.00000  Uiso   1.00
H483   H     0.89496   0.89926   0.38544   0.00000  Uiso   1.00
H484   H     0.88999   0.90240   0.11043   0.00000  Uiso   1.00
H485   H     0.77668   0.76426   0.38957   0.00000  Uiso   1.00
H486   H     0.92493   0.94073   0.45414   0.00000  Uiso   1.00
H487   H     0.74173   0.72594   0.04586   0.00000  Uiso   1.00
H488   H     0.90063   0.66971   0.24454   0.00000  Uiso   1.00
H489   H     0.76603   0.99695   0.25546   0.00000  Uiso   1.00
H490   H     0.67126   0.79426   0.21604   0.00000  Uiso   1.00
N491   N     0.98344   0.81932   0.23783   0.00000  Uiso   1.00
N492   N     0.68322   0.84735   0.26217   0.00000  Uiso   1.00
N493   N     0.92817   0.95529   0.04207   0.00000  Uiso   1.00
N494   N     0.73849   0.71137   0.45793   0.00000  Uiso   1.00
O495   O     0.79642   0.91286   0.25298   0.00000  Uiso   1.00
O496   O     0.87025   0.75381   0.24701   0.00000  Uiso   1.00
O497   O     0.89280   0.90387   0.24518   0.00000  Uiso   1.00
O498   O     0.77387   0.76279   0.25481   0.00000  Uiso   1.00
O499   O     0.78514   0.83784   0.31997   0.00000  Uiso   1.00
O500   O     0.88153   0.82883   0.18002   0.00000  Uiso   1.00
O501   O     0.88152   0.82885   0.31217   0.00000  Uiso   1.00
O502   O     0.78515   0.83781   0.18782   0.00000  Uiso   1.00
Zn503  Zn    0.76898   0.83933   0.25521   0.00000  Uiso   1.00
Zn504  Zn    0.89769   0.82734   0.24479   0.00000  Uiso   1.00
C505   C     0.18191   0.26490   0.74882   0.00000  Uiso   1.00
C506   C     0.20283   0.20308   0.90518   0.00000  Uiso   1.00
C507   C     0.16424   0.16835   0.61607   0.00000  Uiso   1.00
C508   C     0.16910   0.16498   0.88393   0.00000  Uiso   1.00
C509   C     0.19777   0.20679   0.59223   0.00000  Uiso   1.00
C510   C     0.13556   0.12654   0.90777   0.00000  Uiso   1.00
C511   C     0.19818   0.20758   0.54553   0.00000  Uiso   1.00
C512   C     0.13516   0.12575   0.95447   0.00000  Uiso   1.00
C513   C     0.16580   0.16750   0.52342   0.00000  Uiso   1.00
C514   C     0.16753   0.16583   0.97658   0.00000  Uiso   1.00
C515   C     0.13173   0.12896   0.54829   0.00000  Uiso   1.00
C516   C     0.15143   0.06844   0.75118   0.00000  Uiso   1.00
C517   C     0.20160   0.20437   0.95171   0.00000  Uiso   1.00
C518   C     0.23090   0.24667   0.52045   0.00000  Uiso   1.00
C519   C     0.10243   0.08667   0.97955   0.00000  Uiso   1.00
C520   C     0.22699   0.33236   0.55414   0.00000  Uiso   1.00
C521   C     0.10634   0.00097   0.94587   0.00000  Uiso   1.00
C522   C     0.23297   0.24420   0.97353   0.00000  Uiso   1.00
C523   C     0.10036   0.08913   0.52647   0.00000  Uiso   1.00
C524   C     0.18996   0.31939   0.74813   0.00000  Uiso   1.00
C525   C     0.14337   0.01394   0.75187   0.00000  Uiso   1.00
C526   C     0.16744   0.16625   0.83640   0.00000  Uiso   1.00
C527   C     0.16590   0.16708   0.66360   0.00000  Uiso   1.00
C528   C     0.13050   0.13025   0.59482   0.00000  Uiso   1.00
H529   H     0.10504   0.10074   0.61456   0.00000  Uiso   1.00
H530   H     0.32874   0.20574   0.78396   0.00000  Uiso   1.00
H531   H     0.30006   0.30044   0.52500   0.00000  Uiso   1.00
H532   H     0.21314   0.01730   0.52332   0.00000  Uiso   1.00
H533   H     0.25287   0.02875   0.57290   0.00000  Uiso   1.00
H534   H     0.18835   0.31947   0.57608   0.00000  Uiso   1.00
H535   H     0.03327   0.03289   0.97500   0.00000  Uiso   1.00
H536   H     0.12018   0.31603   0.97669   0.00000  Uiso   1.00
H537   H     0.14499   0.01386   0.92393   0.00000  Uiso   1.00
H538   H     0.08047   0.30459   0.92710   0.00000  Uiso   1.00
H539   H     0.22829   0.23259   0.88544   0.00000  Uiso   1.00
H540   H     0.22333   0.23574   0.61043   0.00000  Uiso   1.00
H541   H     0.11001   0.09759   0.88957   0.00000  Uiso   1.00
H542   H     0.25826   0.27406   0.95414   0.00000  Uiso   1.00
H543   H     0.07507   0.05928   0.54586   0.00000  Uiso   1.00
H544   H     0.23397   0.00305   0.74454   0.00000  Uiso   1.00
H545   H     0.09937   0.33029   0.75546   0.00000  Uiso   1.00
H546   H     0.00459   0.12759   0.71604   0.00000  Uiso   1.00
N547   N     0.31678   0.15265   0.73783   0.00000  Uiso   1.00
N548   N     0.01656   0.18068   0.76217   0.00000  Uiso   1.00
N549   N     0.26151   0.28863   0.54207   0.00000  Uiso   1.00
N550   N     0.07183   0.04471   0.95793   0.00000  Uiso   1.00
O551   O     0.12975   0.24619   0.75298   0.00000  Uiso   1.00
O552   O     0.20358   0.08714   0.74701   0.00000  Uiso   1.00
O553   O     0.22613   0.23721   0.74518   0.00000  Uiso   1.00
O554   O     0.10720   0.09613   0.75481   0.00000  Uiso   1.00
O555   O     0.11847   0.17117   0.81997   0.00000  Uiso   1.00
O556   O     0.21486   0.16216   0.68002   0.00000  Uiso   1.00
O557   O     0.21485   0.16219   0.81217   0.00000  Uiso   1.00
O558   O     0.11848   0.17115   0.68782   0.00000  Uiso   1.00
Zn559  Zn    0.10231   0.17266   0.75521   0.00000  Uiso   1.00
Zn560  Zn    0.23102   0.16067   0.74479   0.00000  Uiso   1.00
C561   C     0.51524   0.26490   0.74882   0.00000  Uiso   1.00
C562   C     0.53616   0.20308   0.90518   0.00000  Uiso   1.00
C563   C     0.49757   0.16835   0.61607   0.00000  Uiso   1.00
C564   C     0.50243   0.16498   0.88393   0.00000  Uiso   1.00
C565   C     0.53111   0.20679   0.59223   0.00000  Uiso   1.00
C566   C     0.46889   0.12654   0.90777   0.00000  Uiso   1.00
C567   C     0.53151   0.20758   0.54553   0.00000  Uiso   1.00
C568   C     0.46849   0.12575   0.95447   0.00000  Uiso   1.00
C569   C     0.49913   0.16750   0.52342   0.00000  Uiso   1.00
C570   C     0.50087   0.16583   0.97658   0.00000  Uiso   1.00
C571   C     0.46506   0.12896   0.54829   0.00000  Uiso   1.00
C572   C     0.48476   0.06844   0.75118   0.00000  Uiso   1.00
C573   C     0.53494   0.20437   0.95171   0.00000  Uiso   1.00
C574   C     0.56423   0.24667   0.52045   0.00000  Uiso   1.00
C575   C     0.43577   0.08667   0.97955   0.00000  Uiso   1.00
C576   C     0.56033   0.33236   0.55414   0.00000  Uiso   1.00
C577   C     0.43968   0.00097   0.94587   0.00000  Uiso   1.00
C578   C     0.56630   0.24420   0.97353   0.00000  Uiso   1.00
C579   C     0.43370   0.08913   0.52647   0.00000  Uiso   1.00
C580   C     0.52329   0.31939   0.74813   0.00000  Uiso   1.00
C581   C     0.47671   0.01394   0.75187   0.00000  Uiso   1.00
C582   C     0.50077   0.16625   0.83640   0.00000  Uiso   1.00
C583   C     0.49923   0.16708   0.66360   0.00000  Uiso   1.00
C584   C     0.46384   0.13025   0.59482   0.00000  Uiso   1.00
H585   H     0.43837   0.10074   0.61456   0.00000  Uiso   1.00
H586   H     0.66208   0.20574   0.78396   0.00000  Uiso   1.00
H587   H     0.63340   0.30044   0.52500   0.00000  Uiso   1.00
H588   H     0.54647   0.01730   0.52332   0.00000  Uiso   1.00
H589   H     0.58620   0.02875   0.57290   0.00000  Uiso   1.00
H590   H     0.52168   0.31947   0.57608   0.00000  Uiso   1.00
H591   H     0.36660   0.03289   0.97500   0.00000  Uiso   1.00
H592   H     0.45352   0.31603   0.97669   0.00000  Uiso   1.00
H593   H     0.47833   0.01386   0.92393   0.00000  Uiso   1.00
H594   H     0.41380   0.30459   0.92710   0.00000  Uiso   1.00
H595   H     0.56162   0.23259   0.88544   0.00000  Uiso   1.00
H596   H     0.55666   0.23574   0.61043   0.00000  Uiso   1.00
H597   H     0.44334   0.09759   0.88957   0.00000  Uiso   1.00
H598   H     0.59160   0.27406   0.95414   0.00000  Uiso   1.00
H599   H     0.40840   0.05928   0.54586   0.00000  Uiso   1.00
H600   H     0.56730   0.00305   0.74454   0.00000  Uiso   1.00
H601   H     0.43270   0.33029   0.75546   0.00000  Uiso   1.00
H602   H     0.33793   0.12759   0.71604   0.00000  Uiso   1.00
N603   N     0.65011   0.15265   0.73783   0.00000  Uiso   1.00
N604   N     0.34989   0.18068   0.76217   0.00000  Uiso   1.00
N605   N     0.59484   0.28863   0.54207   0.00000  Uiso   1.00
N606   N     0.40516   0.04471   0.95793   0.00000  Uiso   1.00
O607   O     0.46308   0.24619   0.75298   0.00000  Uiso   1.00
O608   O     0.53692   0.08714   0.74701   0.00000  Uiso   1.00
O609   O     0.55946   0.23721   0.74518   0.00000  Uiso   1.00
O610   O     0.44054   0.09613   0.75481   0.00000  Uiso   1.00
O611   O     0.45181   0.17117   0.81997   0.00000  Uiso   1.00
O612   O     0.54819   0.16216   0.68002   0.00000  Uiso   1.00
O613   O     0.54819   0.16219   0.81217   0.00000  Uiso   1.00
O614   O     0.45181   0.17115   0.68782   0.00000  Uiso   1.00
Zn615  Zn    0.43565   0.17266   0.75521   0.00000  Uiso   1.00
Zn616  Zn    0.56435   0.16067   0.74479   0.00000  Uiso   1.00
C617   C     0.84858   0.26490   0.74882   0.00000  Uiso   1.00
C618   C     0.86949   0.20308   0.90518   0.00000  Uiso   1.00
C619   C     0.83090   0.16835   0.61607   0.00000  Uiso   1.00
C620   C     0.83576   0.16498   0.88393   0.00000  Uiso   1.00
C621   C     0.86444   0.20679   0.59223   0.00000  Uiso   1.00
C622   C     0.80223   0.12654   0.90777   0.00000  Uiso   1.00
C623   C     0.86484   0.20758   0.54553   0.00000  Uiso   1.00
C624   C     0.80182   0.12575   0.95447   0.00000  Uiso   1.00
C625   C     0.83246   0.16750   0.52342   0.00000  Uiso   1.00
C626   C     0.83420   0.16583   0.97658   0.00000  Uiso   1.00
C627   C     0.79840   0.12896   0.54829   0.00000  Uiso   1.00
C628   C     0.81809   0.06844   0.75118   0.00000  Uiso   1.00
C629   C     0.86827   0.20437   0.95171   0.00000  Uiso   1.00
C630   C     0.89757   0.24667   0.52045   0.00000  Uiso   1.00
C631   C     0.76910   0.08667   0.97955   0.00000  Uiso   1.00
C632   C     0.89366   0.33236   0.55414   0.00000  Uiso   1.00
C633   C     0.77301   0.00097   0.94587   0.00000  Uiso   1.00
C634   C     0.89964   0.24420   0.97353   0.00000  Uiso   1.00
C635   C     0.76703   0.08913   0.52647   0.00000  Uiso   1.00
C636   C     0.85663   0.31939   0.74813   0.00000  Uiso   1.00
C637   C     0.81004   0.01394   0.75187   0.00000  Uiso   1.00
C638   C     0.83410   0.16625   0.83640   0.00000  Uiso   1.00
C639   C     0.83256   0.16708   0.66360   0.00000  Uiso   1.00
C640   C     0.79717   0.13025   0.59482   0.00000  Uiso   1.00
H641   H     0.77171   0.10074   0.61456   0.00000  Uiso   1.00
H642   H     0.99541   0.20574   0.78396   0.00000  Uiso   1.00
H643   H     0.96673   0.30044   0.52500   0.00000  Uiso   1.00
H644   H     0.87981   0.01730   0.52332   0.00000  Uiso   1.00
H645   H     0.91954   0.02875   0.57290   0.00000  Uiso   1.00
H646   H     0.85502   0.31947   0.57608   0.00000  Uiso   1.00
H647   H     0.69994   0.03289   0.97500   0.00000  Uiso   1.00
H648   H     0.78685   0.31603   0.97669   0.00000  Uiso   1.00
H649   H     0.81166   0.01386   0.92393   0.00000  Uiso   1.00
H650   H     0.74713   0.30459   0.92710   0.00000  Uiso   1.00
H651   H     0.89496   0.23259   0.88544   0.00000  Uiso   1.00
H652   H     0.88999   0.23574   0.61043   0.00000  Uiso   1.00
H653   H     0.77668   0.09759   0.88957   0.00000  Uiso   1.00
H654   H     0.92493   0.27406   0.95414   0.00000  Uiso   1.00
H655   H     0.74173   0.05928   0.54586   0.00000  Uiso   1.00
H656   H     0.90063   0.00305   0.74454   0.00000  Uiso   1.00
H657   H     0.76603   0.33029   0.75546   0.00000  Uiso   1.00
H658   H     0.67126   0.12759   0.71604   0.00000  Uiso   1.00
N659   N     0.98344   0.15265   0.73783   0.00000  Uiso   1.00
N660   N     0.68322   0.18068   0.76217   0.00000  Uiso   1.00
N661   N     0.92817   0.28863   0.54207   0.00000  Uiso   1.00
N662   N     0.73849   0.04471   0.95793   0.00000  Uiso   1.00
O663   O     0.79642   0.24619   0.75298   0.00000  Uiso   1.00
O664   O     0.87025   0.08714   0.74701   0.00000  Uiso   1.00
O665   O     0.89280   0.23721   0.74518   0.00000  Uiso   1.00
O666   O     0.77387   0.09613   0.75481   0.00000  Uiso   1.00
O667   O     0.78514   0.17117   0.81997   0.00000  Uiso   1.00
O668   O     0.88153   0.16216   0.68002   0.00000  Uiso   1.00
O669   O     0.88152   0.16219   0.81217   0.00000  Uiso   1.00
O670   O     0.78515   0.17115   0.68782   0.00000  Uiso   1.00
Zn671  Zn    0.76898   0.17266   0.75521   0.00000  Uiso   1.00
Zn672  Zn    0.89769   0.16067   0.74479   0.00000  Uiso   1.00
C673   C     0.18191   0.59823   0.74882   0.00000  Uiso   1.00
C674   C     0.20283   0.53641   0.90518   0.00000  Uiso   1.00
C675   C     0.16424   0.50168   0.61607   0.00000  Uiso   1.00
C676   C     0.16910   0.49832   0.88393   0.00000  Uiso   1.00
C677   C     0.19777   0.54012   0.59223   0.00000  Uiso   1.00
C678   C     0.13556   0.45988   0.90777   0.00000  Uiso   1.00
C679   C     0.19818   0.54091   0.54553   0.00000  Uiso   1.00
C680   C     0.13516   0.45909   0.95447   0.00000  Uiso   1.00
C681   C     0.16580   0.50083   0.52342   0.00000  Uiso   1.00
C682   C     0.16753   0.49917   0.97658   0.00000  Uiso   1.00
C683   C     0.13173   0.46229   0.54829   0.00000  Uiso   1.00
C684   C     0.15143   0.40177   0.75118   0.00000  Uiso   1.00
C685   C     0.20160   0.53771   0.95171   0.00000  Uiso   1.00
C686   C     0.23090   0.58000   0.52045   0.00000  Uiso   1.00
C687   C     0.10243   0.42000   0.97955   0.00000  Uiso   1.00
C688   C     0.22699   0.66569   0.55414   0.00000  Uiso   1.00
C689   C     0.10634   0.33431   0.94587   0.00000  Uiso   1.00
C690   C     0.23297   0.57753   0.97353   0.00000  Uiso   1.00
C691   C     0.10036   0.42247   0.52647   0.00000  Uiso   1.00
C692   C     0.18996   0.65273   0.74813   0.00000  Uiso   1.00
C693   C     0.14337   0.34727   0.75187   0.00000  Uiso   1.00
C694   C     0.16744   0.49959   0.83640   0.00000  Uiso   1.00
C695   C     0.16590   0.50041   0.66360   0.00000  Uiso   1.00
C696   C     0.13050   0.46359   0.59482   0.00000  Uiso   1.00
H697   H     0.10504   0.43408   0.61456   0.00000  Uiso   1.00
H698   H     0.32874   0.53907   0.78396   0.00000  Uiso   1.00
H699   H     0.30006   0.63378   0.52500   0.00000  Uiso   1.00
H700   H     0.21314   0.35063   0.52332   0.00000  Uiso   1.00
H701   H     0.25287   0.36208   0.57290   0.00000  Uiso   1.00
H702   H     0.18835   0.65281   0.57608   0.00000  Uiso   1.00
H703   H     0.03327   0.36623   0.97500   0.00000  Uiso   1.00
H704   H     0.12018   0.64937   0.97669   0.00000  Uiso   1.00
H705   H     0.14499   0.34719   0.92393   0.00000  Uiso   1.00
H706   H     0.08047   0.63792   0.92710   0.00000  Uiso   1.00
H707   H     0.22829   0.56592   0.88544   0.00000  Uiso   1.00
H708   H     0.22333   0.56907   0.61043   0.00000  Uiso   1.00
H709   H     0.11001   0.43093   0.88957   0.00000  Uiso   1.00
H710   H     0.25826   0.60739   0.95414   0.00000  Uiso   1.00
H711   H     0.07507   0.39261   0.54586   0.00000  Uiso   1.00
H712   H     0.23397   0.33638   0.74454   0.00000  Uiso   1.00
H713   H     0.09937   0.66362   0.75546   0.00000  Uiso   1.00
H714   H     0.00459   0.46093   0.71604   0.00000  Uiso   1.00
N715   N     0.31678   0.48598   0.73783   0.00000  Uiso   1.00
N716   N     0.01656   0.51402   0.76217   0.00000  Uiso   1.00
N717   N     0.26151   0.62196   0.54207   0.00000  Uiso   1.00
N718   N     0.07183   0.37804   0.95793   0.00000  Uiso   1.00
O719   O     0.12975   0.57952   0.75298   0.00000  Uiso   1.00
O720   O     0.20358   0.42048   0.74701   0.00000  Uiso   1.00
O721   O     0.22613   0.57054   0.74518   0.00000  Uiso   1.00
O722   O     0.10720   0.42946   0.75481   0.00000  Uiso   1.00
O723   O     0.11847   0.50450   0.81997   0.00000  Uiso   1.00
O724   O     0.21486   0.49550   0.68002   0.00000  Uiso   1.00
O725   O     0.21485   0.49552   0.81217   0.00000  Uiso   1.00
O726   O     0.11848   0.50448   0.68782   0.00000  Uiso   1.00
Zn727  Zn    0.10231   0.50600   0.75521   0.00000  Uiso   1.00
Zn728  Zn    0.23102   0.49400   0.74479   0.00000  Uiso   1.00
C729   C     0.51524   0.59823   0.74882   0.00000  Uiso   1.00
C730   C     0.53616   0.53641   0.90518   0.00000  Uiso   1.00
C731   C     0.49757   0.50168   0.61607   0.00000  Uiso   1.00
C732   C     0.50243   0.49832   0.88393   0.00000  Uiso   1.00
C733   C     0.53111   0.54012   0.59223   0.00000  Uiso   1.00
C734   C     0.46889   0.45988   0.90777   0.00000  Uiso   1.00
C735   C     0.53151   0.54091   0.54553   0.00000  Uiso   1.00
C736   C     0.46849   0.45909   0.95447   0.00000  Uiso   1.00
C737   C     0.49913   0.50083   0.52342   0.00000  Uiso   1.00
C738   C     0.50087   0.49917   0.97658   0.00000  Uiso   1.00
C739   C     0.46506   0.46229   0.54829   0.00000  Uiso   1.00
C740   C     0.48476   0.40177   0.75118   0.00000  Uiso   1.00
C741   C     0.53494   0.53771   0.95171   0.00000  Uiso   1.00
C742   C     0.56423   0.58000   0.52045   0.00000  Uiso   1.00
C743   C     0.43577   0.42000   0.97955   0.00000  Uiso   1.00
C744   C     0.56033   0.66569   0.55414   0.00000  Uiso   1.00
C745   C     0.43968   0.33431   0.94587   0.00000  Uiso   1.00
C746   C     0.56630   0.57753   0.97353   0.00000  Uiso   1.00
C747   C     0.43370   0.42247   0.52647   0.00000  Uiso   1.00
C748   C     0.52329   0.65273   0.74813   0.00000  Uiso   1.00
C749   C     0.47671   0.34727   0.75187   0.00000  Uiso   1.00
C750   C     0.50077   0.49959   0.83640   0.00000  Uiso   1.00
C751   C     0.49923   0.50041   0.66360   0.00000  Uiso   1.00
C752   C     0.46384   0.46359   0.59482   0.00000  Uiso   1.00
H753   H     0.43837   0.43408   0.61456   0.00000  Uiso   1.00
H754   H     0.66208   0.53907   0.78396   0.00000  Uiso   1.00
H755   H     0.63340   0.63378   0.52500   0.00000  Uiso   1.00
H756   H     0.54647   0.35063   0.52332   0.00000  Uiso   1.00
H757   H     0.58620   0.36208   0.57290   0.00000  Uiso   1.00
H758   H     0.52168   0.65281   0.57608   0.00000  Uiso   1.00
H759   H     0.36660   0.36623   0.97500   0.00000  Uiso   1.00
H760   H     0.45352   0.64937   0.97669   0.00000  Uiso   1.00
H761   H     0.47833   0.34719   0.92393   0.00000  Uiso   1.00
H762   H     0.41380   0.63792   0.92710   0.00000  Uiso   1.00
H763   H     0.56162   0.56592   0.88544   0.00000  Uiso   1.00
H764   H     0.55666   0.56907   0.61043   0.00000  Uiso   1.00
H765   H     0.44334   0.43093   0.88957   0.00000  Uiso   1.00
H766   H     0.59160   0.60739   0.95414   0.00000  Uiso   1.00
H767   H     0.40840   0.39261   0.54586   0.00000  Uiso   1.00
H768   H     0.56730   0.33638   0.74454   0.00000  Uiso   1.00
H769   H     0.43270   0.66362   0.75546   0.00000  Uiso   1.00
H770   H     0.33793   0.46093   0.71604   0.00000  Uiso   1.00
N771   N     0.65011   0.48598   0.73783   0.00000  Uiso   1.00
N772   N     0.34989   0.51402   0.76217   0.00000  Uiso   1.00
N773   N     0.59484   0.62196   0.54207   0.00000  Uiso   1.00
N774   N     0.40516   0.37804   0.95793   0.00000  Uiso   1.00
O775   O     0.46308   0.57952   0.75298   0.00000  Uiso   1.00
O776   O     0.53692   0.42048   0.74701   0.00000  Uiso   1.00
O777   O     0.55946   0.57054   0.74518   0.00000  Uiso   1.00
O778   O     0.44054   0.42946   0.75481   0.00000  Uiso   1.00
O779   O     0.45181   0.50450   0.81997   0.00000  Uiso   1.00
O780   O     0.54819   0.49550   0.68002   0.00000  Uiso   1.00
O781   O     0.54819   0.49552   0.81217   0.00000  Uiso   1.00
O782   O     0.45181   0.50448   0.68782   0.00000  Uiso   1.00
Zn783  Zn    0.43565   0.50600   0.75521   0.00000  Uiso   1.00
Zn784  Zn    0.56435   0.49400   0.74479   0.00000  Uiso   1.00
C785   C     0.84858   0.59823   0.74882   0.00000  Uiso   1.00
C786   C     0.86949   0.53641   0.90518   0.00000  Uiso   1.00
C787   C     0.83090   0.50168   0.61607   0.00000  Uiso   1.00
C788   C     0.83576   0.49832   0.88393   0.00000  Uiso   1.00
C789   C     0.86444   0.54012   0.59223   0.00000  Uiso   1.00
C790   C     0.80223   0.45988   0.90777   0.00000  Uiso   1.00
C791   C     0.86484   0.54091   0.54553   0.00000  Uiso   1.00
C792   C     0.80182   0.45909   0.95447   0.00000  Uiso   1.00
C793   C     0.83246   0.50083   0.52342   0.00000  Uiso   1.00
C794   C     0.83420   0.49917   0.97658   0.00000  Uiso   1.00
C795   C     0.79840   0.46229   0.54829   0.00000  Uiso   1.00
C796   C     0.81809   0.40177   0.75118   0.00000  Uiso   1.00
C797   C     0.86827   0.53771   0.95171   0.00000  Uiso   1.00
C798   C     0.89757   0.58000   0.52045   0.00000  Uiso   1.00
C799   C     0.76910   0.42000   0.97955   0.00000  Uiso   1.00
C800   C     0.89366   0.66569   0.55414   0.00000  Uiso   1.00
C801   C     0.77301   0.33431   0.94587   0.00000  Uiso   1.00
C802   C     0.89964   0.57753   0.97353   0.00000  Uiso   1.00
C803   C     0.76703   0.42247   0.52647   0.00000  Uiso   1.00
C804   C     0.85663   0.65273   0.74813   0.00000  Uiso   1.00
C805   C     0.81004   0.34727   0.75187   0.00000  Uiso   1.00
C806   C     0.83410   0.49959   0.83640   0.00000  Uiso   1.00
C807   C     0.83256   0.50041   0.66360   0.00000  Uiso   1.00
C808   C     0.79717   0.46359   0.59482   0.00000  Uiso   1.00
H809   H     0.77171   0.43408   0.61456   0.00000  Uiso   1.00
H810   H     0.99541   0.53907   0.78396   0.00000  Uiso   1.00
H811   H     0.96673   0.63378   0.52500   0.00000  Uiso   1.00
H812   H     0.87981   0.35063   0.52332   0.00000  Uiso   1.00
H813   H     0.91954   0.36208   0.57290   0.00000  Uiso   1.00
H814   H     0.85502   0.65281   0.57608   0.00000  Uiso   1.00
H815   H     0.69994   0.36623   0.97500   0.00000  Uiso   1.00
H816   H     0.78685   0.64937   0.97669   0.00000  Uiso   1.00
H817   H     0.81166   0.34719   0.92393   0.00000  Uiso   1.00
H818   H     0.74713   0.63792   0.92710   0.00000  Uiso   1.00
H819   H     0.89496   0.56592   0.88544   0.00000  Uiso   1.00
H820   H     0.88999   0.56907   0.61043   0.00000  Uiso   1.00
H821   H     0.77668   0.43093   0.88957   0.00000  Uiso   1.00
H822   H     0.92493   0.60739   0.95414   0.00000  Uiso   1.00
H823   H     0.74173   0.39261   0.54586   0.00000  Uiso   1.00
H824   H     0.90063   0.33638   0.74454   0.00000  Uiso   1.00
H825   H     0.76603   0.66362   0.75546   0.00000  Uiso   1.00
H826   H     0.67126   0.46093   0.71604   0.00000  Uiso   1.00
N827   N     0.98344   0.48598   0.73783   0.00000  Uiso   1.00
N828   N     0.68322   0.51402   0.76217   0.00000  Uiso   1.00
N829   N     0.92817   0.62196   0.54207   0.00000  Uiso   1.00
N830   N     0.73849   0.37804   0.95793   0.00000  Uiso   1.00
O831   O     0.79642   0.57952   0.75298   0.00000  Uiso   1.00
O832   O     0.87025   0.42048   0.74701   0.00000  Uiso   1.00
O833   O     0.89280   0.57054   0.74518   0.00000  Uiso   1.00
O834   O     0.77387   0.42946   0.75481   0.00000  Uiso   1.00
O835   O     0.78514   0.50450   0.81997   0.00000  Uiso   1.00
O836   O     0.88153   0.49550   0.68002   0.00000  Uiso   1.00
O837   O     0.88152   0.49552   0.81217   0.00000  Uiso   1.00
O838   O     0.78515   0.50448   0.68782   0.00000  Uiso   1.00
Zn839  Zn    0.76898   0.50600   0.75521   0.00000  Uiso   1.00
Zn840  Zn    0.89769   0.49400   0.74479   0.00000  Uiso   1.00
C841   C     0.18191   0.93156   0.74882   0.00000  Uiso   1.00
C842   C     0.20283   0.86975   0.90518   0.00000  Uiso   1.00
C843   C     0.16424   0.83502   0.61607   0.00000  Uiso   1.00
C844   C     0.16910   0.83165   0.88393   0.00000  Uiso   1.00
C845   C     0.19777   0.87346   0.59223   0.00000  Uiso   1.00
C846   C     0.13556   0.79321   0.90777   0.00000  Uiso   1.00
C847   C     0.19818   0.87425   0.54553   0.00000  Uiso   1.00
C848   C     0.13516   0.79242   0.95447   0.00000  Uiso   1.00
C849   C     0.16580   0.83417   0.52342   0.00000  Uiso   1.00
C850   C     0.16753   0.83250   0.97658   0.00000  Uiso   1.00
C851   C     0.13173   0.79563   0.54829   0.00000  Uiso   1.00
C852   C     0.15143   0.73510   0.75118   0.00000  Uiso   1.00
C853   C     0.20160   0.87104   0.95171   0.00000  Uiso   1.00
C854   C     0.23090   0.91333   0.52045   0.00000  Uiso   1.00
C855   C     0.10243   0.75333   0.97955   0.00000  Uiso   1.00
C856   C     0.22699   0.99902   0.55414   0.00000  Uiso   1.00
C857   C     0.10634   0.66764   0.94587   0.00000  Uiso   1.00
C858   C     0.23297   0.91087   0.97353   0.00000  Uiso   1.00
C859   C     0.10036   0.75580   0.52647   0.00000  Uiso   1.00
C860   C     0.18996   0.98606   0.74813   0.00000  Uiso   1.00
C861   C     0.14337   0.68061   0.75187   0.00000  Uiso   1.00
C862   C     0.16744   0.83292   0.83640   0.00000  Uiso   1.00
C863   C     0.16590   0.83375   0.66360   0.00000  Uiso   1.00
C864   C     0.13050   0.79692   0.59482   0.00000  Uiso   1.00
H865   H     0.10504   0.76741   0.61456   0.00000  Uiso   1.00
H866   H     0.32874   0.87241   0.78396   0.00000  Uiso   1.00
H867   H     0.30006   0.96711   0.52500   0.00000  Uiso   1.00
H868   H     0.21314   0.68397   0.52332   0.00000  Uiso   1.00
H869   H     0.25287   0.69541   0.57290   0.00000  Uiso   1.00
H870   H     0.18835   0.98614   0.57608   0.00000  Uiso   1.00
H871   H     0.03327   0.69956   0.97500   0.00000  Uiso   1.00
H872   H     0.12018   0.98270   0.97669   0.00000  Uiso   1.00
H873   H     0.14499   0.68052   0.92393   0.00000  Uiso   1.00
H874   H     0.08047   0.97126   0.92710   0.00000  Uiso   1.00
H875   H     0.22829   0.89926   0.88544   0.00000  Uiso   1.00
H876   H     0.22333   0.90240   0.61043   0.00000  Uiso   1.00
H877   H     0.11001   0.76426   0.88957   0.00000  Uiso   1.00
H878   H     0.25826   0.94073   0.95414   0.00000  Uiso   1.00
H879   H     0.07507   0.72594   0.54586   0.00000  Uiso   1.00
H880   H     0.23397   0.66971   0.74454   0.00000  Uiso   1.00
H881   H     0.09937   0.99695   0.75546   0.00000  Uiso   1.00
H882   H     0.00459   0.79426   0.71604   0.00000  Uiso   1.00
N883   N     0.31678   0.81932   0.73783   0.00000  Uiso   1.00
N884   N     0.01656   0.84735   0.76217   0.00000  Uiso   1.00
N885   N     0.26151   0.95529   0.54207   0.00000  Uiso   1.00
N886   N     0.07183   0.71137   0.95793   0.00000  Uiso   1.00
O887   O     0.12975   0.91286   0.75298   0.00000  Uiso   1.00
O888   O     0.20358   0.75381   0.74701   0.00000  Uiso   1.00
O889   O     0.22613   0.90387   0.74518   0.00000  Uiso   1.00
O890   O     0.10720   0.76279   0.75481   0.00000  Uiso   1.00
O891   O     0.11847   0.83784   0.81997   0.00000  Uiso   1.00
O892   O     0.21486   0.82883   0.68002   0.00000  Uiso   1.00
O893   O     0.21485   0.82885   0.81217   0.00000  Uiso   1.00
O894   O     0.11848   0.83781   0.68782   0.00000  Uiso   1.00
Zn895  Zn    0.10231   0.83933   0.75521   0.00000  Uiso   1.00
Zn896  Zn    0.23102   0.82734   0.74479   0.00000  Uiso   1.00
C897   C     0.51524   0.93156   0.74882   0.00000  Uiso   1.00
C898   C     0.53616   0.86975   0.90518   0.00000  Uiso   1.00
C899   C     0.49757   0.83502   0.61607   0.00000  Uiso   1.00
C900   C     0.50243   0.83165   0.88393   0.00000  Uiso   1.00
C901   C     0.53111   0.87346   0.59223   0.00000  Uiso   1.00
C902   C     0.46889   0.79321   0.90777   0.00000  Uiso   1.00
C903   C     0.53151   0.87425   0.54553   0.00000  Uiso   1.00
C904   C     0.46849   0.79242   0.95447   0.00000  Uiso   1.00
C905   C     0.49913   0.83417   0.52342   0.00000  Uiso   1.00
C906   C     0.50087   0.83250   0.97658   0.00000  Uiso   1.00
C907   C     0.46506   0.79563   0.54829   0.00000  Uiso   1.00
C908   C     0.48476   0.73510   0.75118   0.00000  Uiso   1.00
C909   C     0.53494   0.87104   0.95171   0.00000  Uiso   1.00
C910   C     0.56423   0.91333   0.52045   0.00000  Uiso   1.00
C911   C     0.43577   0.75333   0.97955   0.00000  Uiso   1.00
C912   C     0.56033   0.99902   0.55414   0.00000  Uiso   1.00
C913   C     0.43968   0.66764   0.94587   0.00000  Uiso   1.00
C914   C     0.56630   0.91087   0.97353   0.00000  Uiso   1.00
C915   C     0.43370   0.75580   0.52647   0.00000  Uiso   1.00
C916   C     0.52329   0.98606   0.74813   0.00000  Uiso   1.00
C917   C     0.47671   0.68061   0.75187   0.00000  Uiso   1.00
C918   C     0.50077   0.83292   0.83640   0.00000  Uiso   1.00
C919   C     0.49923   0.83375   0.66360   0.00000  Uiso   1.00
C920   C     0.46384   0.79692   0.59482   0.00000  Uiso   1.00
H921   H     0.43837   0.76741   0.61456   0.00000  Uiso   1.00
H922   H     0.66208   0.87241   0.78396   0.00000  Uiso   1.00
H923   H     0.63340   0.96711   0.52500   0.00000  Uiso   1.00
H924   H     0.54647   0.68397   0.52332   0.00000  Uiso   1.00
H925   H     0.58620   0.69541   0.57290   0.00000  Uiso   1.00
H926   H     0.52168   0.98614   0.57608   0.00000  Uiso   1.00
H927   H     0.36660   0.69956   0.97500   0.00000  Uiso   1.00
H928   H     0.45352   0.98270   0.97669   0.00000  Uiso   1.00
H929   H     0.47833   0.68052   0.92393   0.00000  Uiso   1.00
H930   H     0.41380   0.97126   0.92710   0.00000  Uiso   1.00
H931   H     0.56162   0.89926   0.88544   0.00000  Uiso   1.00
H932   H     0.55666   0.90240   0.61043   0.00000  Uiso   1.00
H933   H     0.44334   0.76426   0.88957   0.00000  Uiso   1.00
H934   H     0.59160   0.94073   0.95414   0.00000  Uiso   1.00
H935   H     0.40840   0.72594   0.54586   0.00000  Uiso   1.00
H936   H     0.56730   0.66971   0.74454   0.00000  Uiso   1.00
H937   H     0.43270   0.99695   0.75546   0.00000  Uiso   1.00
H938   H     0.33793   0.79426   0.71604   0.00000  Uiso   1.00
N939   N     0.65011   0.81932   0.73783   0.00000  Uiso   1.00
N940   N     0.34989   0.84735   0.76217   0.00000  Uiso   1.00
N941   N     0.59484   0.95529   0.54207   0.00000  Uiso   1.00
N942   N     0.40516   0.71137   0.95793   0.00000  Uiso   1.00
O943   O     0.46308   0.91286   0.75298   0.00000  Uiso   1.00
O944   O     0.53692   0.75381   0.74701   0.00000  Uiso   1.00
O945   O     0.55946   0.90387   0.74518   0.00000  Uiso   1.00
O946   O     0.44054   0.76279   0.75481   0.00000  Uiso   1.00
O947   O     0.45181   0.83784   0.81997   0.00000  Uiso   1.00
O948   O     0.54819   0.82883   0.68002   0.00000  Uiso   1.00
O949   O     0.54819   0.82885   0.81217   0.00000  Uiso   1.00
O950   O     0.45181   0.83781   0.68782   0.00000  Uiso   1.00
Zn951  Zn    0.43565   0.83933   0.75521   0.00000  Uiso   1.00
Zn952  Zn    0.56435   0.82734   0.74479   0.00000  Uiso   1.00
C953   C     0.84858   0.93156   0.74882   0.00000  Uiso   1.00
C954   C     0.86949   0.86975   0.90518   0.00000  Uiso   1.00
C955   C     0.83090   0.83502   0.61607   0.00000  Uiso   1.00
C956   C     0.83576   0.83165   0.88393   0.00000  Uiso   1.00
C957   C     0.86444   0.87346   0.59223   0.00000  Uiso   1.00
C958   C     0.80223   0.79321   0.90777   0.00000  Uiso   1.00
C959   C     0.86484   0.87425   0.54553   0.00000  Uiso   1.00
C960   C     0.80182   0.79242   0.95447   0.00000  Uiso   1.00
C961   C     0.83246   0.83417   0.52342   0.00000  Uiso   1.00
C962   C     0.83420   0.83250   0.97658   0.00000  Uiso   1.00
C963   C     0.79840   0.79563   0.54829   0.00000  Uiso   1.00
C964   C     0.81809   0.73510   0.75118   0.00000  Uiso   1.00
C965   C     0.86827   0.87104   0.95171   0.00000  Uiso   1.00
C966   C     0.89757   0.91333   0.52045   0.00000  Uiso   1.00
C967   C     0.76910   0.75333   0.97955   0.00000  Uiso   1.00
C968   C     0.89366   0.99902   0.55414   0.00000  Uiso   1.00
C969   C     0.77301   0.66764   0.94587   0.00000  Uiso   1.00
C970   C     0.89964   0.91087   0.97353   0.00000  Uiso   1.00
C971   C     0.76703   0.75580   0.52647   0.00000  Uiso   1.00
C972   C     0.85663   0.98606   0.74813   0.00000  Uiso   1.00
C973   C     0.81004   0.68061   0.75187   0.00000  Uiso   1.00
C974   C     0.83410   0.83292   0.83640   0.00000  Uiso   1.00
C975   C     0.83256   0.83375   0.66360   0.00000  Uiso   1.00
C976   C     0.79717   0.79692   0.59482   0.00000  Uiso   1.00
H977   H     0.77171   0.76741   0.61456   0.00000  Uiso   1.00
H978   H     0.99541   0.87241   0.78396   0.00000  Uiso   1.00
H979   H     0.96673   0.96711   0.52500   0.00000  Uiso   1.00
H980   H     0.87981   0.68397   0.52332   0.00000  Uiso   1.00
H981   H     0.91954   0.69541   0.57290   0.00000  Uiso   1.00
H982   H     0.85502   0.98614   0.57608   0.00000  Uiso   1.00
H983   H     0.69994   0.69956   0.97500   0.00000  Uiso   1.00
H984   H     0.78685   0.98270   0.97669   0.00000  Uiso   1.00
H985   H     0.81166   0.68052   0.92393   0.00000  Uiso   1.00
H986   H     0.74713   0.97126   0.92710   0.00000  Uiso   1.00
H987   H     0.89496   0.89926   0.88544   0.00000  Uiso   1.00
H988   H     0.88999   0.90240   0.61043   0.00000  Uiso   1.00
H989   H     0.77668   0.76426   0.88957   0.00000  Uiso   1.00
H990   H     0.92493   0.94073   0.95414   0.00000  Uiso   1.00
H991   H     0.74173   0.72594   0.54586   0.00000  Uiso   1.00
H992   H     0.90063   0.66971   0.74454   0.00000  Uiso   1.00
H993   H     0.76603   0.99695   0.75546   0.00000  Uiso   1.00
H994   H     0.67126   0.79426   0.71604   0.00000  Uiso   1.00
N995   N     0.98344   0.81932   0.73783   0.00000  Uiso   1.00
N996   N     0.68322   0.84735   0.76217   0.00000  Uiso   1.00
N997   N     0.92817   0.95529   0.54207   0.00000  Uiso   1.00
N998   N     0.73849   0.71137   0.95793   0.00000  Uiso   1.00
O999   O     0.79642   0.91286   0.75298   0.00000  Uiso   1.00
O1000  O     0.87025   0.75381   0.74701   0.00000  Uiso   1.00
O1001  O     0.89280   0.90387   0.74518   0.00000  Uiso   1.00
O1002  O     0.77387   0.76279   0.75481   0.00000  Uiso   1.00
O1003  O     0.78514   0.83784   0.81997   0.00000  Uiso   1.00
O1004  O     0.88153   0.82883   0.68002   0.00000  Uiso   1.00
O1005  O     0.88152   0.82885   0.81217   0.00000  Uiso   1.00
O1006  O     0.78515   0.83781   0.68782   0.00000  Uiso   1.00
Zn1007 Zn    0.76898   0.83933   0.75521   0.00000  Uiso   1.00
Zn1008 Zn    0.89769   0.82734   0.74479   0.00000  Uiso   1.00
loop_
_geom_bond_atom_site_label_1
_geom_bond_atom_site_label_2
_geom_bond_distance
_geom_bond_site_symmetry_2
_ccdc_geom_bond_type
C1     O47     1.277   .     A
C1     C20     1.399   .     S
C1     O49     1.285   .     A
C2     H35     1.086   .     S
C2     C4      1.388   .     A
C2     C13     1.383   .     A
C3     C23     1.418   .     S
C3     C24     1.388   .     A
C3     C5      1.391   .     A
C4     C22     1.418   .     S
C4     C6      1.391   .     A
C5     C7      1.389   .     A
C5     H36     1.085   .     S
C6     H37     1.084   .     S
C6     C8      1.389   .     A
C7     C9      1.418   .     A
C7     C14     1.411   .     A
C8     C15     1.411   .     A
C8     C10     1.418   .     A
C9     C11     1.413   .     A
C9     C514    1.392   1_554 S
C10    C13     1.413   .     A
C10    C513    1.392   .     S
C11    C19     1.397   .     A
C11    C24     1.383   .     A
C12    O50     1.285   .     A
C12    O48     1.277   .     A
C12    C21     1.399   .     S
C13    C18     1.397   .     A
C14    N45     1.424   .     S
C14    C522    1.394   1_554 S
C15    N46     1.424   .     S
C15    C523    1.394   .     S
C16    N45     1.447   .     S
C16    H30     1.111   .     S
C16    H196    1.112   .     S
C16    H197    1.110   .     S
C17    H33     1.111   .     S
C17    N46     1.447   .     S
C17    H368    1.112   1_545 S
C17    H370    1.110   1_545 S
C18    H38     1.085   .     S
C18    C518    1.394   .     S
C19    H39     1.085   .     S
C19    C519    1.394   1_554 S
C20    C189    1.334   .     S
C20    H208    1.088   .     S
C21    C356    1.334   1_545 S
C21    H377    1.088   1_545 S
C22    O53     1.286   .     A
C22    O51     1.286   .     A
C23    O52     1.286   .     A
C23    O54     1.286   .     A
C24    H25     1.086   .     S
H26    N100    1.029   .     S
H27    N45     1.032   .     S
H28    C352    1.112   1_545 S
H29    C352    1.110   1_545 S
H31    N46     1.032   .     S
H32    C185    1.112   .     S
H34    C185    1.110   .     S
H40    C356    1.088   1_545 S
H41    C189    1.088   .     S
H42    N155    1.029   1_455 S
N43    Zn56    2.018   .     S
N43    H98     1.029   .     S
N43    N100    1.276   .     S
N44    Zn55    2.018   .     S
N44    N155    1.276   1_455 S
N44    H138    1.029   1_455 S
O47    Zn55    1.954   .     S
O48    Zn56    1.954   .     S
O49    Zn56    1.973   .     S
O50    Zn55    1.973   .     S
O51    Zn55    1.990   .     S
O52    Zn56    1.990   .     S
O53    Zn56    2.014   .     S
O54    Zn55    2.014   .     S
C57    O103    1.277   .     A
C57    C76     1.399   .     S
C57    O105    1.285   .     A
C58    H91     1.086   .     S
C58    C60     1.388   .     A
C58    C69     1.383   .     A
C59    C79     1.418   .     S
C59    C80     1.388   .     A
C59    C61     1.391   .     A
C60    C78     1.418   .     S
C60    C62     1.391   .     A
C61    C63     1.389   .     A
C61    H92     1.085   .     S
C62    H93     1.084   .     S
C62    C64     1.389   .     A
C63    C65     1.418   .     A
C63    C70     1.411   .     A
C64    C71     1.411   .     A
C64    C66     1.418   .     A
C65    C67     1.413   .     A
C65    C570    1.392   1_554 S
C66    C69     1.413   .     A
C66    C569    1.392   .     S
C67    C75     1.397   .     A
C67    C80     1.383   .     A
C68    O106    1.285   .     A
C68    O104    1.277   .     A
C68    C77     1.399   .     S
C69    C74     1.397   .     A
C70    N101    1.424   .     S
C70    C578    1.394   1_554 S
C71    N102    1.424   .     S
C71    C579    1.394   .     S
C72    N101    1.447   .     S
C72    H86     1.111   .     S
C72    H252    1.112   .     S
C72    H253    1.110   .     S
C73    H89     1.111   .     S
C73    N102    1.447   .     S
C73    H424    1.112   1_545 S
C73    H426    1.110   1_545 S
C74    H94     1.085   .     S
C74    C574    1.394   .     S
C75    H95     1.085   .     S
C75    C575    1.394   1_554 S
C76    C245    1.334   .     S
C76    H264    1.088   .     S
C77    C412    1.334   1_545 S
C77    H433    1.088   1_545 S
C78    O109    1.286   .     A
C78    O107    1.286   .     A
C79    O108    1.286   .     A
C79    O110    1.286   .     A
C80    H81     1.086   .     S
H82    N156    1.029   .     S
H83    N101    1.032   .     S
H84    C408    1.112   1_545 S
H85    C408    1.110   1_545 S
H87    N102    1.032   .     S
H88    C241    1.112   .     S
H90    C241    1.110   .     S
H96    C412    1.088   1_545 S
H97    C245    1.088   .     S
N99    Zn112   2.018   .     S
N99    H154    1.029   .     S
N99    N156    1.276   .     S
N100   Zn111   2.018   .     S
O103   Zn111   1.954   .     S
O104   Zn112   1.954   .     S
O105   Zn112   1.973   .     S
O106   Zn111   1.973   .     S
O107   Zn111   1.990   .     S
O108   Zn112   1.990   .     S
O109   Zn112   2.014   .     S
O110   Zn111   2.014   .     S
C113   O159    1.277   .     A
C113   C132    1.399   .     S
C113   O161    1.285   .     A
C114   H147    1.086   .     S
C114   C116    1.388   .     A
C114   C125    1.383   .     A
C115   C135    1.418   .     S
C115   C136    1.388   .     A
C115   C117    1.391   .     A
C116   C134    1.418   .     S
C116   C118    1.391   .     A
C117   C119    1.389   .     A
C117   H148    1.085   .     S
C118   H149    1.084   .     S
C118   C120    1.389   .     A
C119   C121    1.418   .     A
C119   C126    1.411   .     A
C120   C127    1.411   .     A
C120   C122    1.418   .     A
C121   C123    1.413   .     A
C121   C626    1.392   1_554 S
C122   C125    1.413   .     A
C122   C625    1.392   .     S
C123   C131    1.397   .     A
C123   C136    1.383   .     A
C124   O162    1.285   .     A
C124   O160    1.277   .     A
C124   C133    1.399   .     S
C125   C130    1.397   .     A
C126   N157    1.424   .     S
C126   C634    1.394   1_554 S
C127   N158    1.424   .     S
C127   C635    1.394   .     S
C128   N157    1.447   .     S
C128   H142    1.111   .     S
C128   H308    1.112   .     S
C128   H309    1.110   .     S
C129   H145    1.111   .     S
C129   N158    1.447   .     S
C129   H480    1.112   1_545 S
C129   H482    1.110   1_545 S
C130   H150    1.085   .     S
C130   C630    1.394   .     S
C131   H151    1.085   .     S
C131   C631    1.394   1_554 S
C132   C301    1.334   .     S
C132   H320    1.088   .     S
C133   C468    1.334   1_545 S
C133   H489    1.088   1_545 S
C134   O165    1.286   .     A
C134   O163    1.286   .     A
C135   O164    1.286   .     A
C135   O166    1.286   .     A
C136   H137    1.086   .     S
H138   N44     1.029   1_655 S
H139   N157    1.032   .     S
H140   C464    1.112   1_545 S
H141   C464    1.110   1_545 S
H143   N158    1.032   .     S
H144   C297    1.112   .     S
H146   C297    1.110   .     S
H152   C468    1.088   1_545 S
H153   C301    1.088   .     S
N155   Zn168   2.018   .     S
N155   H42     1.029   1_655 S
N155   N44     1.276   1_655 S
N156   Zn167   2.018   .     S
O159   Zn167   1.954   .     S
O160   Zn168   1.954   .     S
O161   Zn168   1.973   .     S
O162   Zn167   1.973   .     S
O163   Zn167   1.990   .     S
O164   Zn168   1.990   .     S
O165   Zn168   2.014   .     S
O166   Zn167   2.014   .     S
C169   O215    1.277   .     A
C169   C188    1.399   .     S
C169   O217    1.285   .     A
C170   H203    1.086   .     S
C170   C172    1.388   .     A
C170   C181    1.383   .     A
C171   C191    1.418   .     S
C171   C192    1.388   .     A
C171   C173    1.391   .     A
C172   C190    1.418   .     S
C172   C174    1.391   .     A
C173   C175    1.389   .     A
C173   H204    1.085   .     S
C174   H205    1.084   .     S
C174   C176    1.389   .     A
C175   C177    1.418   .     A
C175   C182    1.411   .     A
C176   C183    1.411   .     A
C176   C178    1.418   .     A
C177   C179    1.413   .     A
C177   C682    1.392   1_554 S
C178   C181    1.413   .     A
C178   C681    1.392   .     S
C179   C187    1.397   .     A
C179   C192    1.383   .     A
C180   O218    1.285   .     A
C180   O216    1.277   .     A
C180   C189    1.399   .     S
C181   C186    1.397   .     A
C182   N213    1.424   .     S
C182   C690    1.394   1_554 S
C183   N214    1.424   .     S
C183   C691    1.394   .     S
C184   N213    1.447   .     S
C184   H198    1.111   .     S
C184   H364    1.112   .     S
C184   H365    1.110   .     S
C185   H201    1.111   .     S
C185   N214    1.447   .     S
C186   H206    1.085   .     S
C186   C686    1.394   .     S
C187   H207    1.085   .     S
C187   C687    1.394   1_554 S
C188   C357    1.334   .     S
C188   H376    1.088   .     S
C190   O221    1.286   .     A
C190   O219    1.286   .     A
C191   O220    1.286   .     A
C191   O222    1.286   .     A
C192   H193    1.086   .     S
H194   N268    1.029   .     S
H195   N213    1.032   .     S
H199   N214    1.032   .     S
H200   C353    1.112   .     S
H202   C353    1.110   .     S
H209   C357    1.088   .     S
H210   N323    1.029   1_455 S
N211   Zn224   2.018   .     S
N211   H266    1.029   .     S
N211   N268    1.276   .     S
N212   Zn223   2.018   .     S
N212   N323    1.276   1_455 S
N212   H306    1.029   1_455 S
O215   Zn223   1.954   .     S
O216   Zn224   1.954   .     S
O217   Zn224   1.973   .     S
O218   Zn223   1.973   .     S
O219   Zn223   1.990   .     S
O220   Zn224   1.990   .     S
O221   Zn224   2.014   .     S
O222   Zn223   2.014   .     S
C225   O271    1.277   .     A
C225   C244    1.399   .     S
C225   O273    1.285   .     A
C226   H259    1.086   .     S
C226   C228    1.388   .     A
C226   C237    1.383   .     A
C227   C247    1.418   .     S
C227   C248    1.388   .     A
C227   C229    1.391   .     A
C228   C246    1.418   .     S
C228   C230    1.391   .     A
C229   C231    1.389   .     A
C229   H260    1.085   .     S
C230   H261    1.084   .     S
C230   C232    1.389   .     A
C231   C233    1.418   .     A
C231   C238    1.411   .     A
C232   C239    1.411   .     A
C232   C234    1.418   .     A
C233   C235    1.413   .     A
C233   C738    1.392   1_554 S
C234   C237    1.413   .     A
C234   C737    1.392   .     S
C235   C243    1.397   .     A
C235   C248    1.383   .     A
C236   O274    1.285   .     A
C236   O272    1.277   .     A
C236   C245    1.399   .     S
C237   C242    1.397   .     A
C238   N269    1.424   .     S
C238   C746    1.394   1_554 S
C239   N270    1.424   .     S
C239   C747    1.394   .     S
C240   N269    1.447   .     S
C240   H254    1.111   .     S
C240   H420    1.112   .     S
C240   H421    1.110   .     S
C241   H257    1.111   .     S
C241   N270    1.447   .     S
C242   H262    1.085   .     S
C242   C742    1.394   .     S
C243   H263    1.085   .     S
C243   C743    1.394   1_554 S
C244   C413    1.334   .     S
C244   H432    1.088   .     S
C246   O277    1.286   .     A
C246   O275    1.286   .     A
C247   O276    1.286   .     A
C247   O278    1.286   .     A
C248   H249    1.086   .     S
H250   N324    1.029   .     S
H251   N269    1.032   .     S
H255   N270    1.032   .     S
H256   C409    1.112   .     S
H258   C409    1.110   .     S
H265   C413    1.088   .     S
N267   Zn280   2.018   .     S
N267   H322    1.029   .     S
N267   N324    1.276   .     S
N268   Zn279   2.018   .     S
O271   Zn279   1.954   .     S
O272   Zn280   1.954   .     S
O273   Zn280   1.973   .     S
O274   Zn279   1.973   .     S
O275   Zn279   1.990   .     S
O276   Zn280   1.990   .     S
O277   Zn280   2.014   .     S
O278   Zn279   2.014   .     S
C281   O327    1.277   .     A
C281   C300    1.399   .     S
C281   O329    1.285   .     A
C282   H315    1.086   .     S
C282   C284    1.388   .     A
C282   C293    1.383   .     A
C283   C303    1.418   .     S
C283   C304    1.388   .     A
C283   C285    1.391   .     A
C284   C302    1.418   .     S
C284   C286    1.391   .     A
C285   C287    1.389   .     A
C285   H316    1.085   .     S
C286   H317    1.084   .     S
C286   C288    1.389   .     A
C287   C289    1.418   .     A
C287   C294    1.411   .     A
C288   C295    1.411   .     A
C288   C290    1.418   .     A
C289   C291    1.413   .     A
C289   C794    1.392   1_554 S
C290   C293    1.413   .     A
C290   C793    1.392   .     S
C291   C299    1.397   .     A
C291   C304    1.383   .     A
C292   O330    1.285   .     A
C292   O328    1.277   .     A
C292   C301    1.399   .     S
C293   C298    1.397   .     A
C294   N325    1.424   .     S
C294   C802    1.394   1_554 S
C295   N326    1.424   .     S
C295   C803    1.394   .     S
C296   N325    1.447   .     S
C296   H310    1.111   .     S
C296   H476    1.112   .     S
C296   H477    1.110   .     S
C297   H313    1.111   .     S
C297   N326    1.447   .     S
C298   H318    1.085   .     S
C298   C798    1.394   .     S
C299   H319    1.085   .     S
C299   C799    1.394   1_554 S
C300   C469    1.334   .     S
C300   H488    1.088   .     S
C302   O333    1.286   .     A
C302   O331    1.286   .     A
C303   O332    1.286   .     A
C303   O334    1.286   .     A
C304   H305    1.086   .     S
H306   N212    1.029   1_655 S
H307   N325    1.032   .     S
H311   N326    1.032   .     S
H312   C465    1.112   .     S
H314   C465    1.110   .     S
H321   C469    1.088   .     S
N323   Zn336   2.018   .     S
N323   H210    1.029   1_655 S
N323   N212    1.276   1_655 S
N324   Zn335   2.018   .     S
O327   Zn335   1.954   .     S
O328   Zn336   1.954   .     S
O329   Zn336   1.973   .     S
O330   Zn335   1.973   .     S
O331   Zn335   1.990   .     S
O332   Zn336   1.990   .     S
O333   Zn336   2.014   .     S
O334   Zn335   2.014   .     S
C337   O383    1.277   .     A
C337   C356    1.399   .     S
C337   O385    1.285   .     A
C338   H371    1.086   .     S
C338   C340    1.388   .     A
C338   C349    1.383   .     A
C339   C359    1.418   .     S
C339   C360    1.388   .     A
C339   C341    1.391   .     A
C340   C358    1.418   .     S
C340   C342    1.391   .     A
C341   C343    1.389   .     A
C341   H372    1.085   .     S
C342   H373    1.084   .     S
C342   C344    1.389   .     A
C343   C345    1.418   .     A
C343   C350    1.411   .     A
C344   C351    1.411   .     A
C344   C346    1.418   .     A
C345   C347    1.413   .     A
C345   C850    1.392   1_554 S
C346   C349    1.413   .     A
C346   C849    1.392   .     S
C347   C355    1.397   .     A
C347   C360    1.383   .     A
C348   O386    1.285   .     A
C348   O384    1.277   .     A
C348   C357    1.399   .     S
C349   C354    1.397   .     A
C350   N381    1.424   .     S
C350   C858    1.394   1_554 S
C351   N382    1.424   .     S
C351   C859    1.394   .     S
C352   N381    1.447   .     S
C352   H366    1.111   .     S
C352   H28     1.112   1_565 S
C352   H29     1.110   1_565 S
C353   H369    1.111   .     S
C353   N382    1.447   .     S
C354   H374    1.085   .     S
C354   C854    1.394   .     S
C355   H375    1.085   .     S
C355   C855    1.394   1_554 S
C356   C21     1.334   1_565 S
C356   H40     1.088   1_565 S
C358   O389    1.286   .     A
C358   O387    1.286   .     A
C359   O388    1.286   .     A
C359   O390    1.286   .     A
C360   H361    1.086   .     S
H362   N436    1.029   .     S
H363   N381    1.032   .     S
H367   N382    1.032   .     S
H368   C17     1.112   1_565 S
H370   C17     1.110   1_565 S
H377   C21     1.088   1_565 S
H378   N491    1.029   1_455 S
N379   Zn392   2.018   .     S
N379   H434    1.029   .     S
N379   N436    1.276   .     S
N380   Zn391   2.018   .     S
N380   N491    1.276   1_455 S
N380   H474    1.029   1_455 S
O383   Zn391   1.954   .     S
O384   Zn392   1.954   .     S
O385   Zn392   1.973   .     S
O386   Zn391   1.973   .     S
O387   Zn391   1.990   .     S
O388   Zn392   1.990   .     S
O389   Zn392   2.014   .     S
O390   Zn391   2.014   .     S
C393   O439    1.277   .     A
C393   C412    1.399   .     S
C393   O441    1.285   .     A
C394   H427    1.086   .     S
C394   C396    1.388   .     A
C394   C405    1.383   .     A
C395   C415    1.418   .     S
C395   C416    1.388   .     A
C395   C397    1.391   .     A
C396   C414    1.418   .     S
C396   C398    1.391   .     A
C397   C399    1.389   .     A
C397   H428    1.085   .     S
C398   H429    1.084   .     S
C398   C400    1.389   .     A
C399   C401    1.418   .     A
C399   C406    1.411   .     A
C400   C407    1.411   .     A
C400   C402    1.418   .     A
C401   C403    1.413   .     A
C401   C906    1.392   1_554 S
C402   C405    1.413   .     A
C402   C905    1.392   .     S
C403   C411    1.397   .     A
C403   C416    1.383   .     A
C404   O442    1.285   .     A
C404   O440    1.277   .     A
C404   C413    1.399   .     S
C405   C410    1.397   .     A
C406   N437    1.424   .     S
C406   C914    1.394   1_554 S
C407   N438    1.424   .     S
C407   C915    1.394   .     S
C408   N437    1.447   .     S
C408   H422    1.111   .     S
C408   H84     1.112   1_565 S
C408   H85     1.110   1_565 S
C409   H425    1.111   .     S
C409   N438    1.447   .     S
C410   H430    1.085   .     S
C410   C910    1.394   .     S
C411   H431    1.085   .     S
C411   C911    1.394   1_554 S
C412   C77     1.334   1_565 S
C412   H96     1.088   1_565 S
C414   O445    1.286   .     A
C414   O443    1.286   .     A
C415   O444    1.286   .     A
C415   O446    1.286   .     A
C416   H417    1.086   .     S
H418   N492    1.029   .     S
H419   N437    1.032   .     S
H423   N438    1.032   .     S
H424   C73     1.112   1_565 S
H426   C73     1.110   1_565 S
H433   C77     1.088   1_565 S
N435   Zn448   2.018   .     S
N435   H490    1.029   .     S
N435   N492    1.276   .     S
N436   Zn447   2.018   .     S
O439   Zn447   1.954   .     S
O440   Zn448   1.954   .     S
O441   Zn448   1.973   .     S
O442   Zn447   1.973   .     S
O443   Zn447   1.990   .     S
O444   Zn448   1.990   .     S
O445   Zn448   2.014   .     S
O446   Zn447   2.014   .     S
C449   O495    1.277   .     A
C449   C468    1.399   .     S
C449   O497    1.285   .     A
C450   H483    1.086   .     S
C450   C452    1.388   .     A
C450   C461    1.383   .     A
C451   C471    1.418   .     S
C451   C472    1.388   .     A
C451   C453    1.391   .     A
C452   C470    1.418   .     S
C452   C454    1.391   .     A
C453   C455    1.389   .     A
C453   H484    1.085   .     S
C454   H485    1.084   .     S
C454   C456    1.389   .     A
C455   C457    1.418   .     A
C455   C462    1.411   .     A
C456   C463    1.411   .     A
C456   C458    1.418   .     A
C457   C459    1.413   .     A
C457   C962    1.392   1_554 S
C458   C461    1.413   .     A
C458   C961    1.392   .     S
C459   C467    1.397   .     A
C459   C472    1.383   .     A
C460   O498    1.285   .     A
C460   O496    1.277   .     A
C460   C469    1.399   .     S
C461   C466    1.397   .     A
C462   N493    1.424   .     S
C462   C970    1.394   1_554 S
C463   N494    1.424   .     S
C463   C971    1.394   .     S
C464   N493    1.447   .     S
C464   H478    1.111   .     S
C464   H140    1.112   1_565 S
C464   H141    1.110   1_565 S
C465   H481    1.111   .     S
C465   N494    1.447   .     S
C466   H486    1.085   .     S
C466   C966    1.394   .     S
C467   H487    1.085   .     S
C467   C967    1.394   1_554 S
C468   C133    1.334   1_565 S
C468   H152    1.088   1_565 S
C470   O501    1.286   .     A
C470   O499    1.286   .     A
C471   O500    1.286   .     A
C471   O502    1.286   .     A
C472   H473    1.086   .     S
H474   N380    1.029   1_655 S
H475   N493    1.032   .     S
H479   N494    1.032   .     S
H480   C129    1.112   1_565 S
H482   C129    1.110   1_565 S
H489   C133    1.088   1_565 S
N491   Zn504   2.018   .     S
N491   H378    1.029   1_655 S
N491   N380    1.276   1_655 S
N492   Zn503   2.018   .     S
O495   Zn503   1.954   .     S
O496   Zn504   1.954   .     S
O497   Zn504   1.973   .     S
O498   Zn503   1.973   .     S
O499   Zn503   1.990   .     S
O500   Zn504   1.990   .     S
O501   Zn504   2.014   .     S
O502   Zn503   2.014   .     S
C505   O551    1.277   .     A
C505   C524    1.399   .     S
C505   O553    1.285   .     A
C506   H539    1.086   .     S
C506   C508    1.388   .     A
C506   C517    1.383   .     A
C507   C527    1.418   .     S
C507   C528    1.388   .     A
C507   C509    1.391   .     A
C508   C526    1.418   .     S
C508   C510    1.391   .     A
C509   C511    1.389   .     A
C509   H540    1.085   .     S
C510   H541    1.084   .     S
C510   C512    1.389   .     A
C511   C513    1.418   .     A
C511   C518    1.411   .     A
C512   C519    1.411   .     A
C512   C514    1.418   .     A
C513   C515    1.413   .     A
C514   C517    1.413   .     A
C514   C9      1.392   1_556 S
C515   C523    1.397   .     A
C515   C528    1.383   .     A
C516   O554    1.285   .     A
C516   O552    1.277   .     A
C516   C525    1.399   .     S
C517   C522    1.397   .     A
C518   N549    1.424   .     S
C519   N550    1.424   .     S
C519   C19     1.394   1_556 S
C520   N549    1.447   .     S
C520   H534    1.111   .     S
C520   H700    1.112   .     S
C520   H701    1.110   .     S
C521   H537    1.111   .     S
C521   N550    1.447   .     S
C521   H872    1.112   1_545 S
C521   H874    1.110   1_545 S
C522   H542    1.085   .     S
C522   C14     1.394   1_556 S
C523   H543    1.085   .     S
C524   C693    1.334   .     S
C524   H712    1.088   .     S
C525   C860    1.334   1_545 S
C525   H881    1.088   1_545 S
C526   O557    1.286   .     A
C526   O555    1.286   .     A
C527   O556    1.286   .     A
C527   O558    1.286   .     A
C528   H529    1.086   .     S
H530   N604    1.029   .     S
H531   N549    1.032   .     S
H532   C856    1.112   1_545 S
H533   C856    1.110   1_545 S
H535   N550    1.032   .     S
H536   C689    1.112   .     S
H538   C689    1.110   .     S
H544   C860    1.088   1_545 S
H545   C693    1.088   .     S
H546   N659    1.029   1_455 S
N547   Zn560   2.018   .     S
N547   H602    1.029   .     S
N547   N604    1.276   .     S
N548   Zn559   2.018   .     S
N548   N659    1.276   1_455 S
N548   H642    1.029   1_455 S
O551   Zn559   1.954   .     S
O552   Zn560   1.954   .     S
O553   Zn560   1.973   .     S
O554   Zn559   1.973   .     S
O555   Zn559   1.990   .     S
O556   Zn560   1.990   .     S
O557   Zn560   2.014   .     S
O558   Zn559   2.014   .     S
C561   O607    1.277   .     A
C561   C580    1.399   .     S
C561   O609    1.285   .     A
C562   H595    1.086   .     S
C562   C564    1.388   .     A
C562   C573    1.383   .     A
C563   C583    1.418   .     S
C563   C584    1.388   .     A
C563   C565    1.391   .     A
C564   C582    1.418   .     S
C564   C566    1.391   .     A
C565   C567    1.389   .     A
C565   H596    1.085   .     S
C566   H597    1.084   .     S
C566   C568    1.389   .     A
C567   C569    1.418   .     A
C567   C574    1.411   .     A
C568   C575    1.411   .     A
C568   C570    1.418   .     A
C569   C571    1.413   .     A
C570   C573    1.413   .     A
C570   C65     1.392   1_556 S
C571   C579    1.397   .     A
C571   C584    1.383   .     A
C572   O610    1.285   .     A
C572   O608    1.277   .     A
C572   C581    1.399   .     S
C573   C578    1.397   .     A
C574   N605    1.424   .     S
C575   N606    1.424   .     S
C575   C75     1.394   1_556 S
C576   N605    1.447   .     S
C576   H590    1.111   .     S
C576   H756    1.112   .     S
C576   H757    1.110   .     S
C577   H593    1.111   .     S
C577   N606    1.447   .     S
C577   H928    1.112   1_545 S
C577   H930    1.110   1_545 S
C578   H598    1.085   .     S
C578   C70     1.394   1_556 S
C579   H599    1.085   .     S
C580   C749    1.334   .     S
C580   H768    1.088   .     S
C581   C916    1.334   1_545 S
C581   H937    1.088   1_545 S
C582   O613    1.286   .     A
C582   O611    1.286   .     A
C583   O612    1.286   .     A
C583   O614    1.286   .     A
C584   H585    1.086   .     S
H586   N660    1.029   .     S
H587   N605    1.032   .     S
H588   C912    1.112   1_545 S
H589   C912    1.110   1_545 S
H591   N606    1.032   .     S
H592   C745    1.112   .     S
H594   C745    1.110   .     S
H600   C916    1.088   1_545 S
H601   C749    1.088   .     S
N603   Zn616   2.018   .     S
N603   H658    1.029   .     S
N603   N660    1.276   .     S
N604   Zn615   2.018   .     S
O607   Zn615   1.954   .     S
O608   Zn616   1.954   .     S
O609   Zn616   1.973   .     S
O610   Zn615   1.973   .     S
O611   Zn615   1.990   .     S
O612   Zn616   1.990   .     S
O613   Zn616   2.014   .     S
O614   Zn615   2.014   .     S
C617   O663    1.277   .     A
C617   C636    1.399   .     S
C617   O665    1.285   .     A
C618   H651    1.086   .     S
C618   C620    1.388   .     A
C618   C629    1.383   .     A
C619   C639    1.418   .     S
C619   C640    1.388   .     A
C619   C621    1.391   .     A
C620   C638    1.418   .     S
C620   C622    1.391   .     A
C621   C623    1.389   .     A
C621   H652    1.085   .     S
C622   H653    1.084   .     S
C622   C624    1.389   .     A
C623   C625    1.418   .     A
C623   C630    1.411   .     A
C624   C631    1.411   .     A
C624   C626    1.418   .     A
C625   C627    1.413   .     A
C626   C629    1.413   .     A
C626   C121    1.392   1_556 S
C627   C635    1.397   .     A
C627   C640    1.383   .     A
C628   O666    1.285   .     A
C628   O664    1.277   .     A
C628   C637    1.399   .     S
C629   C634    1.397   .     A
C630   N661    1.424   .     S
C631   N662    1.424   .     S
C631   C131    1.394   1_556 S
C632   N661    1.447   .     S
C632   H646    1.111   .     S
C632   H812    1.112   .     S
C632   H813    1.110   .     S
C633   H649    1.111   .     S
C633   N662    1.447   .     S
C633   H984    1.112   1_545 S
C633   H986    1.110   1_545 S
C634   H654    1.085   .     S
C634   C126    1.394   1_556 S
C635   H655    1.085   .     S
C636   C805    1.334   .     S
C636   H824    1.088   .     S
C637   C972    1.334   1_545 S
C637   H993    1.088   1_545 S
C638   O669    1.286   .     A
C638   O667    1.286   .     A
C639   O668    1.286   .     A
C639   O670    1.286   .     A
C640   H641    1.086   .     S
H642   N548    1.029   1_655 S
H643   N661    1.032   .     S
H644   C968    1.112   1_545 S
H645   C968    1.110   1_545 S
H647   N662    1.032   .     S
H648   C801    1.112   .     S
H650   C801    1.110   .     S
H656   C972    1.088   1_545 S
H657   C805    1.088   .     S
N659   Zn672   2.018   .     S
N659   H546    1.029   1_655 S
N659   N548    1.276   1_655 S
N660   Zn671   2.018   .     S
O663   Zn671   1.954   .     S
O664   Zn672   1.954   .     S
O665   Zn672   1.973   .     S
O666   Zn671   1.973   .     S
O667   Zn671   1.990   .     S
O668   Zn672   1.990   .     S
O669   Zn672   2.014   .     S
O670   Zn671   2.014   .     S
C673   O719    1.277   .     A
C673   C692    1.399   .     S
C673   O721    1.285   .     A
C674   H707    1.086   .     S
C674   C676    1.388   .     A
C674   C685    1.383   .     A
C675   C695    1.418   .     S
C675   C696    1.388   .     A
C675   C677    1.391   .     A
C676   C694    1.418   .     S
C676   C678    1.391   .     A
C677   C679    1.389   .     A
C677   H708    1.085   .     S
C678   H709    1.084   .     S
C678   C680    1.389   .     A
C679   C681    1.418   .     A
C679   C686    1.411   .     A
C680   C687    1.411   .     A
C680   C682    1.418   .     A
C681   C683    1.413   .     A
C682   C685    1.413   .     A
C682   C177    1.392   1_556 S
C683   C691    1.397   .     A
C683   C696    1.383   .     A
C684   O722    1.285   .     A
C684   O720    1.277   .     A
C684   C693    1.399   .     S
C685   C690    1.397   .     A
C686   N717    1.424   .     S
C687   N718    1.424   .     S
C687   C187    1.394   1_556 S
C688   N717    1.447   .     S
C688   H702    1.111   .     S
C688   H868    1.112   .     S
C688   H869    1.110   .     S
C689   H705    1.111   .     S
C689   N718    1.447   .     S
C690   H710    1.085   .     S
C690   C182    1.394   1_556 S
C691   H711    1.085   .     S
C692   C861    1.334   .     S
C692   H880    1.088   .     S
C694   O725    1.286   .     A
C694   O723    1.286   .     A
C695   O724    1.286   .     A
C695   O726    1.286   .     A
C696   H697    1.086   .     S
H698   N772    1.029   .     S
H699   N717    1.032   .     S
H703   N718    1.032   .     S
H704   C857    1.112   .     S
H706   C857    1.110   .     S
H713   C861    1.088   .     S
H714   N827    1.029   1_455 S
N715   Zn728   2.018   .     S
N715   H770    1.029   .     S
N715   N772    1.276   .     S
N716   Zn727   2.018   .     S
N716   N827    1.276   1_455 S
N716   H810    1.029   1_455 S
O719   Zn727   1.954   .     S
O720   Zn728   1.954   .     S
O721   Zn728   1.973   .     S
O722   Zn727   1.973   .     S
O723   Zn727   1.990   .     S
O724   Zn728   1.990   .     S
O725   Zn728   2.014   .     S
O726   Zn727   2.014   .     S
C729   O775    1.277   .     A
C729   C748    1.399   .     S
C729   O777    1.285   .     A
C730   H763    1.086   .     S
C730   C732    1.388   .     A
C730   C741    1.383   .     A
C731   C751    1.418   .     S
C731   C752    1.388   .     A
C731   C733    1.391   .     A
C732   C750    1.418   .     S
C732   C734    1.391   .     A
C733   C735    1.389   .     A
C733   H764    1.085   .     S
C734   H765    1.084   .     S
C734   C736    1.389   .     A
C735   C737    1.418   .     A
C735   C742    1.411   .     A
C736   C743    1.411   .     A
C736   C738    1.418   .     A
C737   C739    1.413   .     A
C738   C741    1.413   .     A
C738   C233    1.392   1_556 S
C739   C747    1.397   .     A
C739   C752    1.383   .     A
C740   O778    1.285   .     A
C740   O776    1.277   .     A
C740   C749    1.399   .     S
C741   C746    1.397   .     A
C742   N773    1.424   .     S
C743   N774    1.424   .     S
C743   C243    1.394   1_556 S
C744   N773    1.447   .     S
C744   H758    1.111   .     S
C744   H924    1.112   .     S
C744   H925    1.110   .     S
C745   H761    1.111   .     S
C745   N774    1.447   .     S
C746   H766    1.085   .     S
C746   C238    1.394   1_556 S
C747   H767    1.085   .     S
C748   C917    1.334   .     S
C748   H936    1.088   .     S
C750   O781    1.286   .     A
C750   O779    1.286   .     A
C751   O780    1.286   .     A
C751   O782    1.286   .     A
C752   H753    1.086   .     S
H754   N828    1.029   .     S
H755   N773    1.032   .     S
H759   N774    1.032   .     S
H760   C913    1.112   .     S
H762   C913    1.110   .     S
H769   C917    1.088   .     S
N771   Zn784   2.018   .     S
N771   H826    1.029   .     S
N771   N828    1.276   .     S
N772   Zn783   2.018   .     S
O775   Zn783   1.954   .     S
O776   Zn784   1.954   .     S
O777   Zn784   1.973   .     S
O778   Zn783   1.973   .     S
O779   Zn783   1.990   .     S
O780   Zn784   1.990   .     S
O781   Zn784   2.014   .     S
O782   Zn783   2.014   .     S
C785   O831    1.277   .     A
C785   C804    1.399   .     S
C785   O833    1.285   .     A
C786   H819    1.086   .     S
C786   C788    1.388   .     A
C786   C797    1.383   .     A
C787   C807    1.418   .     S
C787   C808    1.388   .     A
C787   C789    1.391   .     A
C788   C806    1.418   .     S
C788   C790    1.391   .     A
C789   C791    1.389   .     A
C789   H820    1.085   .     S
C790   H821    1.084   .     S
C790   C792    1.389   .     A
C791   C793    1.418   .     A
C791   C798    1.411   .     A
C792   C799    1.411   .     A
C792   C794    1.418   .     A
C793   C795    1.413   .     A
C794   C797    1.413   .     A
C794   C289    1.392   1_556 S
C795   C803    1.397   .     A
C795   C808    1.383   .     A
C796   O834    1.285   .     A
C796   O832    1.277   .     A
C796   C805    1.399   .     S
C797   C802    1.397   .     A
C798   N829    1.424   .     S
C799   N830    1.424   .     S
C799   C299    1.394   1_556 S
C800   N829    1.447   .     S
C800   H814    1.111   .     S
C800   H980    1.112   .     S
C800   H981    1.110   .     S
C801   H817    1.111   .     S
C801   N830    1.447   .     S
C802   H822    1.085   .     S
C802   C294    1.394   1_556 S
C803   H823    1.085   .     S
C804   C973    1.334   .     S
C804   H992    1.088   .     S
C806   O837    1.286   .     A
C806   O835    1.286   .     A
C807   O836    1.286   .     A
C807   O838    1.286   .     A
C808   H809    1.086   .     S
H810   N716    1.029   1_655 S
H811   N829    1.032   .     S
H815   N830    1.032   .     S
H816   C969    1.112   .     S
H818   C969    1.110   .     S
H825   C973    1.088   .     S
N827   Zn840   2.018   .     S
N827   H714    1.029   1_655 S
N827   N716    1.276   1_655 S
N828   Zn839   2.018   .     S
O831   Zn839   1.954   .     S
O832   Zn840   1.954   .     S
O833   Zn840   1.973   .     S
O834   Zn839   1.973   .     S
O835   Zn839   1.990   .     S
O836   Zn840   1.990   .     S
O837   Zn840   2.014   .     S
O838   Zn839   2.014   .     S
C841   O887    1.277   .     A
C841   C860    1.399   .     S
C841   O889    1.285   .     A
C842   H875    1.086   .     S
C842   C844    1.388   .     A
C842   C853    1.383   .     A
C843   C863    1.418   .     S
C843   C864    1.388   .     A
C843   C845    1.391   .     A
C844   C862    1.418   .     S
C844   C846    1.391   .     A
C845   C847    1.389   .     A
C845   H876    1.085   .     S
C846   H877    1.084   .     S
C846   C848    1.389   .     A
C847   C849    1.418   .     A
C847   C854    1.411   .     A
C848   C855    1.411   .     A
C848   C850    1.418   .     A
C849   C851    1.413   .     A
C850   C853    1.413   .     A
C850   C345    1.392   1_556 S
C851   C859    1.397   .     A
C851   C864    1.383   .     A
C852   O890    1.285   .     A
C852   O888    1.277   .     A
C852   C861    1.399   .     S
C853   C858    1.397   .     A
C854   N885    1.424   .     S
C855   N886    1.424   .     S
C855   C355    1.394   1_556 S
C856   N885    1.447   .     S
C856   H870    1.111   .     S
C856   H532    1.112   1_565 S
C856   H533    1.110   1_565 S
C857   H873    1.111   .     S
C857   N886    1.447   .     S
C858   H878    1.085   .     S
C858   C350    1.394   1_556 S
C859   H879    1.085   .     S
C860   C525    1.334   1_565 S
C860   H544    1.088   1_565 S
C862   O893    1.286   .     A
C862   O891    1.286   .     A
C863   O892    1.286   .     A
C863   O894    1.286   .     A
C864   H865    1.086   .     S
H866   N940    1.029   .     S
H867   N885    1.032   .     S
H871   N886    1.032   .     S
H872   C521    1.112   1_565 S
H874   C521    1.110   1_565 S
H881   C525    1.088   1_565 S
H882   N995    1.029   1_455 S
N883   Zn896   2.018   .     S
N883   H938    1.029   .     S
N883   N940    1.276   .     S
N884   Zn895   2.018   .     S
N884   N995    1.276   1_455 S
N884   H978    1.029   1_455 S
O887   Zn895   1.954   .     S
O888   Zn896   1.954   .     S
O889   Zn896   1.973   .     S
O890   Zn895   1.973   .     S
O891   Zn895   1.990   .     S
O892   Zn896   1.990   .     S
O893   Zn896   2.014   .     S
O894   Zn895   2.014   .     S
C897   O943    1.277   .     A
C897   C916    1.399   .     S
C897   O945    1.285   .     A
C898   H931    1.086   .     S
C898   C900    1.388   .     A
C898   C909    1.383   .     A
C899   C919    1.418   .     S
C899   C920    1.388   .     A
C899   C901    1.391   .     A
C900   C918    1.418   .     S
C900   C902    1.391   .     A
C901   C903    1.389   .     A
C901   H932    1.085   .     S
C902   H933    1.084   .     S
C902   C904    1.389   .     A
C903   C905    1.418   .     A
C903   C910    1.411   .     A
C904   C911    1.411   .     A
C904   C906    1.418   .     A
C905   C907    1.413   .     A
C906   C909    1.413   .     A
C906   C401    1.392   1_556 S
C907   C915    1.397   .     A
C907   C920    1.383   .     A
C908   O946    1.285   .     A
C908   O944    1.277   .     A
C908   C917    1.399   .     S
C909   C914    1.397   .     A
C910   N941    1.424   .     S
C911   N942    1.424   .     S
C911   C411    1.394   1_556 S
C912   N941    1.447   .     S
C912   H926    1.111   .     S
C912   H588    1.112   1_565 S
C912   H589    1.110   1_565 S
C913   H929    1.111   .     S
C913   N942    1.447   .     S
C914   H934    1.085   .     S
C914   C406    1.394   1_556 S
C915   H935    1.085   .     S
C916   C581    1.334   1_565 S
C916   H600    1.088   1_565 S
C918   O949    1.286   .     A
C918   O947    1.286   .     A
C919   O948    1.286   .     A
C919   O950    1.286   .     A
C920   H921    1.086   .     S
H922   N996    1.029   .     S
H923   N941    1.032   .     S
H927   N942    1.032   .     S
H928   C577    1.112   1_565 S
H930   C577    1.110   1_565 S
H937   C581    1.088   1_565 S
N939   Zn952   2.018   .     S
N939   H994    1.029   .     S
N939   N996    1.276   .     S
N940   Zn951   2.018   .     S
O943   Zn951   1.954   .     S
O944   Zn952   1.954   .     S
O945   Zn952   1.973   .     S
O946   Zn951   1.973   .     S
O947   Zn951   1.990   .     S
O948   Zn952   1.990   .     S
O949   Zn952   2.014   .     S
O950   Zn951   2.014   .     S
C953   O999    1.277   .     A
C953   C972    1.399   .     S
C953   O1001   1.285   .     A
C954   H987    1.086   .     S
C954   C956    1.388   .     A
C954   C965    1.383   .     A
C955   C975    1.418   .     S
C955   C976    1.388   .     A
C955   C957    1.391   .     A
C956   C974    1.418   .     S
C956   C958    1.391   .     A
C957   C959    1.389   .     A
C957   H988    1.085   .     S
C958   H989    1.084   .     S
C958   C960    1.389   .     A
C959   C961    1.418   .     A
C959   C966    1.411   .     A
C960   C967    1.411   .     A
C960   C962    1.418   .     A
C961   C963    1.413   .     A
C962   C965    1.413   .     A
C962   C457    1.392   1_556 S
C963   C971    1.397   .     A
C963   C976    1.383   .     A
C964   O1002   1.285   .     A
C964   O1000   1.277   .     A
C964   C973    1.399   .     S
C965   C970    1.397   .     A
C966   N997    1.424   .     S
C967   N998    1.424   .     S
C967   C467    1.394   1_556 S
C968   N997    1.447   .     S
C968   H982    1.111   .     S
C968   H644    1.112   1_565 S
C968   H645    1.110   1_565 S
C969   H985    1.111   .     S
C969   N998    1.447   .     S
C970   H990    1.085   .     S
C970   C462    1.394   1_556 S
C971   H991    1.085   .     S
C972   C637    1.334   1_565 S
C972   H656    1.088   1_565 S
C974   O1005   1.286   .     A
C974   O1003   1.286   .     A
C975   O1004   1.286   .     A
C975   O1006   1.286   .     A
C976   H977    1.086   .     S
H978   N884    1.029   1_655 S
H979   N997    1.032   .     S
H983   N998    1.032   .     S
H984   C633    1.112   1_565 S
H986   C633    1.110   1_565 S
H993   C637    1.088   1_565 S
N995   Zn1008  2.018   .     S
N995   H882    1.029   1_655 S
N995   N884    1.276   1_655 S
N996   Zn1007  2.018   .     S
O999   Zn1007  1.954   .     S
O1000  Zn1008  1.954   .     S
O1001  Zn1008  1.973   .     S
O1002  Zn1007  1.973   .     S
O1003  Zn1007  1.990   .     S
O1004  Zn1008  1.990   .     S
O1005  Zn1008  2.014   .     S
O1006  Zn1007  2.014   .     S
