data_str_m3_o10_o18_pcu_sym.6
_audit_creation_date              2020-01-03
_audit_creation_method            'Materials Studio'
_symmetry_space_group_name_H-M    'P1'
_symmetry_Int_Tables_number       1
_symmetry_cell_setting            triclinic
loop_
_symmetry_equiv_pos_as_xyz
  x,y,z
_cell_length_a                    23.7060
_cell_length_b                    25.7344
_cell_length_c                    27.5475
_cell_angle_alpha                 93.6094
_cell_angle_beta                  93.3742
_cell_angle_gamma                 93.8719
loop_
_atom_site_label
_atom_site_type_symbol
_atom_site_fract_x
_atom_site_fract_y
_atom_site_fract_z
_atom_site_U_iso_or_equiv
_atom_site_adp_type
_atom_site_occupancy
C1     C     0.01444   0.26462   0.24801   0.00000  Uiso   1.00
C2     C     0.31226   0.16222   0.15911   0.00000  Uiso   1.00
C3     C     0.03189   0.17665   0.39334   0.00000  Uiso   1.00
C4     C     0.30140   0.15366   0.10684   0.00000  Uiso   1.00
C5     C     0.02030   0.22167   0.47109   0.00000  Uiso   1.00
C6     C     0.31193   0.10467   0.03072   0.00000  Uiso   1.00
C7     C     0.00200   0.21035   0.42238   0.00000  Uiso   1.00
C8     C     0.33070   0.11818   0.07908   0.00000  Uiso   1.00
C9     C     0.07853   0.15386   0.41314   0.00000  Uiso   1.00
C10    C     0.25489   0.17564   0.08622   0.00000  Uiso   1.00
C11    C     0.10335   0.17200   0.45867   0.00000  Uiso   1.00
C12    C     0.31894   0.06877   0.25220   0.00000  Uiso   1.00
C13    C     0.22935   0.15510   0.04173   0.00000  Uiso   1.00
C14    C     0.07101   0.20279   0.48938   0.00000  Uiso   1.00
C15    C     0.26120   0.12307   0.01185   0.00000  Uiso   1.00
C16    C     0.15813   0.15864   0.47502   0.00000  Uiso   1.00
C17    C     0.17440   0.16767   0.02546   0.00000  Uiso   1.00
C18    C     0.13827   0.18182   0.11068   0.00000  Uiso   1.00
C19    C     0.19818   0.14487   0.39058   0.00000  Uiso   1.00
C20    C     0.04235   0.33120   0.19120   0.00000  Uiso   1.00
C21    C     0.29143   0.00272   0.30965   0.00000  Uiso   1.00
C22    C     0.15965   0.09967   0.22905   0.00000  Uiso   1.00
C23    C     0.13524   0.18890   0.05765   0.00000  Uiso   1.00
C24    C     0.17437   0.23417   0.26832   0.00000  Uiso   1.00
C25    C     0.19756   0.13678   0.44323   0.00000  Uiso   1.00
C26    C     0.08737   0.21106   0.03855   0.00000  Uiso   1.00
C27    C     0.24455   0.11368   0.46280   0.00000  Uiso   1.00
C28    C     0.01698   0.31771   0.23776   0.00000  Uiso   1.00
C29    C     0.31647   0.01579   0.26280   0.00000  Uiso   1.00
C30    C     0.02106   0.17048   0.34091   0.00000  Uiso   1.00
H31    H     0.05947   0.23012   0.06277   0.00000  Uiso   1.00
H32    H     0.21531   0.11632   0.36593   0.00000  Uiso   1.00
H33    H     0.02791   0.02997   0.17115   0.00000  Uiso   1.00
H34    H     0.30382   0.30251   0.32862   0.00000  Uiso   1.00
H35    H     0.17448   0.07784   0.25912   0.00000  Uiso   1.00
H36    H     0.15816   0.25391   0.23736   0.00000  Uiso   1.00
H37    H     0.27227   0.09403   0.43879   0.00000  Uiso   1.00
H38    H     0.23808   0.20788   0.10636   0.00000  Uiso   1.00
H39    H     0.09610   0.12311   0.39158   0.00000  Uiso   1.00
H40    H     0.03413   0.10096   0.09470   0.00000  Uiso   1.00
H41    H     0.29860   0.22812   0.40741   0.00000  Uiso   1.00
H42    H     0.32894   0.24583   0.49411   0.00000  Uiso   1.00
H43    H     0.00299   0.07945   0.00845   0.00000  Uiso   1.00
H44    H     0.15769   0.14839   0.12459   0.00000  Uiso   1.00
N45    N     0.14695   0.15216   0.23740   0.00000  Uiso   1.00
N46    N     0.18638   0.18117   0.26261   0.00000  Uiso   1.00
O47    O     0.29719   0.24631   0.25310   0.00000  Uiso   1.00
O48    O     0.18288   0.18519   0.37482   0.00000  Uiso   1.00
O49    O     0.07933   0.30606   0.17442   0.00000  Uiso   1.00
O50    O     0.25741   0.03018   0.32819   0.00000  Uiso   1.00
O51    O     0.15085   0.07780   0.18850   0.00000  Uiso   1.00
O52    O     0.18542   0.25888   0.30730   0.00000  Uiso   1.00
O53    O     0.03614   0.08702   0.24691   0.00000  Uiso   1.00
O54    O     0.05822   0.23702   0.24501   0.00000  Uiso   1.00
O55    O     0.27512   0.09632   0.25499   0.00000  Uiso   1.00
O56    O     0.30328   0.17397   0.32247   0.00000  Uiso   1.00
O57    O     0.03005   0.15937   0.17753   0.00000  Uiso   1.00
O58    O     0.06431   0.16467   0.31439   0.00000  Uiso   1.00
O59    O     0.26902   0.16866   0.18561   0.00000  Uiso   1.00
O60    O     0.11991   0.21356   0.13930   0.00000  Uiso   1.00
Zn61   Zn    0.27033   0.17287   0.25540   0.00000  Uiso   1.00
Zn62   Zn    0.06300   0.16046   0.24461   0.00000  Uiso   1.00
C63    C     0.34777   0.26462   0.24801   0.00000  Uiso   1.00
C64    C     0.64559   0.16222   0.15911   0.00000  Uiso   1.00
C65    C     0.36523   0.17665   0.39334   0.00000  Uiso   1.00
C66    C     0.63473   0.15366   0.10684   0.00000  Uiso   1.00
C67    C     0.35363   0.22167   0.47109   0.00000  Uiso   1.00
C68    C     0.64526   0.10467   0.03072   0.00000  Uiso   1.00
C69    C     0.33533   0.21035   0.42238   0.00000  Uiso   1.00
C70    C     0.66403   0.11818   0.07908   0.00000  Uiso   1.00
C71    C     0.41187   0.15386   0.41314   0.00000  Uiso   1.00
C72    C     0.58822   0.17564   0.08622   0.00000  Uiso   1.00
C73    C     0.43669   0.17200   0.45867   0.00000  Uiso   1.00
C74    C     0.65227   0.06877   0.25220   0.00000  Uiso   1.00
C75    C     0.56269   0.15510   0.04173   0.00000  Uiso   1.00
C76    C     0.40434   0.20279   0.48938   0.00000  Uiso   1.00
C77    C     0.59454   0.12307   0.01185   0.00000  Uiso   1.00
C78    C     0.49146   0.15864   0.47502   0.00000  Uiso   1.00
C79    C     0.50774   0.16767   0.02546   0.00000  Uiso   1.00
C80    C     0.47161   0.18182   0.11068   0.00000  Uiso   1.00
C81    C     0.53151   0.14487   0.39058   0.00000  Uiso   1.00
C82    C     0.37569   0.33120   0.19120   0.00000  Uiso   1.00
C83    C     0.62476   0.00272   0.30965   0.00000  Uiso   1.00
C84    C     0.49298   0.09967   0.22905   0.00000  Uiso   1.00
C85    C     0.46857   0.18890   0.05765   0.00000  Uiso   1.00
C86    C     0.50770   0.23417   0.26832   0.00000  Uiso   1.00
C87    C     0.53089   0.13678   0.44323   0.00000  Uiso   1.00
C88    C     0.42070   0.21106   0.03855   0.00000  Uiso   1.00
C89    C     0.57789   0.11368   0.46280   0.00000  Uiso   1.00
C90    C     0.35031   0.31771   0.23776   0.00000  Uiso   1.00
C91    C     0.64980   0.01579   0.26280   0.00000  Uiso   1.00
C92    C     0.35439   0.17048   0.34091   0.00000  Uiso   1.00
H93    H     0.39281   0.23012   0.06277   0.00000  Uiso   1.00
H94    H     0.54864   0.11632   0.36593   0.00000  Uiso   1.00
H95    H     0.36124   0.02997   0.17115   0.00000  Uiso   1.00
H96    H     0.63715   0.30251   0.32862   0.00000  Uiso   1.00
H97    H     0.50781   0.07784   0.25912   0.00000  Uiso   1.00
H98    H     0.49150   0.25391   0.23736   0.00000  Uiso   1.00
H99    H     0.60561   0.09403   0.43879   0.00000  Uiso   1.00
H100   H     0.57141   0.20788   0.10636   0.00000  Uiso   1.00
H101   H     0.42943   0.12311   0.39158   0.00000  Uiso   1.00
H102   H     0.36747   0.10096   0.09470   0.00000  Uiso   1.00
H103   H     0.63193   0.22812   0.40741   0.00000  Uiso   1.00
H104   H     0.66227   0.24583   0.49411   0.00000  Uiso   1.00
H105   H     0.33632   0.07945   0.00845   0.00000  Uiso   1.00
H106   H     0.49103   0.14839   0.12459   0.00000  Uiso   1.00
N107   N     0.48029   0.15216   0.23740   0.00000  Uiso   1.00
N108   N     0.51971   0.18117   0.26261   0.00000  Uiso   1.00
O109   O     0.63052   0.24631   0.25310   0.00000  Uiso   1.00
O110   O     0.51622   0.18519   0.37482   0.00000  Uiso   1.00
O111   O     0.41267   0.30606   0.17442   0.00000  Uiso   1.00
O112   O     0.59074   0.03018   0.32819   0.00000  Uiso   1.00
O113   O     0.48418   0.07780   0.18850   0.00000  Uiso   1.00
O114   O     0.51875   0.25888   0.30730   0.00000  Uiso   1.00
O115   O     0.36948   0.08702   0.24691   0.00000  Uiso   1.00
O116   O     0.39155   0.23702   0.24501   0.00000  Uiso   1.00
O117   O     0.60845   0.09632   0.25499   0.00000  Uiso   1.00
O118   O     0.63662   0.17397   0.32247   0.00000  Uiso   1.00
O119   O     0.36338   0.15937   0.17753   0.00000  Uiso   1.00
O120   O     0.39764   0.16467   0.31439   0.00000  Uiso   1.00
O121   O     0.60236   0.16866   0.18561   0.00000  Uiso   1.00
O122   O     0.45324   0.21356   0.13930   0.00000  Uiso   1.00
Zn123  Zn    0.60366   0.17287   0.25540   0.00000  Uiso   1.00
Zn124  Zn    0.39634   0.16046   0.24461   0.00000  Uiso   1.00
C125   C     0.68110   0.26462   0.24801   0.00000  Uiso   1.00
C126   C     0.97892   0.16222   0.15911   0.00000  Uiso   1.00
C127   C     0.69856   0.17665   0.39334   0.00000  Uiso   1.00
C128   C     0.96806   0.15366   0.10684   0.00000  Uiso   1.00
C129   C     0.68697   0.22167   0.47109   0.00000  Uiso   1.00
C130   C     0.97859   0.10467   0.03072   0.00000  Uiso   1.00
C131   C     0.66867   0.21035   0.42238   0.00000  Uiso   1.00
C132   C     0.99737   0.11818   0.07908   0.00000  Uiso   1.00
C133   C     0.74520   0.15386   0.41314   0.00000  Uiso   1.00
C134   C     0.92156   0.17564   0.08622   0.00000  Uiso   1.00
C135   C     0.77002   0.17200   0.45867   0.00000  Uiso   1.00
C136   C     0.98560   0.06877   0.25220   0.00000  Uiso   1.00
C137   C     0.89602   0.15510   0.04173   0.00000  Uiso   1.00
C138   C     0.73767   0.20279   0.48938   0.00000  Uiso   1.00
C139   C     0.92787   0.12307   0.01185   0.00000  Uiso   1.00
C140   C     0.82480   0.15864   0.47502   0.00000  Uiso   1.00
C141   C     0.84107   0.16767   0.02546   0.00000  Uiso   1.00
C142   C     0.80494   0.18182   0.11068   0.00000  Uiso   1.00
C143   C     0.86484   0.14487   0.39058   0.00000  Uiso   1.00
C144   C     0.70902   0.33120   0.19120   0.00000  Uiso   1.00
C145   C     0.95809   0.00272   0.30965   0.00000  Uiso   1.00
C146   C     0.82631   0.09967   0.22905   0.00000  Uiso   1.00
C147   C     0.80190   0.18890   0.05765   0.00000  Uiso   1.00
C148   C     0.84103   0.23417   0.26832   0.00000  Uiso   1.00
C149   C     0.86422   0.13678   0.44323   0.00000  Uiso   1.00
C150   C     0.75404   0.21106   0.03855   0.00000  Uiso   1.00
C151   C     0.91122   0.11368   0.46280   0.00000  Uiso   1.00
C152   C     0.68365   0.31771   0.23776   0.00000  Uiso   1.00
C153   C     0.98313   0.01579   0.26280   0.00000  Uiso   1.00
C154   C     0.68772   0.17048   0.34091   0.00000  Uiso   1.00
H155   H     0.72614   0.23012   0.06277   0.00000  Uiso   1.00
H156   H     0.88197   0.11632   0.36593   0.00000  Uiso   1.00
H157   H     0.69457   0.02997   0.17115   0.00000  Uiso   1.00
H158   H     0.97048   0.30251   0.32862   0.00000  Uiso   1.00
H159   H     0.84114   0.07784   0.25912   0.00000  Uiso   1.00
H160   H     0.82483   0.25391   0.23736   0.00000  Uiso   1.00
H161   H     0.93894   0.09403   0.43879   0.00000  Uiso   1.00
H162   H     0.90475   0.20788   0.10636   0.00000  Uiso   1.00
H163   H     0.76277   0.12311   0.39158   0.00000  Uiso   1.00
H164   H     0.70080   0.10096   0.09470   0.00000  Uiso   1.00
H165   H     0.96526   0.22812   0.40741   0.00000  Uiso   1.00
H166   H     0.99560   0.24583   0.49411   0.00000  Uiso   1.00
H167   H     0.66966   0.07945   0.00845   0.00000  Uiso   1.00
H168   H     0.82436   0.14839   0.12459   0.00000  Uiso   1.00
N169   N     0.81362   0.15216   0.23740   0.00000  Uiso   1.00
N170   N     0.85305   0.18117   0.26261   0.00000  Uiso   1.00
O171   O     0.96386   0.24631   0.25310   0.00000  Uiso   1.00
O172   O     0.84955   0.18519   0.37482   0.00000  Uiso   1.00
O173   O     0.74600   0.30606   0.17442   0.00000  Uiso   1.00
O174   O     0.92407   0.03018   0.32819   0.00000  Uiso   1.00
O175   O     0.81751   0.07780   0.18850   0.00000  Uiso   1.00
O176   O     0.85208   0.25888   0.30730   0.00000  Uiso   1.00
O177   O     0.70281   0.08702   0.24691   0.00000  Uiso   1.00
O178   O     0.72488   0.23702   0.24501   0.00000  Uiso   1.00
O179   O     0.94178   0.09632   0.25499   0.00000  Uiso   1.00
O180   O     0.96995   0.17397   0.32247   0.00000  Uiso   1.00
O181   O     0.69672   0.15937   0.17753   0.00000  Uiso   1.00
O182   O     0.73098   0.16467   0.31439   0.00000  Uiso   1.00
O183   O     0.93569   0.16866   0.18561   0.00000  Uiso   1.00
O184   O     0.78658   0.21356   0.13930   0.00000  Uiso   1.00
Zn185  Zn    0.93700   0.17287   0.25540   0.00000  Uiso   1.00
Zn186  Zn    0.72967   0.16046   0.24461   0.00000  Uiso   1.00
C187   C     0.01444   0.59795   0.24801   0.00000  Uiso   1.00
C188   C     0.31226   0.49555   0.15911   0.00000  Uiso   1.00
C189   C     0.03189   0.50998   0.39334   0.00000  Uiso   1.00
C190   C     0.30140   0.48699   0.10684   0.00000  Uiso   1.00
C191   C     0.02030   0.55501   0.47109   0.00000  Uiso   1.00
C192   C     0.31193   0.43801   0.03072   0.00000  Uiso   1.00
C193   C     0.00200   0.54369   0.42238   0.00000  Uiso   1.00
C194   C     0.33070   0.45151   0.07908   0.00000  Uiso   1.00
C195   C     0.07853   0.48719   0.41314   0.00000  Uiso   1.00
C196   C     0.25489   0.50897   0.08622   0.00000  Uiso   1.00
C197   C     0.10335   0.50533   0.45867   0.00000  Uiso   1.00
C198   C     0.31894   0.40210   0.25220   0.00000  Uiso   1.00
C199   C     0.22935   0.48843   0.04173   0.00000  Uiso   1.00
C200   C     0.07101   0.53612   0.48938   0.00000  Uiso   1.00
C201   C     0.26120   0.45640   0.01185   0.00000  Uiso   1.00
C202   C     0.15813   0.49197   0.47502   0.00000  Uiso   1.00
C203   C     0.17440   0.50101   0.02546   0.00000  Uiso   1.00
C204   C     0.13827   0.51516   0.11068   0.00000  Uiso   1.00
C205   C     0.19818   0.47820   0.39058   0.00000  Uiso   1.00
C206   C     0.04235   0.66453   0.19120   0.00000  Uiso   1.00
C207   C     0.29143   0.33606   0.30965   0.00000  Uiso   1.00
C208   C     0.15965   0.43300   0.22905   0.00000  Uiso   1.00
C209   C     0.13524   0.52224   0.05765   0.00000  Uiso   1.00
C210   C     0.17437   0.56750   0.26832   0.00000  Uiso   1.00
C211   C     0.19756   0.47011   0.44323   0.00000  Uiso   1.00
C212   C     0.08737   0.54440   0.03855   0.00000  Uiso   1.00
C213   C     0.24455   0.44702   0.46280   0.00000  Uiso   1.00
C214   C     0.01698   0.65104   0.23776   0.00000  Uiso   1.00
C215   C     0.31647   0.34912   0.26280   0.00000  Uiso   1.00
C216   C     0.02106   0.50381   0.34091   0.00000  Uiso   1.00
H217   H     0.05947   0.56345   0.06277   0.00000  Uiso   1.00
H218   H     0.21531   0.44965   0.36593   0.00000  Uiso   1.00
H219   H     0.02791   0.36330   0.17115   0.00000  Uiso   1.00
H220   H     0.30382   0.63584   0.32862   0.00000  Uiso   1.00
H221   H     0.17448   0.41117   0.25912   0.00000  Uiso   1.00
H222   H     0.15816   0.58725   0.23736   0.00000  Uiso   1.00
H223   H     0.27227   0.42737   0.43879   0.00000  Uiso   1.00
H224   H     0.23808   0.54121   0.10636   0.00000  Uiso   1.00
H225   H     0.09610   0.45644   0.39158   0.00000  Uiso   1.00
H226   H     0.03413   0.43430   0.09470   0.00000  Uiso   1.00
H227   H     0.29860   0.56145   0.40741   0.00000  Uiso   1.00
H228   H     0.32894   0.57917   0.49411   0.00000  Uiso   1.00
H229   H     0.00299   0.41278   0.00845   0.00000  Uiso   1.00
H230   H     0.15769   0.48172   0.12459   0.00000  Uiso   1.00
N231   N     0.14695   0.48550   0.23740   0.00000  Uiso   1.00
N232   N     0.18638   0.51450   0.26261   0.00000  Uiso   1.00
O233   O     0.29719   0.57964   0.25310   0.00000  Uiso   1.00
O234   O     0.18288   0.51852   0.37482   0.00000  Uiso   1.00
O235   O     0.07933   0.63939   0.17442   0.00000  Uiso   1.00
O236   O     0.25741   0.36352   0.32819   0.00000  Uiso   1.00
O237   O     0.15085   0.41113   0.18850   0.00000  Uiso   1.00
O238   O     0.18542   0.59221   0.30730   0.00000  Uiso   1.00
O239   O     0.03614   0.42036   0.24691   0.00000  Uiso   1.00
O240   O     0.05822   0.57035   0.24501   0.00000  Uiso   1.00
O241   O     0.27512   0.42965   0.25499   0.00000  Uiso   1.00
O242   O     0.30328   0.50730   0.32247   0.00000  Uiso   1.00
O243   O     0.03005   0.49270   0.17753   0.00000  Uiso   1.00
O244   O     0.06431   0.49801   0.31439   0.00000  Uiso   1.00
O245   O     0.26902   0.50199   0.18561   0.00000  Uiso   1.00
O246   O     0.11991   0.54690   0.13930   0.00000  Uiso   1.00
Zn247  Zn    0.27033   0.50621   0.25540   0.00000  Uiso   1.00
Zn248  Zn    0.06300   0.49379   0.24461   0.00000  Uiso   1.00
C249   C     0.34777   0.59795   0.24801   0.00000  Uiso   1.00
C250   C     0.64559   0.49555   0.15911   0.00000  Uiso   1.00
C251   C     0.36523   0.50998   0.39334   0.00000  Uiso   1.00
C252   C     0.63473   0.48699   0.10684   0.00000  Uiso   1.00
C253   C     0.35363   0.55501   0.47109   0.00000  Uiso   1.00
C254   C     0.64526   0.43801   0.03072   0.00000  Uiso   1.00
C255   C     0.33533   0.54369   0.42238   0.00000  Uiso   1.00
C256   C     0.66403   0.45151   0.07908   0.00000  Uiso   1.00
C257   C     0.41187   0.48719   0.41314   0.00000  Uiso   1.00
C258   C     0.58822   0.50897   0.08622   0.00000  Uiso   1.00
C259   C     0.43669   0.50533   0.45867   0.00000  Uiso   1.00
C260   C     0.65227   0.40210   0.25220   0.00000  Uiso   1.00
C261   C     0.56269   0.48843   0.04173   0.00000  Uiso   1.00
C262   C     0.40434   0.53612   0.48938   0.00000  Uiso   1.00
C263   C     0.59454   0.45640   0.01185   0.00000  Uiso   1.00
C264   C     0.49146   0.49197   0.47502   0.00000  Uiso   1.00
C265   C     0.50774   0.50101   0.02546   0.00000  Uiso   1.00
C266   C     0.47161   0.51516   0.11068   0.00000  Uiso   1.00
C267   C     0.53151   0.47820   0.39058   0.00000  Uiso   1.00
C268   C     0.37569   0.66453   0.19120   0.00000  Uiso   1.00
C269   C     0.62476   0.33606   0.30965   0.00000  Uiso   1.00
C270   C     0.49298   0.43300   0.22905   0.00000  Uiso   1.00
C271   C     0.46857   0.52224   0.05765   0.00000  Uiso   1.00
C272   C     0.50770   0.56750   0.26832   0.00000  Uiso   1.00
C273   C     0.53089   0.47011   0.44323   0.00000  Uiso   1.00
C274   C     0.42070   0.54440   0.03855   0.00000  Uiso   1.00
C275   C     0.57789   0.44702   0.46280   0.00000  Uiso   1.00
C276   C     0.35031   0.65104   0.23776   0.00000  Uiso   1.00
C277   C     0.64980   0.34912   0.26280   0.00000  Uiso   1.00
C278   C     0.35439   0.50381   0.34091   0.00000  Uiso   1.00
H279   H     0.39281   0.56345   0.06277   0.00000  Uiso   1.00
H280   H     0.54864   0.44965   0.36593   0.00000  Uiso   1.00
H281   H     0.36124   0.36330   0.17115   0.00000  Uiso   1.00
H282   H     0.63715   0.63584   0.32862   0.00000  Uiso   1.00
H283   H     0.50781   0.41117   0.25912   0.00000  Uiso   1.00
H284   H     0.49150   0.58725   0.23736   0.00000  Uiso   1.00
H285   H     0.60561   0.42737   0.43879   0.00000  Uiso   1.00
H286   H     0.57141   0.54121   0.10636   0.00000  Uiso   1.00
H287   H     0.42943   0.45644   0.39158   0.00000  Uiso   1.00
H288   H     0.36747   0.43430   0.09470   0.00000  Uiso   1.00
H289   H     0.63193   0.56145   0.40741   0.00000  Uiso   1.00
H290   H     0.66227   0.57917   0.49411   0.00000  Uiso   1.00
H291   H     0.33632   0.41278   0.00845   0.00000  Uiso   1.00
H292   H     0.49103   0.48172   0.12459   0.00000  Uiso   1.00
N293   N     0.48029   0.48550   0.23740   0.00000  Uiso   1.00
N294   N     0.51971   0.51450   0.26261   0.00000  Uiso   1.00
O295   O     0.63052   0.57964   0.25310   0.00000  Uiso   1.00
O296   O     0.51622   0.51852   0.37482   0.00000  Uiso   1.00
O297   O     0.41267   0.63939   0.17442   0.00000  Uiso   1.00
O298   O     0.59074   0.36352   0.32819   0.00000  Uiso   1.00
O299   O     0.48418   0.41113   0.18850   0.00000  Uiso   1.00
O300   O     0.51875   0.59221   0.30730   0.00000  Uiso   1.00
O301   O     0.36948   0.42036   0.24691   0.00000  Uiso   1.00
O302   O     0.39155   0.57035   0.24501   0.00000  Uiso   1.00
O303   O     0.60845   0.42965   0.25499   0.00000  Uiso   1.00
O304   O     0.63662   0.50730   0.32247   0.00000  Uiso   1.00
O305   O     0.36338   0.49270   0.17753   0.00000  Uiso   1.00
O306   O     0.39764   0.49801   0.31439   0.00000  Uiso   1.00
O307   O     0.60236   0.50199   0.18561   0.00000  Uiso   1.00
O308   O     0.45324   0.54690   0.13930   0.00000  Uiso   1.00
Zn309  Zn    0.60366   0.50621   0.25540   0.00000  Uiso   1.00
Zn310  Zn    0.39634   0.49379   0.24461   0.00000  Uiso   1.00
C311   C     0.68110   0.59795   0.24801   0.00000  Uiso   1.00
C312   C     0.97892   0.49555   0.15911   0.00000  Uiso   1.00
C313   C     0.69856   0.50998   0.39334   0.00000  Uiso   1.00
C314   C     0.96806   0.48699   0.10684   0.00000  Uiso   1.00
C315   C     0.68697   0.55501   0.47109   0.00000  Uiso   1.00
C316   C     0.97859   0.43801   0.03072   0.00000  Uiso   1.00
C317   C     0.66867   0.54369   0.42238   0.00000  Uiso   1.00
C318   C     0.99737   0.45151   0.07908   0.00000  Uiso   1.00
C319   C     0.74520   0.48719   0.41314   0.00000  Uiso   1.00
C320   C     0.92156   0.50897   0.08622   0.00000  Uiso   1.00
C321   C     0.77002   0.50533   0.45867   0.00000  Uiso   1.00
C322   C     0.98560   0.40210   0.25220   0.00000  Uiso   1.00
C323   C     0.89602   0.48843   0.04173   0.00000  Uiso   1.00
C324   C     0.73767   0.53612   0.48938   0.00000  Uiso   1.00
C325   C     0.92787   0.45640   0.01185   0.00000  Uiso   1.00
C326   C     0.82480   0.49197   0.47502   0.00000  Uiso   1.00
C327   C     0.84107   0.50101   0.02546   0.00000  Uiso   1.00
C328   C     0.80494   0.51516   0.11068   0.00000  Uiso   1.00
C329   C     0.86484   0.47820   0.39058   0.00000  Uiso   1.00
C330   C     0.70902   0.66453   0.19120   0.00000  Uiso   1.00
C331   C     0.95809   0.33606   0.30965   0.00000  Uiso   1.00
C332   C     0.82631   0.43300   0.22905   0.00000  Uiso   1.00
C333   C     0.80190   0.52224   0.05765   0.00000  Uiso   1.00
C334   C     0.84103   0.56750   0.26832   0.00000  Uiso   1.00
C335   C     0.86422   0.47011   0.44323   0.00000  Uiso   1.00
C336   C     0.75404   0.54440   0.03855   0.00000  Uiso   1.00
C337   C     0.91122   0.44702   0.46280   0.00000  Uiso   1.00
C338   C     0.68365   0.65104   0.23776   0.00000  Uiso   1.00
C339   C     0.98313   0.34912   0.26280   0.00000  Uiso   1.00
C340   C     0.68772   0.50381   0.34091   0.00000  Uiso   1.00
H341   H     0.72614   0.56345   0.06277   0.00000  Uiso   1.00
H342   H     0.88197   0.44965   0.36593   0.00000  Uiso   1.00
H343   H     0.69457   0.36330   0.17115   0.00000  Uiso   1.00
H344   H     0.97048   0.63584   0.32862   0.00000  Uiso   1.00
H345   H     0.84114   0.41117   0.25912   0.00000  Uiso   1.00
H346   H     0.82483   0.58725   0.23736   0.00000  Uiso   1.00
H347   H     0.93894   0.42737   0.43879   0.00000  Uiso   1.00
H348   H     0.90475   0.54121   0.10636   0.00000  Uiso   1.00
H349   H     0.76277   0.45644   0.39158   0.00000  Uiso   1.00
H350   H     0.70080   0.43430   0.09470   0.00000  Uiso   1.00
H351   H     0.96526   0.56145   0.40741   0.00000  Uiso   1.00
H352   H     0.99560   0.57917   0.49411   0.00000  Uiso   1.00
H353   H     0.66966   0.41278   0.00845   0.00000  Uiso   1.00
H354   H     0.82436   0.48172   0.12459   0.00000  Uiso   1.00
N355   N     0.81362   0.48550   0.23740   0.00000  Uiso   1.00
N356   N     0.85305   0.51450   0.26261   0.00000  Uiso   1.00
O357   O     0.96386   0.57964   0.25310   0.00000  Uiso   1.00
O358   O     0.84955   0.51852   0.37482   0.00000  Uiso   1.00
O359   O     0.74600   0.63939   0.17442   0.00000  Uiso   1.00
O360   O     0.92407   0.36352   0.32819   0.00000  Uiso   1.00
O361   O     0.81751   0.41113   0.18850   0.00000  Uiso   1.00
O362   O     0.85208   0.59221   0.30730   0.00000  Uiso   1.00
O363   O     0.70281   0.42036   0.24691   0.00000  Uiso   1.00
O364   O     0.72488   0.57035   0.24501   0.00000  Uiso   1.00
O365   O     0.94178   0.42965   0.25499   0.00000  Uiso   1.00
O366   O     0.96995   0.50730   0.32247   0.00000  Uiso   1.00
O367   O     0.69672   0.49270   0.17753   0.00000  Uiso   1.00
O368   O     0.73098   0.49801   0.31439   0.00000  Uiso   1.00
O369   O     0.93569   0.50199   0.18561   0.00000  Uiso   1.00
O370   O     0.78658   0.54690   0.13930   0.00000  Uiso   1.00
Zn371  Zn    0.93700   0.50621   0.25540   0.00000  Uiso   1.00
Zn372  Zn    0.72967   0.49379   0.24461   0.00000  Uiso   1.00
C373   C     0.01444   0.93128   0.24801   0.00000  Uiso   1.00
C374   C     0.31226   0.82888   0.15911   0.00000  Uiso   1.00
C375   C     0.03189   0.84332   0.39334   0.00000  Uiso   1.00
C376   C     0.30140   0.82032   0.10684   0.00000  Uiso   1.00
C377   C     0.02030   0.88834   0.47109   0.00000  Uiso   1.00
C378   C     0.31193   0.77134   0.03072   0.00000  Uiso   1.00
C379   C     0.00200   0.87702   0.42238   0.00000  Uiso   1.00
C380   C     0.33070   0.78484   0.07908   0.00000  Uiso   1.00
C381   C     0.07853   0.82052   0.41314   0.00000  Uiso   1.00
C382   C     0.25489   0.84231   0.08622   0.00000  Uiso   1.00
C383   C     0.10335   0.83867   0.45867   0.00000  Uiso   1.00
C384   C     0.31894   0.73544   0.25220   0.00000  Uiso   1.00
C385   C     0.22935   0.82177   0.04173   0.00000  Uiso   1.00
C386   C     0.07101   0.86946   0.48938   0.00000  Uiso   1.00
C387   C     0.26120   0.78973   0.01185   0.00000  Uiso   1.00
C388   C     0.15813   0.82530   0.47502   0.00000  Uiso   1.00
C389   C     0.17440   0.83434   0.02546   0.00000  Uiso   1.00
C390   C     0.13827   0.84849   0.11068   0.00000  Uiso   1.00
C391   C     0.19818   0.81154   0.39058   0.00000  Uiso   1.00
C392   C     0.04235   0.99786   0.19120   0.00000  Uiso   1.00
C393   C     0.29143   0.66939   0.30965   0.00000  Uiso   1.00
C394   C     0.15965   0.76634   0.22905   0.00000  Uiso   1.00
C395   C     0.13524   0.85557   0.05765   0.00000  Uiso   1.00
C396   C     0.17437   0.90084   0.26832   0.00000  Uiso   1.00
C397   C     0.19756   0.80344   0.44323   0.00000  Uiso   1.00
C398   C     0.08737   0.87773   0.03855   0.00000  Uiso   1.00
C399   C     0.24455   0.78035   0.46280   0.00000  Uiso   1.00
C400   C     0.01698   0.98438   0.23776   0.00000  Uiso   1.00
C401   C     0.31647   0.68245   0.26280   0.00000  Uiso   1.00
C402   C     0.02106   0.83714   0.34091   0.00000  Uiso   1.00
H403   H     0.05947   0.89678   0.06277   0.00000  Uiso   1.00
H404   H     0.21531   0.78299   0.36593   0.00000  Uiso   1.00
H405   H     0.02791   0.69663   0.17115   0.00000  Uiso   1.00
H406   H     0.30382   0.96917   0.32862   0.00000  Uiso   1.00
H407   H     0.17448   0.74451   0.25912   0.00000  Uiso   1.00
H408   H     0.15816   0.92058   0.23736   0.00000  Uiso   1.00
H409   H     0.27227   0.76070   0.43879   0.00000  Uiso   1.00
H410   H     0.23808   0.87454   0.10636   0.00000  Uiso   1.00
H411   H     0.09610   0.78978   0.39158   0.00000  Uiso   1.00
H412   H     0.03413   0.76763   0.09470   0.00000  Uiso   1.00
H413   H     0.29860   0.89479   0.40741   0.00000  Uiso   1.00
H414   H     0.32894   0.91250   0.49411   0.00000  Uiso   1.00
H415   H     0.00299   0.74612   0.00845   0.00000  Uiso   1.00
H416   H     0.15769   0.81506   0.12459   0.00000  Uiso   1.00
N417   N     0.14695   0.81883   0.23740   0.00000  Uiso   1.00
N418   N     0.18638   0.84784   0.26261   0.00000  Uiso   1.00
O419   O     0.29719   0.91298   0.25310   0.00000  Uiso   1.00
O420   O     0.18288   0.85186   0.37482   0.00000  Uiso   1.00
O421   O     0.07933   0.97272   0.17442   0.00000  Uiso   1.00
O422   O     0.25741   0.69685   0.32819   0.00000  Uiso   1.00
O423   O     0.15085   0.74446   0.18850   0.00000  Uiso   1.00
O424   O     0.18542   0.92555   0.30730   0.00000  Uiso   1.00
O425   O     0.03614   0.75369   0.24691   0.00000  Uiso   1.00
O426   O     0.05822   0.90368   0.24501   0.00000  Uiso   1.00
O427   O     0.27512   0.76298   0.25499   0.00000  Uiso   1.00
O428   O     0.30328   0.84063   0.32247   0.00000  Uiso   1.00
O429   O     0.03005   0.82603   0.17753   0.00000  Uiso   1.00
O430   O     0.06431   0.83134   0.31439   0.00000  Uiso   1.00
O431   O     0.26902   0.83533   0.18561   0.00000  Uiso   1.00
O432   O     0.11991   0.88023   0.13930   0.00000  Uiso   1.00
Zn433  Zn    0.27033   0.83954   0.25540   0.00000  Uiso   1.00
Zn434  Zn    0.06300   0.82713   0.24461   0.00000  Uiso   1.00
C435   C     0.34777   0.93128   0.24801   0.00000  Uiso   1.00
C436   C     0.64559   0.82888   0.15911   0.00000  Uiso   1.00
C437   C     0.36523   0.84332   0.39334   0.00000  Uiso   1.00
C438   C     0.63473   0.82032   0.10684   0.00000  Uiso   1.00
C439   C     0.35363   0.88834   0.47109   0.00000  Uiso   1.00
C440   C     0.64526   0.77134   0.03072   0.00000  Uiso   1.00
C441   C     0.33533   0.87702   0.42238   0.00000  Uiso   1.00
C442   C     0.66403   0.78484   0.07908   0.00000  Uiso   1.00
C443   C     0.41187   0.82052   0.41314   0.00000  Uiso   1.00
C444   C     0.58822   0.84231   0.08622   0.00000  Uiso   1.00
C445   C     0.43669   0.83867   0.45867   0.00000  Uiso   1.00
C446   C     0.65227   0.73544   0.25220   0.00000  Uiso   1.00
C447   C     0.56269   0.82177   0.04173   0.00000  Uiso   1.00
C448   C     0.40434   0.86946   0.48938   0.00000  Uiso   1.00
C449   C     0.59454   0.78973   0.01185   0.00000  Uiso   1.00
C450   C     0.49146   0.82530   0.47502   0.00000  Uiso   1.00
C451   C     0.50774   0.83434   0.02546   0.00000  Uiso   1.00
C452   C     0.47161   0.84849   0.11068   0.00000  Uiso   1.00
C453   C     0.53151   0.81154   0.39058   0.00000  Uiso   1.00
C454   C     0.37569   0.99786   0.19120   0.00000  Uiso   1.00
C455   C     0.62476   0.66939   0.30965   0.00000  Uiso   1.00
C456   C     0.49298   0.76634   0.22905   0.00000  Uiso   1.00
C457   C     0.46857   0.85557   0.05765   0.00000  Uiso   1.00
C458   C     0.50770   0.90084   0.26832   0.00000  Uiso   1.00
C459   C     0.53089   0.80344   0.44323   0.00000  Uiso   1.00
C460   C     0.42070   0.87773   0.03855   0.00000  Uiso   1.00
C461   C     0.57789   0.78035   0.46280   0.00000  Uiso   1.00
C462   C     0.35031   0.98438   0.23776   0.00000  Uiso   1.00
C463   C     0.64980   0.68245   0.26280   0.00000  Uiso   1.00
C464   C     0.35439   0.83714   0.34091   0.00000  Uiso   1.00
H465   H     0.39281   0.89678   0.06277   0.00000  Uiso   1.00
H466   H     0.54864   0.78299   0.36593   0.00000  Uiso   1.00
H467   H     0.36124   0.69663   0.17115   0.00000  Uiso   1.00
H468   H     0.63715   0.96917   0.32862   0.00000  Uiso   1.00
H469   H     0.50781   0.74451   0.25912   0.00000  Uiso   1.00
H470   H     0.49150   0.92058   0.23736   0.00000  Uiso   1.00
H471   H     0.60561   0.76070   0.43879   0.00000  Uiso   1.00
H472   H     0.57141   0.87454   0.10636   0.00000  Uiso   1.00
H473   H     0.42943   0.78978   0.39158   0.00000  Uiso   1.00
H474   H     0.36747   0.76763   0.09470   0.00000  Uiso   1.00
H475   H     0.63193   0.89479   0.40741   0.00000  Uiso   1.00
H476   H     0.66227   0.91250   0.49411   0.00000  Uiso   1.00
H477   H     0.33632   0.74612   0.00845   0.00000  Uiso   1.00
H478   H     0.49103   0.81506   0.12459   0.00000  Uiso   1.00
N479   N     0.48029   0.81883   0.23740   0.00000  Uiso   1.00
N480   N     0.51971   0.84784   0.26261   0.00000  Uiso   1.00
O481   O     0.63052   0.91298   0.25310   0.00000  Uiso   1.00
O482   O     0.51622   0.85186   0.37482   0.00000  Uiso   1.00
O483   O     0.41267   0.97272   0.17442   0.00000  Uiso   1.00
O484   O     0.59074   0.69685   0.32819   0.00000  Uiso   1.00
O485   O     0.48418   0.74446   0.18850   0.00000  Uiso   1.00
O486   O     0.51875   0.92555   0.30730   0.00000  Uiso   1.00
O487   O     0.36948   0.75369   0.24691   0.00000  Uiso   1.00
O488   O     0.39155   0.90368   0.24501   0.00000  Uiso   1.00
O489   O     0.60845   0.76298   0.25499   0.00000  Uiso   1.00
O490   O     0.63662   0.84063   0.32247   0.00000  Uiso   1.00
O491   O     0.36338   0.82603   0.17753   0.00000  Uiso   1.00
O492   O     0.39764   0.83134   0.31439   0.00000  Uiso   1.00
O493   O     0.60236   0.83533   0.18561   0.00000  Uiso   1.00
O494   O     0.45324   0.88023   0.13930   0.00000  Uiso   1.00
Zn495  Zn    0.60366   0.83954   0.25540   0.00000  Uiso   1.00
Zn496  Zn    0.39634   0.82713   0.24461   0.00000  Uiso   1.00
C497   C     0.68110   0.93128   0.24801   0.00000  Uiso   1.00
C498   C     0.97892   0.82888   0.15911   0.00000  Uiso   1.00
C499   C     0.69856   0.84332   0.39334   0.00000  Uiso   1.00
C500   C     0.96806   0.82032   0.10684   0.00000  Uiso   1.00
C501   C     0.68697   0.88834   0.47109   0.00000  Uiso   1.00
C502   C     0.97859   0.77134   0.03072   0.00000  Uiso   1.00
C503   C     0.66867   0.87702   0.42238   0.00000  Uiso   1.00
C504   C     0.99737   0.78484   0.07908   0.00000  Uiso   1.00
C505   C     0.74520   0.82052   0.41314   0.00000  Uiso   1.00
C506   C     0.92156   0.84231   0.08622   0.00000  Uiso   1.00
C507   C     0.77002   0.83867   0.45867   0.00000  Uiso   1.00
C508   C     0.98560   0.73544   0.25220   0.00000  Uiso   1.00
C509   C     0.89602   0.82177   0.04173   0.00000  Uiso   1.00
C510   C     0.73767   0.86946   0.48938   0.00000  Uiso   1.00
C511   C     0.92787   0.78973   0.01185   0.00000  Uiso   1.00
C512   C     0.82480   0.82530   0.47502   0.00000  Uiso   1.00
C513   C     0.84107   0.83434   0.02546   0.00000  Uiso   1.00
C514   C     0.80494   0.84849   0.11068   0.00000  Uiso   1.00
C515   C     0.86484   0.81154   0.39058   0.00000  Uiso   1.00
C516   C     0.70902   0.99786   0.19120   0.00000  Uiso   1.00
C517   C     0.95809   0.66939   0.30965   0.00000  Uiso   1.00
C518   C     0.82631   0.76634   0.22905   0.00000  Uiso   1.00
C519   C     0.80190   0.85557   0.05765   0.00000  Uiso   1.00
C520   C     0.84103   0.90084   0.26832   0.00000  Uiso   1.00
C521   C     0.86422   0.80344   0.44323   0.00000  Uiso   1.00
C522   C     0.75404   0.87773   0.03855   0.00000  Uiso   1.00
C523   C     0.91122   0.78035   0.46280   0.00000  Uiso   1.00
C524   C     0.68365   0.98438   0.23776   0.00000  Uiso   1.00
C525   C     0.98313   0.68245   0.26280   0.00000  Uiso   1.00
C526   C     0.68772   0.83714   0.34091   0.00000  Uiso   1.00
H527   H     0.72614   0.89678   0.06277   0.00000  Uiso   1.00
H528   H     0.88197   0.78299   0.36593   0.00000  Uiso   1.00
H529   H     0.69457   0.69663   0.17115   0.00000  Uiso   1.00
H530   H     0.97048   0.96917   0.32862   0.00000  Uiso   1.00
H531   H     0.84114   0.74451   0.25912   0.00000  Uiso   1.00
H532   H     0.82483   0.92058   0.23736   0.00000  Uiso   1.00
H533   H     0.93894   0.76070   0.43879   0.00000  Uiso   1.00
H534   H     0.90475   0.87454   0.10636   0.00000  Uiso   1.00
H535   H     0.76277   0.78978   0.39158   0.00000  Uiso   1.00
H536   H     0.70080   0.76763   0.09470   0.00000  Uiso   1.00
H537   H     0.96526   0.89479   0.40741   0.00000  Uiso   1.00
H538   H     0.99560   0.91250   0.49411   0.00000  Uiso   1.00
H539   H     0.66966   0.74612   0.00845   0.00000  Uiso   1.00
H540   H     0.82436   0.81506   0.12459   0.00000  Uiso   1.00
N541   N     0.81362   0.81883   0.23740   0.00000  Uiso   1.00
N542   N     0.85305   0.84784   0.26261   0.00000  Uiso   1.00
O543   O     0.96386   0.91298   0.25310   0.00000  Uiso   1.00
O544   O     0.84955   0.85186   0.37482   0.00000  Uiso   1.00
O545   O     0.74600   0.97272   0.17442   0.00000  Uiso   1.00
O546   O     0.92407   0.69685   0.32819   0.00000  Uiso   1.00
O547   O     0.81751   0.74446   0.18850   0.00000  Uiso   1.00
O548   O     0.85208   0.92555   0.30730   0.00000  Uiso   1.00
O549   O     0.70281   0.75369   0.24691   0.00000  Uiso   1.00
O550   O     0.72488   0.90368   0.24501   0.00000  Uiso   1.00
O551   O     0.94178   0.76298   0.25499   0.00000  Uiso   1.00
O552   O     0.96995   0.84063   0.32247   0.00000  Uiso   1.00
O553   O     0.69672   0.82603   0.17753   0.00000  Uiso   1.00
O554   O     0.73098   0.83134   0.31439   0.00000  Uiso   1.00
O555   O     0.93569   0.83533   0.18561   0.00000  Uiso   1.00
O556   O     0.78658   0.88023   0.13930   0.00000  Uiso   1.00
Zn557  Zn    0.93700   0.83954   0.25540   0.00000  Uiso   1.00
Zn558  Zn    0.72967   0.82713   0.24461   0.00000  Uiso   1.00
C559   C     0.01444   0.26462   0.74801   0.00000  Uiso   1.00
C560   C     0.31226   0.16222   0.65911   0.00000  Uiso   1.00
C561   C     0.03189   0.17665   0.89334   0.00000  Uiso   1.00
C562   C     0.30140   0.15366   0.60684   0.00000  Uiso   1.00
C563   C     0.02030   0.22167   0.97109   0.00000  Uiso   1.00
C564   C     0.31193   0.10467   0.53072   0.00000  Uiso   1.00
C565   C     0.00200   0.21035   0.92238   0.00000  Uiso   1.00
C566   C     0.33070   0.11818   0.57908   0.00000  Uiso   1.00
C567   C     0.07853   0.15386   0.91314   0.00000  Uiso   1.00
C568   C     0.25489   0.17564   0.58622   0.00000  Uiso   1.00
C569   C     0.10335   0.17200   0.95867   0.00000  Uiso   1.00
C570   C     0.31894   0.06877   0.75220   0.00000  Uiso   1.00
C571   C     0.22935   0.15510   0.54173   0.00000  Uiso   1.00
C572   C     0.07101   0.20279   0.98938   0.00000  Uiso   1.00
C573   C     0.26120   0.12307   0.51185   0.00000  Uiso   1.00
C574   C     0.15813   0.15864   0.97502   0.00000  Uiso   1.00
C575   C     0.17440   0.16767   0.52546   0.00000  Uiso   1.00
C576   C     0.13827   0.18182   0.61068   0.00000  Uiso   1.00
C577   C     0.19818   0.14487   0.89058   0.00000  Uiso   1.00
C578   C     0.04235   0.33120   0.69120   0.00000  Uiso   1.00
C579   C     0.29143   0.00272   0.80965   0.00000  Uiso   1.00
C580   C     0.15965   0.09967   0.72905   0.00000  Uiso   1.00
C581   C     0.13524   0.18890   0.55765   0.00000  Uiso   1.00
C582   C     0.17437   0.23417   0.76832   0.00000  Uiso   1.00
C583   C     0.19756   0.13678   0.94323   0.00000  Uiso   1.00
C584   C     0.08737   0.21106   0.53855   0.00000  Uiso   1.00
C585   C     0.24455   0.11368   0.96280   0.00000  Uiso   1.00
C586   C     0.01698   0.31771   0.73776   0.00000  Uiso   1.00
C587   C     0.31647   0.01579   0.76280   0.00000  Uiso   1.00
C588   C     0.02106   0.17048   0.84091   0.00000  Uiso   1.00
H589   H     0.05947   0.23012   0.56277   0.00000  Uiso   1.00
H590   H     0.21531   0.11632   0.86593   0.00000  Uiso   1.00
H591   H     0.02791   0.02997   0.67115   0.00000  Uiso   1.00
H592   H     0.30382   0.30251   0.82862   0.00000  Uiso   1.00
H593   H     0.17448   0.07784   0.75912   0.00000  Uiso   1.00
H594   H     0.15816   0.25391   0.73736   0.00000  Uiso   1.00
H595   H     0.27227   0.09403   0.93879   0.00000  Uiso   1.00
H596   H     0.23808   0.20788   0.60636   0.00000  Uiso   1.00
H597   H     0.09610   0.12311   0.89158   0.00000  Uiso   1.00
H598   H     0.03413   0.10096   0.59470   0.00000  Uiso   1.00
H599   H     0.29860   0.22812   0.90741   0.00000  Uiso   1.00
H600   H     0.32894   0.24583   0.99411   0.00000  Uiso   1.00
H601   H     0.00299   0.07945   0.50845   0.00000  Uiso   1.00
H602   H     0.15769   0.14839   0.62459   0.00000  Uiso   1.00
N603   N     0.14695   0.15216   0.73740   0.00000  Uiso   1.00
N604   N     0.18638   0.18117   0.76261   0.00000  Uiso   1.00
O605   O     0.29719   0.24631   0.75310   0.00000  Uiso   1.00
O606   O     0.18288   0.18519   0.87482   0.00000  Uiso   1.00
O607   O     0.07933   0.30606   0.67442   0.00000  Uiso   1.00
O608   O     0.25741   0.03018   0.82819   0.00000  Uiso   1.00
O609   O     0.15085   0.07780   0.68850   0.00000  Uiso   1.00
O610   O     0.18542   0.25888   0.80730   0.00000  Uiso   1.00
O611   O     0.03614   0.08702   0.74691   0.00000  Uiso   1.00
O612   O     0.05822   0.23702   0.74501   0.00000  Uiso   1.00
O613   O     0.27512   0.09632   0.75499   0.00000  Uiso   1.00
O614   O     0.30328   0.17397   0.82247   0.00000  Uiso   1.00
O615   O     0.03005   0.15937   0.67753   0.00000  Uiso   1.00
O616   O     0.06431   0.16467   0.81439   0.00000  Uiso   1.00
O617   O     0.26902   0.16866   0.68561   0.00000  Uiso   1.00
O618   O     0.11991   0.21356   0.63930   0.00000  Uiso   1.00
Zn619  Zn    0.27033   0.17287   0.75540   0.00000  Uiso   1.00
Zn620  Zn    0.06300   0.16046   0.74461   0.00000  Uiso   1.00
C621   C     0.34777   0.26462   0.74801   0.00000  Uiso   1.00
C622   C     0.64559   0.16222   0.65911   0.00000  Uiso   1.00
C623   C     0.36523   0.17665   0.89334   0.00000  Uiso   1.00
C624   C     0.63473   0.15366   0.60684   0.00000  Uiso   1.00
C625   C     0.35363   0.22167   0.97109   0.00000  Uiso   1.00
C626   C     0.64526   0.10467   0.53072   0.00000  Uiso   1.00
C627   C     0.33533   0.21035   0.92238   0.00000  Uiso   1.00
C628   C     0.66403   0.11818   0.57908   0.00000  Uiso   1.00
C629   C     0.41187   0.15386   0.91314   0.00000  Uiso   1.00
C630   C     0.58822   0.17564   0.58622   0.00000  Uiso   1.00
C631   C     0.43669   0.17200   0.95867   0.00000  Uiso   1.00
C632   C     0.65227   0.06877   0.75220   0.00000  Uiso   1.00
C633   C     0.56269   0.15510   0.54173   0.00000  Uiso   1.00
C634   C     0.40434   0.20279   0.98938   0.00000  Uiso   1.00
C635   C     0.59454   0.12307   0.51185   0.00000  Uiso   1.00
C636   C     0.49146   0.15864   0.97502   0.00000  Uiso   1.00
C637   C     0.50774   0.16767   0.52546   0.00000  Uiso   1.00
C638   C     0.47161   0.18182   0.61068   0.00000  Uiso   1.00
C639   C     0.53151   0.14487   0.89058   0.00000  Uiso   1.00
C640   C     0.37569   0.33120   0.69120   0.00000  Uiso   1.00
C641   C     0.62476   0.00272   0.80965   0.00000  Uiso   1.00
C642   C     0.49298   0.09967   0.72905   0.00000  Uiso   1.00
C643   C     0.46857   0.18890   0.55765   0.00000  Uiso   1.00
C644   C     0.50770   0.23417   0.76832   0.00000  Uiso   1.00
C645   C     0.53089   0.13678   0.94323   0.00000  Uiso   1.00
C646   C     0.42070   0.21106   0.53855   0.00000  Uiso   1.00
C647   C     0.57789   0.11368   0.96280   0.00000  Uiso   1.00
C648   C     0.35031   0.31771   0.73776   0.00000  Uiso   1.00
C649   C     0.64980   0.01579   0.76280   0.00000  Uiso   1.00
C650   C     0.35439   0.17048   0.84091   0.00000  Uiso   1.00
H651   H     0.39281   0.23012   0.56277   0.00000  Uiso   1.00
H652   H     0.54864   0.11632   0.86593   0.00000  Uiso   1.00
H653   H     0.36124   0.02997   0.67115   0.00000  Uiso   1.00
H654   H     0.63715   0.30251   0.82862   0.00000  Uiso   1.00
H655   H     0.50781   0.07784   0.75912   0.00000  Uiso   1.00
H656   H     0.49150   0.25391   0.73736   0.00000  Uiso   1.00
H657   H     0.60561   0.09403   0.93879   0.00000  Uiso   1.00
H658   H     0.57141   0.20788   0.60636   0.00000  Uiso   1.00
H659   H     0.42943   0.12311   0.89158   0.00000  Uiso   1.00
H660   H     0.36747   0.10096   0.59470   0.00000  Uiso   1.00
H661   H     0.63193   0.22812   0.90741   0.00000  Uiso   1.00
H662   H     0.66227   0.24583   0.99411   0.00000  Uiso   1.00
H663   H     0.33632   0.07945   0.50845   0.00000  Uiso   1.00
H664   H     0.49103   0.14839   0.62459   0.00000  Uiso   1.00
N665   N     0.48029   0.15216   0.73740   0.00000  Uiso   1.00
N666   N     0.51971   0.18117   0.76261   0.00000  Uiso   1.00
O667   O     0.63052   0.24631   0.75310   0.00000  Uiso   1.00
O668   O     0.51622   0.18519   0.87482   0.00000  Uiso   1.00
O669   O     0.41267   0.30606   0.67442   0.00000  Uiso   1.00
O670   O     0.59074   0.03018   0.82819   0.00000  Uiso   1.00
O671   O     0.48418   0.07780   0.68850   0.00000  Uiso   1.00
O672   O     0.51875   0.25888   0.80730   0.00000  Uiso   1.00
O673   O     0.36948   0.08702   0.74691   0.00000  Uiso   1.00
O674   O     0.39155   0.23702   0.74501   0.00000  Uiso   1.00
O675   O     0.60845   0.09632   0.75499   0.00000  Uiso   1.00
O676   O     0.63662   0.17397   0.82247   0.00000  Uiso   1.00
O677   O     0.36338   0.15937   0.67753   0.00000  Uiso   1.00
O678   O     0.39764   0.16467   0.81439   0.00000  Uiso   1.00
O679   O     0.60236   0.16866   0.68561   0.00000  Uiso   1.00
O680   O     0.45324   0.21356   0.63930   0.00000  Uiso   1.00
Zn681  Zn    0.60366   0.17287   0.75540   0.00000  Uiso   1.00
Zn682  Zn    0.39634   0.16046   0.74461   0.00000  Uiso   1.00
C683   C     0.68110   0.26462   0.74801   0.00000  Uiso   1.00
C684   C     0.97892   0.16222   0.65911   0.00000  Uiso   1.00
C685   C     0.69856   0.17665   0.89334   0.00000  Uiso   1.00
C686   C     0.96806   0.15366   0.60684   0.00000  Uiso   1.00
C687   C     0.68697   0.22167   0.97109   0.00000  Uiso   1.00
C688   C     0.97859   0.10467   0.53072   0.00000  Uiso   1.00
C689   C     0.66867   0.21035   0.92238   0.00000  Uiso   1.00
C690   C     0.99737   0.11818   0.57908   0.00000  Uiso   1.00
C691   C     0.74520   0.15386   0.91314   0.00000  Uiso   1.00
C692   C     0.92156   0.17564   0.58622   0.00000  Uiso   1.00
C693   C     0.77002   0.17200   0.95867   0.00000  Uiso   1.00
C694   C     0.98560   0.06877   0.75220   0.00000  Uiso   1.00
C695   C     0.89602   0.15510   0.54173   0.00000  Uiso   1.00
C696   C     0.73767   0.20279   0.98938   0.00000  Uiso   1.00
C697   C     0.92787   0.12307   0.51185   0.00000  Uiso   1.00
C698   C     0.82480   0.15864   0.97502   0.00000  Uiso   1.00
C699   C     0.84107   0.16767   0.52546   0.00000  Uiso   1.00
C700   C     0.80494   0.18182   0.61068   0.00000  Uiso   1.00
C701   C     0.86484   0.14487   0.89058   0.00000  Uiso   1.00
C702   C     0.70902   0.33120   0.69120   0.00000  Uiso   1.00
C703   C     0.95809   0.00272   0.80965   0.00000  Uiso   1.00
C704   C     0.82631   0.09967   0.72905   0.00000  Uiso   1.00
C705   C     0.80190   0.18890   0.55765   0.00000  Uiso   1.00
C706   C     0.84103   0.23417   0.76832   0.00000  Uiso   1.00
C707   C     0.86422   0.13678   0.94323   0.00000  Uiso   1.00
C708   C     0.75404   0.21106   0.53855   0.00000  Uiso   1.00
C709   C     0.91122   0.11368   0.96280   0.00000  Uiso   1.00
C710   C     0.68365   0.31771   0.73776   0.00000  Uiso   1.00
C711   C     0.98313   0.01579   0.76280   0.00000  Uiso   1.00
C712   C     0.68772   0.17048   0.84091   0.00000  Uiso   1.00
H713   H     0.72614   0.23012   0.56277   0.00000  Uiso   1.00
H714   H     0.88197   0.11632   0.86593   0.00000  Uiso   1.00
H715   H     0.69457   0.02997   0.67115   0.00000  Uiso   1.00
H716   H     0.97048   0.30251   0.82862   0.00000  Uiso   1.00
H717   H     0.84114   0.07784   0.75912   0.00000  Uiso   1.00
H718   H     0.82483   0.25391   0.73736   0.00000  Uiso   1.00
H719   H     0.93894   0.09403   0.93879   0.00000  Uiso   1.00
H720   H     0.90475   0.20788   0.60636   0.00000  Uiso   1.00
H721   H     0.76277   0.12311   0.89158   0.00000  Uiso   1.00
H722   H     0.70080   0.10096   0.59470   0.00000  Uiso   1.00
H723   H     0.96526   0.22812   0.90741   0.00000  Uiso   1.00
H724   H     0.99560   0.24583   0.99411   0.00000  Uiso   1.00
H725   H     0.66966   0.07945   0.50845   0.00000  Uiso   1.00
H726   H     0.82436   0.14839   0.62459   0.00000  Uiso   1.00
N727   N     0.81362   0.15216   0.73740   0.00000  Uiso   1.00
N728   N     0.85305   0.18117   0.76261   0.00000  Uiso   1.00
O729   O     0.96386   0.24631   0.75310   0.00000  Uiso   1.00
O730   O     0.84955   0.18519   0.87482   0.00000  Uiso   1.00
O731   O     0.74600   0.30606   0.67442   0.00000  Uiso   1.00
O732   O     0.92407   0.03018   0.82819   0.00000  Uiso   1.00
O733   O     0.81751   0.07780   0.68850   0.00000  Uiso   1.00
O734   O     0.85208   0.25888   0.80730   0.00000  Uiso   1.00
O735   O     0.70281   0.08702   0.74691   0.00000  Uiso   1.00
O736   O     0.72488   0.23702   0.74501   0.00000  Uiso   1.00
O737   O     0.94178   0.09632   0.75499   0.00000  Uiso   1.00
O738   O     0.96995   0.17397   0.82247   0.00000  Uiso   1.00
O739   O     0.69672   0.15937   0.67753   0.00000  Uiso   1.00
O740   O     0.73098   0.16467   0.81439   0.00000  Uiso   1.00
O741   O     0.93569   0.16866   0.68561   0.00000  Uiso   1.00
O742   O     0.78658   0.21356   0.63930   0.00000  Uiso   1.00
Zn743  Zn    0.93700   0.17287   0.75540   0.00000  Uiso   1.00
Zn744  Zn    0.72967   0.16046   0.74461   0.00000  Uiso   1.00
C745   C     0.01444   0.59795   0.74801   0.00000  Uiso   1.00
C746   C     0.31226   0.49555   0.65911   0.00000  Uiso   1.00
C747   C     0.03189   0.50998   0.89334   0.00000  Uiso   1.00
C748   C     0.30140   0.48699   0.60684   0.00000  Uiso   1.00
C749   C     0.02030   0.55501   0.97109   0.00000  Uiso   1.00
C750   C     0.31193   0.43801   0.53072   0.00000  Uiso   1.00
C751   C     0.00200   0.54369   0.92238   0.00000  Uiso   1.00
C752   C     0.33070   0.45151   0.57908   0.00000  Uiso   1.00
C753   C     0.07853   0.48719   0.91314   0.00000  Uiso   1.00
C754   C     0.25489   0.50897   0.58622   0.00000  Uiso   1.00
C755   C     0.10335   0.50533   0.95867   0.00000  Uiso   1.00
C756   C     0.31894   0.40210   0.75220   0.00000  Uiso   1.00
C757   C     0.22935   0.48843   0.54173   0.00000  Uiso   1.00
C758   C     0.07101   0.53612   0.98938   0.00000  Uiso   1.00
C759   C     0.26120   0.45640   0.51185   0.00000  Uiso   1.00
C760   C     0.15813   0.49197   0.97502   0.00000  Uiso   1.00
C761   C     0.17440   0.50101   0.52546   0.00000  Uiso   1.00
C762   C     0.13827   0.51516   0.61068   0.00000  Uiso   1.00
C763   C     0.19818   0.47820   0.89058   0.00000  Uiso   1.00
C764   C     0.04235   0.66453   0.69120   0.00000  Uiso   1.00
C765   C     0.29143   0.33606   0.80965   0.00000  Uiso   1.00
C766   C     0.15965   0.43300   0.72905   0.00000  Uiso   1.00
C767   C     0.13524   0.52224   0.55765   0.00000  Uiso   1.00
C768   C     0.17437   0.56750   0.76832   0.00000  Uiso   1.00
C769   C     0.19756   0.47011   0.94323   0.00000  Uiso   1.00
C770   C     0.08737   0.54440   0.53855   0.00000  Uiso   1.00
C771   C     0.24455   0.44702   0.96280   0.00000  Uiso   1.00
C772   C     0.01698   0.65104   0.73776   0.00000  Uiso   1.00
C773   C     0.31647   0.34912   0.76280   0.00000  Uiso   1.00
C774   C     0.02106   0.50381   0.84091   0.00000  Uiso   1.00
H775   H     0.05947   0.56345   0.56277   0.00000  Uiso   1.00
H776   H     0.21531   0.44965   0.86593   0.00000  Uiso   1.00
H777   H     0.02791   0.36330   0.67115   0.00000  Uiso   1.00
H778   H     0.30382   0.63584   0.82862   0.00000  Uiso   1.00
H779   H     0.17448   0.41117   0.75912   0.00000  Uiso   1.00
H780   H     0.15816   0.58725   0.73736   0.00000  Uiso   1.00
H781   H     0.27227   0.42737   0.93879   0.00000  Uiso   1.00
H782   H     0.23808   0.54121   0.60636   0.00000  Uiso   1.00
H783   H     0.09610   0.45644   0.89158   0.00000  Uiso   1.00
H784   H     0.03413   0.43430   0.59470   0.00000  Uiso   1.00
H785   H     0.29860   0.56145   0.90741   0.00000  Uiso   1.00
H786   H     0.32894   0.57917   0.99411   0.00000  Uiso   1.00
H787   H     0.00299   0.41278   0.50845   0.00000  Uiso   1.00
H788   H     0.15769   0.48172   0.62459   0.00000  Uiso   1.00
N789   N     0.14695   0.48550   0.73740   0.00000  Uiso   1.00
N790   N     0.18638   0.51450   0.76261   0.00000  Uiso   1.00
O791   O     0.29719   0.57964   0.75310   0.00000  Uiso   1.00
O792   O     0.18288   0.51852   0.87482   0.00000  Uiso   1.00
O793   O     0.07933   0.63939   0.67442   0.00000  Uiso   1.00
O794   O     0.25741   0.36352   0.82819   0.00000  Uiso   1.00
O795   O     0.15085   0.41113   0.68850   0.00000  Uiso   1.00
O796   O     0.18542   0.59221   0.80730   0.00000  Uiso   1.00
O797   O     0.03614   0.42036   0.74691   0.00000  Uiso   1.00
O798   O     0.05822   0.57035   0.74501   0.00000  Uiso   1.00
O799   O     0.27512   0.42965   0.75499   0.00000  Uiso   1.00
O800   O     0.30328   0.50730   0.82247   0.00000  Uiso   1.00
O801   O     0.03005   0.49270   0.67753   0.00000  Uiso   1.00
O802   O     0.06431   0.49801   0.81439   0.00000  Uiso   1.00
O803   O     0.26902   0.50199   0.68561   0.00000  Uiso   1.00
O804   O     0.11991   0.54690   0.63930   0.00000  Uiso   1.00
Zn805  Zn    0.27033   0.50621   0.75540   0.00000  Uiso   1.00
Zn806  Zn    0.06300   0.49379   0.74461   0.00000  Uiso   1.00
C807   C     0.34777   0.59795   0.74801   0.00000  Uiso   1.00
C808   C     0.64559   0.49555   0.65911   0.00000  Uiso   1.00
C809   C     0.36523   0.50998   0.89334   0.00000  Uiso   1.00
C810   C     0.63473   0.48699   0.60684   0.00000  Uiso   1.00
C811   C     0.35363   0.55501   0.97109   0.00000  Uiso   1.00
C812   C     0.64526   0.43801   0.53072   0.00000  Uiso   1.00
C813   C     0.33533   0.54369   0.92238   0.00000  Uiso   1.00
C814   C     0.66403   0.45151   0.57908   0.00000  Uiso   1.00
C815   C     0.41187   0.48719   0.91314   0.00000  Uiso   1.00
C816   C     0.58822   0.50897   0.58622   0.00000  Uiso   1.00
C817   C     0.43669   0.50533   0.95867   0.00000  Uiso   1.00
C818   C     0.65227   0.40210   0.75220   0.00000  Uiso   1.00
C819   C     0.56269   0.48843   0.54173   0.00000  Uiso   1.00
C820   C     0.40434   0.53612   0.98938   0.00000  Uiso   1.00
C821   C     0.59454   0.45640   0.51185   0.00000  Uiso   1.00
C822   C     0.49146   0.49197   0.97502   0.00000  Uiso   1.00
C823   C     0.50774   0.50101   0.52546   0.00000  Uiso   1.00
C824   C     0.47161   0.51516   0.61068   0.00000  Uiso   1.00
C825   C     0.53151   0.47820   0.89058   0.00000  Uiso   1.00
C826   C     0.37569   0.66453   0.69120   0.00000  Uiso   1.00
C827   C     0.62476   0.33606   0.80965   0.00000  Uiso   1.00
C828   C     0.49298   0.43300   0.72905   0.00000  Uiso   1.00
C829   C     0.46857   0.52224   0.55765   0.00000  Uiso   1.00
C830   C     0.50770   0.56750   0.76832   0.00000  Uiso   1.00
C831   C     0.53089   0.47011   0.94323   0.00000  Uiso   1.00
C832   C     0.42070   0.54440   0.53855   0.00000  Uiso   1.00
C833   C     0.57789   0.44702   0.96280   0.00000  Uiso   1.00
C834   C     0.35031   0.65104   0.73776   0.00000  Uiso   1.00
C835   C     0.64980   0.34912   0.76280   0.00000  Uiso   1.00
C836   C     0.35439   0.50381   0.84091   0.00000  Uiso   1.00
H837   H     0.39281   0.56345   0.56277   0.00000  Uiso   1.00
H838   H     0.54864   0.44965   0.86593   0.00000  Uiso   1.00
H839   H     0.36124   0.36330   0.67115   0.00000  Uiso   1.00
H840   H     0.63715   0.63584   0.82862   0.00000  Uiso   1.00
H841   H     0.50781   0.41117   0.75912   0.00000  Uiso   1.00
H842   H     0.49150   0.58725   0.73736   0.00000  Uiso   1.00
H843   H     0.60561   0.42737   0.93879   0.00000  Uiso   1.00
H844   H     0.57141   0.54121   0.60636   0.00000  Uiso   1.00
H845   H     0.42943   0.45644   0.89158   0.00000  Uiso   1.00
H846   H     0.36747   0.43430   0.59470   0.00000  Uiso   1.00
H847   H     0.63193   0.56145   0.90741   0.00000  Uiso   1.00
H848   H     0.66227   0.57917   0.99411   0.00000  Uiso   1.00
H849   H     0.33632   0.41278   0.50845   0.00000  Uiso   1.00
H850   H     0.49103   0.48172   0.62459   0.00000  Uiso   1.00
N851   N     0.48029   0.48550   0.73740   0.00000  Uiso   1.00
N852   N     0.51971   0.51450   0.76261   0.00000  Uiso   1.00
O853   O     0.63052   0.57964   0.75310   0.00000  Uiso   1.00
O854   O     0.51622   0.51852   0.87482   0.00000  Uiso   1.00
O855   O     0.41267   0.63939   0.67442   0.00000  Uiso   1.00
O856   O     0.59074   0.36352   0.82819   0.00000  Uiso   1.00
O857   O     0.48418   0.41113   0.68850   0.00000  Uiso   1.00
O858   O     0.51875   0.59221   0.80730   0.00000  Uiso   1.00
O859   O     0.36948   0.42036   0.74691   0.00000  Uiso   1.00
O860   O     0.39155   0.57035   0.74501   0.00000  Uiso   1.00
O861   O     0.60845   0.42965   0.75499   0.00000  Uiso   1.00
O862   O     0.63662   0.50730   0.82247   0.00000  Uiso   1.00
O863   O     0.36338   0.49270   0.67753   0.00000  Uiso   1.00
O864   O     0.39764   0.49801   0.81439   0.00000  Uiso   1.00
O865   O     0.60236   0.50199   0.68561   0.00000  Uiso   1.00
O866   O     0.45324   0.54690   0.63930   0.00000  Uiso   1.00
Zn867  Zn    0.60366   0.50621   0.75540   0.00000  Uiso   1.00
Zn868  Zn    0.39634   0.49379   0.74461   0.00000  Uiso   1.00
C869   C     0.68110   0.59795   0.74801   0.00000  Uiso   1.00
C870   C     0.97892   0.49555   0.65911   0.00000  Uiso   1.00
C871   C     0.69856   0.50998   0.89334   0.00000  Uiso   1.00
C872   C     0.96806   0.48699   0.60684   0.00000  Uiso   1.00
C873   C     0.68697   0.55501   0.97109   0.00000  Uiso   1.00
C874   C     0.97859   0.43801   0.53072   0.00000  Uiso   1.00
C875   C     0.66867   0.54369   0.92238   0.00000  Uiso   1.00
C876   C     0.99737   0.45151   0.57908   0.00000  Uiso   1.00
C877   C     0.74520   0.48719   0.91314   0.00000  Uiso   1.00
C878   C     0.92156   0.50897   0.58622   0.00000  Uiso   1.00
C879   C     0.77002   0.50533   0.95867   0.00000  Uiso   1.00
C880   C     0.98560   0.40210   0.75220   0.00000  Uiso   1.00
C881   C     0.89602   0.48843   0.54173   0.00000  Uiso   1.00
C882   C     0.73767   0.53612   0.98938   0.00000  Uiso   1.00
C883   C     0.92787   0.45640   0.51185   0.00000  Uiso   1.00
C884   C     0.82480   0.49197   0.97502   0.00000  Uiso   1.00
C885   C     0.84107   0.50101   0.52546   0.00000  Uiso   1.00
C886   C     0.80494   0.51516   0.61068   0.00000  Uiso   1.00
C887   C     0.86484   0.47820   0.89058   0.00000  Uiso   1.00
C888   C     0.70902   0.66453   0.69120   0.00000  Uiso   1.00
C889   C     0.95809   0.33606   0.80965   0.00000  Uiso   1.00
C890   C     0.82631   0.43300   0.72905   0.00000  Uiso   1.00
C891   C     0.80190   0.52224   0.55765   0.00000  Uiso   1.00
C892   C     0.84103   0.56750   0.76832   0.00000  Uiso   1.00
C893   C     0.86422   0.47011   0.94323   0.00000  Uiso   1.00
C894   C     0.75404   0.54440   0.53855   0.00000  Uiso   1.00
C895   C     0.91122   0.44702   0.96280   0.00000  Uiso   1.00
C896   C     0.68365   0.65104   0.73776   0.00000  Uiso   1.00
C897   C     0.98313   0.34912   0.76280   0.00000  Uiso   1.00
C898   C     0.68772   0.50381   0.84091   0.00000  Uiso   1.00
H899   H     0.72614   0.56345   0.56277   0.00000  Uiso   1.00
H900   H     0.88197   0.44965   0.86593   0.00000  Uiso   1.00
H901   H     0.69457   0.36330   0.67115   0.00000  Uiso   1.00
H902   H     0.97048   0.63584   0.82862   0.00000  Uiso   1.00
H903   H     0.84114   0.41117   0.75912   0.00000  Uiso   1.00
H904   H     0.82483   0.58725   0.73736   0.00000  Uiso   1.00
H905   H     0.93894   0.42737   0.93879   0.00000  Uiso   1.00
H906   H     0.90475   0.54121   0.60636   0.00000  Uiso   1.00
H907   H     0.76277   0.45644   0.89158   0.00000  Uiso   1.00
H908   H     0.70080   0.43430   0.59470   0.00000  Uiso   1.00
H909   H     0.96526   0.56145   0.90741   0.00000  Uiso   1.00
H910   H     0.99560   0.57917   0.99411   0.00000  Uiso   1.00
H911   H     0.66966   0.41278   0.50845   0.00000  Uiso   1.00
H912   H     0.82436   0.48172   0.62459   0.00000  Uiso   1.00
N913   N     0.81362   0.48550   0.73740   0.00000  Uiso   1.00
N914   N     0.85305   0.51450   0.76261   0.00000  Uiso   1.00
O915   O     0.96386   0.57964   0.75310   0.00000  Uiso   1.00
O916   O     0.84955   0.51852   0.87482   0.00000  Uiso   1.00
O917   O     0.74600   0.63939   0.67442   0.00000  Uiso   1.00
O918   O     0.92407   0.36352   0.82819   0.00000  Uiso   1.00
O919   O     0.81751   0.41113   0.68850   0.00000  Uiso   1.00
O920   O     0.85208   0.59221   0.80730   0.00000  Uiso   1.00
O921   O     0.70281   0.42036   0.74691   0.00000  Uiso   1.00
O922   O     0.72488   0.57035   0.74501   0.00000  Uiso   1.00
O923   O     0.94178   0.42965   0.75499   0.00000  Uiso   1.00
O924   O     0.96995   0.50730   0.82247   0.00000  Uiso   1.00
O925   O     0.69672   0.49270   0.67753   0.00000  Uiso   1.00
O926   O     0.73098   0.49801   0.81439   0.00000  Uiso   1.00
O927   O     0.93569   0.50199   0.68561   0.00000  Uiso   1.00
O928   O     0.78658   0.54690   0.63930   0.00000  Uiso   1.00
Zn929  Zn    0.93700   0.50621   0.75540   0.00000  Uiso   1.00
Zn930  Zn    0.72967   0.49379   0.74461   0.00000  Uiso   1.00
C931   C     0.01444   0.93128   0.74801   0.00000  Uiso   1.00
C932   C     0.31226   0.82888   0.65911   0.00000  Uiso   1.00
C933   C     0.03189   0.84332   0.89334   0.00000  Uiso   1.00
C934   C     0.30140   0.82032   0.60684   0.00000  Uiso   1.00
C935   C     0.02030   0.88834   0.97109   0.00000  Uiso   1.00
C936   C     0.31193   0.77134   0.53072   0.00000  Uiso   1.00
C937   C     0.00200   0.87702   0.92238   0.00000  Uiso   1.00
C938   C     0.33070   0.78484   0.57908   0.00000  Uiso   1.00
C939   C     0.07853   0.82052   0.91314   0.00000  Uiso   1.00
C940   C     0.25489   0.84231   0.58622   0.00000  Uiso   1.00
C941   C     0.10335   0.83867   0.95867   0.00000  Uiso   1.00
C942   C     0.31894   0.73544   0.75220   0.00000  Uiso   1.00
C943   C     0.22935   0.82177   0.54173   0.00000  Uiso   1.00
C944   C     0.07101   0.86946   0.98938   0.00000  Uiso   1.00
C945   C     0.26120   0.78973   0.51185   0.00000  Uiso   1.00
C946   C     0.15813   0.82530   0.97502   0.00000  Uiso   1.00
C947   C     0.17440   0.83434   0.52546   0.00000  Uiso   1.00
C948   C     0.13827   0.84849   0.61068   0.00000  Uiso   1.00
C949   C     0.19818   0.81154   0.89058   0.00000  Uiso   1.00
C950   C     0.04235   0.99786   0.69120   0.00000  Uiso   1.00
C951   C     0.29143   0.66939   0.80965   0.00000  Uiso   1.00
C952   C     0.15965   0.76634   0.72905   0.00000  Uiso   1.00
C953   C     0.13524   0.85557   0.55765   0.00000  Uiso   1.00
C954   C     0.17437   0.90084   0.76832   0.00000  Uiso   1.00
C955   C     0.19756   0.80344   0.94323   0.00000  Uiso   1.00
C956   C     0.08737   0.87773   0.53855   0.00000  Uiso   1.00
C957   C     0.24455   0.78035   0.96280   0.00000  Uiso   1.00
C958   C     0.01698   0.98438   0.73776   0.00000  Uiso   1.00
C959   C     0.31647   0.68245   0.76280   0.00000  Uiso   1.00
C960   C     0.02106   0.83714   0.84091   0.00000  Uiso   1.00
H961   H     0.05947   0.89678   0.56277   0.00000  Uiso   1.00
H962   H     0.21531   0.78299   0.86593   0.00000  Uiso   1.00
H963   H     0.02791   0.69663   0.67115   0.00000  Uiso   1.00
H964   H     0.30382   0.96917   0.82862   0.00000  Uiso   1.00
H965   H     0.17448   0.74451   0.75912   0.00000  Uiso   1.00
H966   H     0.15816   0.92058   0.73736   0.00000  Uiso   1.00
H967   H     0.27227   0.76070   0.93879   0.00000  Uiso   1.00
H968   H     0.23808   0.87454   0.60636   0.00000  Uiso   1.00
H969   H     0.09610   0.78978   0.89158   0.00000  Uiso   1.00
H970   H     0.03413   0.76763   0.59470   0.00000  Uiso   1.00
H971   H     0.29860   0.89479   0.90741   0.00000  Uiso   1.00
H972   H     0.32894   0.91250   0.99411   0.00000  Uiso   1.00
H973   H     0.00299   0.74612   0.50845   0.00000  Uiso   1.00
H974   H     0.15769   0.81506   0.62459   0.00000  Uiso   1.00
N975   N     0.14695   0.81883   0.73740   0.00000  Uiso   1.00
N976   N     0.18638   0.84784   0.76261   0.00000  Uiso   1.00
O977   O     0.29719   0.91298   0.75310   0.00000  Uiso   1.00
O978   O     0.18288   0.85186   0.87482   0.00000  Uiso   1.00
O979   O     0.07933   0.97272   0.67442   0.00000  Uiso   1.00
O980   O     0.25741   0.69685   0.82819   0.00000  Uiso   1.00
O981   O     0.15085   0.74446   0.68850   0.00000  Uiso   1.00
O982   O     0.18542   0.92555   0.80730   0.00000  Uiso   1.00
O983   O     0.03614   0.75369   0.74691   0.00000  Uiso   1.00
O984   O     0.05822   0.90368   0.74501   0.00000  Uiso   1.00
O985   O     0.27512   0.76298   0.75499   0.00000  Uiso   1.00
O986   O     0.30328   0.84063   0.82247   0.00000  Uiso   1.00
O987   O     0.03005   0.82603   0.67753   0.00000  Uiso   1.00
O988   O     0.06431   0.83134   0.81439   0.00000  Uiso   1.00
O989   O     0.26902   0.83533   0.68561   0.00000  Uiso   1.00
O990   O     0.11991   0.88023   0.63930   0.00000  Uiso   1.00
Zn991  Zn    0.27033   0.83954   0.75540   0.00000  Uiso   1.00
Zn992  Zn    0.06300   0.82713   0.74461   0.00000  Uiso   1.00
C993   C     0.34777   0.93128   0.74801   0.00000  Uiso   1.00
C994   C     0.64559   0.82888   0.65911   0.00000  Uiso   1.00
C995   C     0.36523   0.84332   0.89334   0.00000  Uiso   1.00
C996   C     0.63473   0.82032   0.60684   0.00000  Uiso   1.00
C997   C     0.35363   0.88834   0.97109   0.00000  Uiso   1.00
C998   C     0.64526   0.77134   0.53072   0.00000  Uiso   1.00
C999   C     0.33533   0.87702   0.92238   0.00000  Uiso   1.00
C1000  C     0.66403   0.78484   0.57908   0.00000  Uiso   1.00
C1001  C     0.41187   0.82052   0.91314   0.00000  Uiso   1.00
C1002  C     0.58822   0.84231   0.58622   0.00000  Uiso   1.00
C1003  C     0.43669   0.83867   0.95867   0.00000  Uiso   1.00
C1004  C     0.65227   0.73544   0.75220   0.00000  Uiso   1.00
C1005  C     0.56269   0.82177   0.54173   0.00000  Uiso   1.00
C1006  C     0.40434   0.86946   0.98938   0.00000  Uiso   1.00
C1007  C     0.59454   0.78973   0.51185   0.00000  Uiso   1.00
C1008  C     0.49146   0.82530   0.97502   0.00000  Uiso   1.00
C1009  C     0.50774   0.83434   0.52546   0.00000  Uiso   1.00
C1010  C     0.47161   0.84849   0.61068   0.00000  Uiso   1.00
C1011  C     0.53151   0.81154   0.89058   0.00000  Uiso   1.00
C1012  C     0.37569   0.99786   0.69120   0.00000  Uiso   1.00
C1013  C     0.62476   0.66939   0.80965   0.00000  Uiso   1.00
C1014  C     0.49298   0.76634   0.72905   0.00000  Uiso   1.00
C1015  C     0.46857   0.85557   0.55765   0.00000  Uiso   1.00
C1016  C     0.50770   0.90084   0.76832   0.00000  Uiso   1.00
C1017  C     0.53089   0.80344   0.94323   0.00000  Uiso   1.00
C1018  C     0.42070   0.87773   0.53855   0.00000  Uiso   1.00
C1019  C     0.57789   0.78035   0.96280   0.00000  Uiso   1.00
C1020  C     0.35031   0.98438   0.73776   0.00000  Uiso   1.00
C1021  C     0.64980   0.68245   0.76280   0.00000  Uiso   1.00
C1022  C     0.35439   0.83714   0.84091   0.00000  Uiso   1.00
H1023  H     0.39281   0.89678   0.56277   0.00000  Uiso   1.00
H1024  H     0.54864   0.78299   0.86593   0.00000  Uiso   1.00
H1025  H     0.36124   0.69663   0.67115   0.00000  Uiso   1.00
H1026  H     0.63715   0.96917   0.82862   0.00000  Uiso   1.00
H1027  H     0.50781   0.74451   0.75912   0.00000  Uiso   1.00
H1028  H     0.49150   0.92058   0.73736   0.00000  Uiso   1.00
H1029  H     0.60561   0.76070   0.93879   0.00000  Uiso   1.00
H1030  H     0.57141   0.87454   0.60636   0.00000  Uiso   1.00
H1031  H     0.42943   0.78978   0.89158   0.00000  Uiso   1.00
H1032  H     0.36747   0.76763   0.59470   0.00000  Uiso   1.00
H1033  H     0.63193   0.89479   0.90741   0.00000  Uiso   1.00
H1034  H     0.66227   0.91250   0.99411   0.00000  Uiso   1.00
H1035  H     0.33632   0.74612   0.50845   0.00000  Uiso   1.00
H1036  H     0.49103   0.81506   0.62459   0.00000  Uiso   1.00
N1037  N     0.48029   0.81883   0.73740   0.00000  Uiso   1.00
N1038  N     0.51971   0.84784   0.76261   0.00000  Uiso   1.00
O1039  O     0.63052   0.91298   0.75310   0.00000  Uiso   1.00
O1040  O     0.51622   0.85186   0.87482   0.00000  Uiso   1.00
O1041  O     0.41267   0.97272   0.67442   0.00000  Uiso   1.00
O1042  O     0.59074   0.69685   0.82819   0.00000  Uiso   1.00
O1043  O     0.48418   0.74446   0.68850   0.00000  Uiso   1.00
O1044  O     0.51875   0.92555   0.80730   0.00000  Uiso   1.00
O1045  O     0.36948   0.75369   0.74691   0.00000  Uiso   1.00
O1046  O     0.39155   0.90368   0.74501   0.00000  Uiso   1.00
O1047  O     0.60845   0.76298   0.75499   0.00000  Uiso   1.00
O1048  O     0.63662   0.84063   0.82247   0.00000  Uiso   1.00
O1049  O     0.36338   0.82603   0.67753   0.00000  Uiso   1.00
O1050  O     0.39764   0.83134   0.81439   0.00000  Uiso   1.00
O1051  O     0.60236   0.83533   0.68561   0.00000  Uiso   1.00
O1052  O     0.45324   0.88023   0.63930   0.00000  Uiso   1.00
Zn1053 Zn    0.60366   0.83954   0.75540   0.00000  Uiso   1.00
Zn1054 Zn    0.39634   0.82713   0.74461   0.00000  Uiso   1.00
C1055  C     0.68110   0.93128   0.74801   0.00000  Uiso   1.00
C1056  C     0.97892   0.82888   0.65911   0.00000  Uiso   1.00
C1057  C     0.69856   0.84332   0.89334   0.00000  Uiso   1.00
C1058  C     0.96806   0.82032   0.60684   0.00000  Uiso   1.00
C1059  C     0.68697   0.88834   0.97109   0.00000  Uiso   1.00
C1060  C     0.97859   0.77134   0.53072   0.00000  Uiso   1.00
C1061  C     0.66867   0.87702   0.92238   0.00000  Uiso   1.00
C1062  C     0.99737   0.78484   0.57908   0.00000  Uiso   1.00
C1063  C     0.74520   0.82052   0.91314   0.00000  Uiso   1.00
C1064  C     0.92156   0.84231   0.58622   0.00000  Uiso   1.00
C1065  C     0.77002   0.83867   0.95867   0.00000  Uiso   1.00
C1066  C     0.98560   0.73544   0.75220   0.00000  Uiso   1.00
C1067  C     0.89602   0.82177   0.54173   0.00000  Uiso   1.00
C1068  C     0.73767   0.86946   0.98938   0.00000  Uiso   1.00
C1069  C     0.92787   0.78973   0.51185   0.00000  Uiso   1.00
C1070  C     0.82480   0.82530   0.97502   0.00000  Uiso   1.00
C1071  C     0.84107   0.83434   0.52546   0.00000  Uiso   1.00
C1072  C     0.80494   0.84849   0.61068   0.00000  Uiso   1.00
C1073  C     0.86484   0.81154   0.89058   0.00000  Uiso   1.00
C1074  C     0.70902   0.99786   0.69120   0.00000  Uiso   1.00
C1075  C     0.95809   0.66939   0.80965   0.00000  Uiso   1.00
C1076  C     0.82631   0.76634   0.72905   0.00000  Uiso   1.00
C1077  C     0.80190   0.85557   0.55765   0.00000  Uiso   1.00
C1078  C     0.84103   0.90084   0.76832   0.00000  Uiso   1.00
C1079  C     0.86422   0.80344   0.94323   0.00000  Uiso   1.00
C1080  C     0.75404   0.87773   0.53855   0.00000  Uiso   1.00
C1081  C     0.91122   0.78035   0.96280   0.00000  Uiso   1.00
C1082  C     0.68365   0.98438   0.73776   0.00000  Uiso   1.00
C1083  C     0.98313   0.68245   0.76280   0.00000  Uiso   1.00
C1084  C     0.68772   0.83714   0.84091   0.00000  Uiso   1.00
H1085  H     0.72614   0.89678   0.56277   0.00000  Uiso   1.00
H1086  H     0.88197   0.78299   0.86593   0.00000  Uiso   1.00
H1087  H     0.69457   0.69663   0.67115   0.00000  Uiso   1.00
H1088  H     0.97048   0.96917   0.82862   0.00000  Uiso   1.00
H1089  H     0.84114   0.74451   0.75912   0.00000  Uiso   1.00
H1090  H     0.82483   0.92058   0.73736   0.00000  Uiso   1.00
H1091  H     0.93894   0.76070   0.93879   0.00000  Uiso   1.00
H1092  H     0.90475   0.87454   0.60636   0.00000  Uiso   1.00
H1093  H     0.76277   0.78978   0.89158   0.00000  Uiso   1.00
H1094  H     0.70080   0.76763   0.59470   0.00000  Uiso   1.00
H1095  H     0.96526   0.89479   0.90741   0.00000  Uiso   1.00
H1096  H     0.99560   0.91250   0.99411   0.00000  Uiso   1.00
H1097  H     0.66966   0.74612   0.50845   0.00000  Uiso   1.00
H1098  H     0.82436   0.81506   0.62459   0.00000  Uiso   1.00
N1099  N     0.81362   0.81883   0.73740   0.00000  Uiso   1.00
N1100  N     0.85305   0.84784   0.76261   0.00000  Uiso   1.00
O1101  O     0.96386   0.91298   0.75310   0.00000  Uiso   1.00
O1102  O     0.84955   0.85186   0.87482   0.00000  Uiso   1.00
O1103  O     0.74600   0.97272   0.67442   0.00000  Uiso   1.00
O1104  O     0.92407   0.69685   0.82819   0.00000  Uiso   1.00
O1105  O     0.81751   0.74446   0.68850   0.00000  Uiso   1.00
O1106  O     0.85208   0.92555   0.80730   0.00000  Uiso   1.00
O1107  O     0.70281   0.75369   0.74691   0.00000  Uiso   1.00
O1108  O     0.72488   0.90368   0.74501   0.00000  Uiso   1.00
O1109  O     0.94178   0.76298   0.75499   0.00000  Uiso   1.00
O1110  O     0.96995   0.84063   0.82247   0.00000  Uiso   1.00
O1111  O     0.69672   0.82603   0.67753   0.00000  Uiso   1.00
O1112  O     0.73098   0.83134   0.81439   0.00000  Uiso   1.00
O1113  O     0.93569   0.83533   0.68561   0.00000  Uiso   1.00
O1114  O     0.78658   0.88023   0.63930   0.00000  Uiso   1.00
Zn1115 Zn    0.93700   0.83954   0.75540   0.00000  Uiso   1.00
Zn1116 Zn    0.72967   0.82713   0.74461   0.00000  Uiso   1.00
loop_
_geom_bond_atom_site_label_1
_geom_bond_atom_site_label_2
_geom_bond_distance
_geom_bond_site_symmetry_2
_ccdc_geom_bond_type
C1     O54     1.300   .     A
C1     C28     1.411   .     S
C1     O171    1.277   1_455 S
C2     C4      1.448   .     S
C2     O59     1.306   .     A
C2     O119    1.295   .     S
C3     C30     1.449   .     S
C3     C9      1.386   .     A
C3     C7      1.399   .     A
C4     C8      1.400   .     A
C4     C10     1.382   .     A
C5     C14     1.405   .     A
C5     C7      1.392   .     A
C5     H166    1.084   1_455 S
C6     C8      1.394   .     A
C6     C15     1.405   .     A
C6     H105    1.084   .     S
C7     H165    1.083   1_455 S
C8     H102    1.083   .     S
C9     C11     1.393   .     A
C9     H39     1.080   .     S
C10    H38     1.081   .     S
C10    C13     1.391   .     A
C11    C16     1.421   .     A
C11    C14     1.416   .     A
C12    C29     1.410   .     S
C12    O55     1.300   .     A
C12    O115    1.277   .     S
C13    C17     1.417   .     A
C13    C15     1.414   .     A
C14    C584    1.386   .     S
C15    C585    1.387   1_554 S
C16    C25     1.436   .     A
C16    C575    1.421   .     S
C17    C23     1.432   .     A
C17    C574    1.421   1_554 S
C18    H44     1.083   .     S
C18    O60     1.219   .     D
C18    C23     1.482   .     S
C19    H32     1.084   .     S
C19    C25     1.479   .     S
C19    O48     1.219   .     D
C20    O49     1.220   .     D
C20    C28     1.499   .     S
C20    H219    1.086   .     S
C21    C29     1.499   .     S
C21    O50     1.221   .     D
C21    H406    1.085   1_545 S
C22    H35     1.085   .     S
C22    N45     1.412   .     S
C22    O51     1.219   .     D
C23    C26     1.394   .     A
C24    N46     1.413   .     S
C24    H36     1.084   .     S
C24    O52     1.218   .     D
C25    C27     1.394   .     A
C26    H31     1.085   .     S
C26    C572    1.386   1_554 S
C27    H37     1.086   .     S
C27    C573    1.387   .     S
C28    C339    1.362   1_455 S
C29    C462    1.362   1_545 S
C30    O58     1.305   .     A
C30    O180    1.297   1_455 S
H33    C392    1.086   1_545 S
H34    C207    1.085   .     S
H40    C132    1.083   1_455 S
H41    C69     1.083   .     S
H42    C67     1.084   .     S
H43    C130    1.084   1_455 S
N45    N46     1.295   .     D
N45    Zn62    2.036   .     S
N46    Zn61    2.036   .     S
O47    Zn61    1.959   .     S
O47    C63     1.277   .     S
O53    Zn62    1.959   .     S
O53    C136    1.277   1_455 S
O54    Zn62    1.980   .     S
O55    Zn61    1.980   .     S
O56    Zn61    1.961   .     S
O56    C92     1.297   .     S
O57    Zn62    1.961   .     S
O57    C126    1.295   1_455 S
O58    Zn62    1.917   .     S
O59    Zn61    1.917   .     S
C63    O116    1.300   .     A
C63    C90     1.411   .     S
C64    C66     1.448   .     S
C64    O121    1.306   .     A
C64    O181    1.295   .     S
C65    C92     1.449   .     S
C65    C71     1.386   .     A
C65    C69     1.399   .     A
C66    C70     1.400   .     A
C66    C72     1.382   .     A
C67    C76     1.405   .     A
C67    C69     1.392   .     A
C68    C70     1.394   .     A
C68    C77     1.405   .     A
C68    H167    1.084   .     S
C70    H164    1.083   .     S
C71    C73     1.393   .     A
C71    H101    1.080   .     S
C72    H100    1.081   .     S
C72    C75     1.391   .     A
C73    C78     1.421   .     A
C73    C76     1.416   .     A
C74    C91     1.410   .     S
C74    O117    1.300   .     A
C74    O177    1.277   .     S
C75    C79     1.417   .     A
C75    C77     1.414   .     A
C76    C646    1.386   .     S
C77    C647    1.387   1_554 S
C78    C87     1.436   .     A
C78    C637    1.421   .     S
C79    C85     1.432   .     A
C79    C636    1.421   1_554 S
C80    H106    1.083   .     S
C80    O122    1.219   .     D
C80    C85     1.482   .     S
C81    H94     1.084   .     S
C81    C87     1.479   .     S
C81    O110    1.219   .     D
C82    O111    1.220   .     D
C82    C90     1.499   .     S
C82    H281    1.086   .     S
C83    C91     1.499   .     S
C83    O112    1.221   .     D
C83    H468    1.085   1_545 S
C84    H97     1.085   .     S
C84    N107    1.412   .     S
C84    O113    1.219   .     D
C85    C88     1.394   .     A
C86    N108    1.413   .     S
C86    H98     1.084   .     S
C86    O114    1.218   .     D
C87    C89     1.394   .     A
C88    H93     1.085   .     S
C88    C634    1.386   1_554 S
C89    H99     1.086   .     S
C89    C635    1.387   .     S
C90    C215    1.362   .     S
C91    C524    1.362   1_545 S
C92    O120    1.305   .     A
H95    C454    1.086   1_545 S
H96    C269    1.085   .     S
H103   C131    1.083   .     S
H104   C129    1.084   .     S
N107   N108    1.295   .     D
N107   Zn124   2.036   .     S
N108   Zn123   2.036   .     S
O109   Zn123   1.959   .     S
O109   C125    1.277   .     S
O115   Zn124   1.959   .     S
O116   Zn124   1.980   .     S
O117   Zn123   1.980   .     S
O118   Zn123   1.961   .     S
O118   C154    1.297   .     S
O119   Zn124   1.961   .     S
O120   Zn124   1.917   .     S
O121   Zn123   1.917   .     S
C125   O178    1.300   .     A
C125   C152    1.411   .     S
C126   C128    1.448   .     S
C126   O183    1.306   .     A
C126   O57     1.295   1_655 S
C127   C154    1.449   .     S
C127   C133    1.386   .     A
C127   C131    1.399   .     A
C128   C132    1.400   .     A
C128   C134    1.382   .     A
C129   C138    1.405   .     A
C129   C131    1.392   .     A
C130   C132    1.394   .     A
C130   C139    1.405   .     A
C130   H43     1.084   1_655 S
C132   H40     1.083   1_655 S
C133   C135    1.393   .     A
C133   H163    1.080   .     S
C134   H162    1.081   .     S
C134   C137    1.391   .     A
C135   C140    1.421   .     A
C135   C138    1.416   .     A
C136   C153    1.410   .     S
C136   O179    1.300   .     A
C136   O53     1.277   1_655 S
C137   C141    1.417   .     A
C137   C139    1.414   .     A
C138   C708    1.386   .     S
C139   C709    1.387   1_554 S
C140   C149    1.436   .     A
C140   C699    1.421   .     S
C141   C147    1.432   .     A
C141   C698    1.421   1_554 S
C142   H168    1.083   .     S
C142   O184    1.219   .     D
C142   C147    1.482   .     S
C143   H156    1.084   .     S
C143   C149    1.479   .     S
C143   O172    1.219   .     D
C144   O173    1.220   .     D
C144   C152    1.499   .     S
C144   H343    1.086   .     S
C145   C153    1.499   .     S
C145   O174    1.221   .     D
C145   H530    1.085   1_545 S
C146   H159    1.085   .     S
C146   N169    1.412   .     S
C146   O175    1.219   .     D
C147   C150    1.394   .     A
C148   N170    1.413   .     S
C148   H160    1.084   .     S
C148   O176    1.218   .     D
C149   C151    1.394   .     A
C150   H155    1.085   .     S
C150   C696    1.386   1_554 S
C151   H161    1.086   .     S
C151   C697    1.387   .     S
C152   C277    1.362   .     S
C153   C400    1.362   1_645 S
C154   O182    1.305   .     A
H157   C516    1.086   1_545 S
H158   C331    1.085   .     S
H165   C7      1.083   1_655 S
H166   C5      1.084   1_655 S
N169   N170    1.295   .     D
N169   Zn186   2.036   .     S
N170   Zn185   2.036   .     S
O171   Zn185   1.959   .     S
O171   C1      1.277   1_655 S
O177   Zn186   1.959   .     S
O178   Zn186   1.980   .     S
O179   Zn185   1.980   .     S
O180   Zn185   1.961   .     S
O180   C30     1.297   1_655 S
O181   Zn186   1.961   .     S
O182   Zn186   1.917   .     S
O183   Zn185   1.917   .     S
C187   O240    1.300   .     A
C187   C214    1.411   .     S
C187   O357    1.277   1_455 S
C188   C190    1.448   .     S
C188   O245    1.306   .     A
C188   O305    1.295   .     S
C189   C216    1.449   .     S
C189   C195    1.386   .     A
C189   C193    1.399   .     A
C190   C194    1.400   .     A
C190   C196    1.382   .     A
C191   C200    1.405   .     A
C191   C193    1.392   .     A
C191   H352    1.084   1_455 S
C192   C194    1.394   .     A
C192   C201    1.405   .     A
C192   H291    1.084   .     S
C193   H351    1.083   1_455 S
C194   H288    1.083   .     S
C195   C197    1.393   .     A
C195   H225    1.080   .     S
C196   H224    1.081   .     S
C196   C199    1.391   .     A
C197   C202    1.421   .     A
C197   C200    1.416   .     A
C198   C215    1.410   .     S
C198   O241    1.300   .     A
C198   O301    1.277   .     S
C199   C203    1.417   .     A
C199   C201    1.414   .     A
C200   C770    1.386   .     S
C201   C771    1.387   1_554 S
C202   C211    1.436   .     A
C202   C761    1.421   .     S
C203   C209    1.432   .     A
C203   C760    1.421   1_554 S
C204   H230    1.083   .     S
C204   O246    1.219   .     D
C204   C209    1.482   .     S
C205   H218    1.084   .     S
C205   C211    1.479   .     S
C205   O234    1.219   .     D
C206   O235    1.220   .     D
C206   C214    1.499   .     S
C206   H405    1.086   .     S
C207   C215    1.499   .     S
C207   O236    1.221   .     D
C208   H221    1.085   .     S
C208   N231    1.412   .     S
C208   O237    1.219   .     D
C209   C212    1.394   .     A
C210   N232    1.413   .     S
C210   H222    1.084   .     S
C210   O238    1.218   .     D
C211   C213    1.394   .     A
C212   H217    1.085   .     S
C212   C758    1.386   1_554 S
C213   H223    1.086   .     S
C213   C759    1.387   .     S
C214   C525    1.362   1_455 S
C216   O244    1.305   .     A
C216   O366    1.297   1_455 S
H220   C393    1.085   .     S
H226   C318    1.083   1_455 S
H227   C255    1.083   .     S
H228   C253    1.084   .     S
H229   C316    1.084   1_455 S
N231   N232    1.295   .     D
N231   Zn248   2.036   .     S
N232   Zn247   2.036   .     S
O233   Zn247   1.959   .     S
O233   C249    1.277   .     S
O239   Zn248   1.959   .     S
O239   C322    1.277   1_455 S
O240   Zn248   1.980   .     S
O241   Zn247   1.980   .     S
O242   Zn247   1.961   .     S
O242   C278    1.297   .     S
O243   Zn248   1.961   .     S
O243   C312    1.295   1_455 S
O244   Zn248   1.917   .     S
O245   Zn247   1.917   .     S
C249   O302    1.300   .     A
C249   C276    1.411   .     S
C250   C252    1.448   .     S
C250   O307    1.306   .     A
C250   O367    1.295   .     S
C251   C278    1.449   .     S
C251   C257    1.386   .     A
C251   C255    1.399   .     A
C252   C256    1.400   .     A
C252   C258    1.382   .     A
C253   C262    1.405   .     A
C253   C255    1.392   .     A
C254   C256    1.394   .     A
C254   C263    1.405   .     A
C254   H353    1.084   .     S
C256   H350    1.083   .     S
C257   C259    1.393   .     A
C257   H287    1.080   .     S
C258   H286    1.081   .     S
C258   C261    1.391   .     A
C259   C264    1.421   .     A
C259   C262    1.416   .     A
C260   C277    1.410   .     S
C260   O303    1.300   .     A
C260   O363    1.277   .     S
C261   C265    1.417   .     A
C261   C263    1.414   .     A
C262   C832    1.386   .     S
C263   C833    1.387   1_554 S
C264   C273    1.436   .     A
C264   C823    1.421   .     S
C265   C271    1.432   .     A
C265   C822    1.421   1_554 S
C266   H292    1.083   .     S
C266   O308    1.219   .     D
C266   C271    1.482   .     S
C267   H280    1.084   .     S
C267   C273    1.479   .     S
C267   O296    1.219   .     D
C268   O297    1.220   .     D
C268   C276    1.499   .     S
C268   H467    1.086   .     S
C269   C277    1.499   .     S
C269   O298    1.221   .     D
C270   H283    1.085   .     S
C270   N293    1.412   .     S
C270   O299    1.219   .     D
C271   C274    1.394   .     A
C272   N294    1.413   .     S
C272   H284    1.084   .     S
C272   O300    1.218   .     D
C273   C275    1.394   .     A
C274   H279    1.085   .     S
C274   C820    1.386   1_554 S
C275   H285    1.086   .     S
C275   C821    1.387   .     S
C276   C401    1.362   .     S
C278   O306    1.305   .     A
H282   C455    1.085   .     S
H289   C317    1.083   .     S
H290   C315    1.084   .     S
N293   N294    1.295   .     D
N293   Zn310   2.036   .     S
N294   Zn309   2.036   .     S
O295   Zn309   1.959   .     S
O295   C311    1.277   .     S
O301   Zn310   1.959   .     S
O302   Zn310   1.980   .     S
O303   Zn309   1.980   .     S
O304   Zn309   1.961   .     S
O304   C340    1.297   .     S
O305   Zn310   1.961   .     S
O306   Zn310   1.917   .     S
O307   Zn309   1.917   .     S
C311   O364    1.300   .     A
C311   C338    1.411   .     S
C312   C314    1.448   .     S
C312   O369    1.306   .     A
C312   O243    1.295   1_655 S
C313   C340    1.449   .     S
C313   C319    1.386   .     A
C313   C317    1.399   .     A
C314   C318    1.400   .     A
C314   C320    1.382   .     A
C315   C324    1.405   .     A
C315   C317    1.392   .     A
C316   C318    1.394   .     A
C316   C325    1.405   .     A
C316   H229    1.084   1_655 S
C318   H226    1.083   1_655 S
C319   C321    1.393   .     A
C319   H349    1.080   .     S
C320   H348    1.081   .     S
C320   C323    1.391   .     A
C321   C326    1.421   .     A
C321   C324    1.416   .     A
C322   C339    1.410   .     S
C322   O365    1.300   .     A
C322   O239    1.277   1_655 S
C323   C327    1.417   .     A
C323   C325    1.414   .     A
C324   C894    1.386   .     S
C325   C895    1.387   1_554 S
C326   C335    1.436   .     A
C326   C885    1.421   .     S
C327   C333    1.432   .     A
C327   C884    1.421   1_554 S
C328   H354    1.083   .     S
C328   O370    1.219   .     D
C328   C333    1.482   .     S
C329   H342    1.084   .     S
C329   C335    1.479   .     S
C329   O358    1.219   .     D
C330   O359    1.220   .     D
C330   C338    1.499   .     S
C330   H529    1.086   .     S
C331   C339    1.499   .     S
C331   O360    1.221   .     D
C332   H345    1.085   .     S
C332   N355    1.412   .     S
C332   O361    1.219   .     D
C333   C336    1.394   .     A
C334   N356    1.413   .     S
C334   H346    1.084   .     S
C334   O362    1.218   .     D
C335   C337    1.394   .     A
C336   H341    1.085   .     S
C336   C882    1.386   1_554 S
C337   H347    1.086   .     S
C337   C883    1.387   .     S
C338   C463    1.362   .     S
C339   C28     1.362   1_655 S
C340   O368    1.305   .     A
H344   C517    1.085   .     S
H351   C193    1.083   1_655 S
H352   C191    1.084   1_655 S
N355   N356    1.295   .     D
N355   Zn372   2.036   .     S
N356   Zn371   2.036   .     S
O357   Zn371   1.959   .     S
O357   C187    1.277   1_655 S
O363   Zn372   1.959   .     S
O364   Zn372   1.980   .     S
O365   Zn371   1.980   .     S
O366   Zn371   1.961   .     S
O366   C216    1.297   1_655 S
O367   Zn372   1.961   .     S
O368   Zn372   1.917   .     S
O369   Zn371   1.917   .     S
C373   O426    1.300   .     A
C373   C400    1.411   .     S
C373   O543    1.277   1_455 S
C374   C376    1.448   .     S
C374   O431    1.306   .     A
C374   O491    1.295   .     S
C375   C402    1.449   .     S
C375   C381    1.386   .     A
C375   C379    1.399   .     A
C376   C380    1.400   .     A
C376   C382    1.382   .     A
C377   C386    1.405   .     A
C377   C379    1.392   .     A
C377   H538    1.084   1_455 S
C378   C380    1.394   .     A
C378   C387    1.405   .     A
C378   H477    1.084   .     S
C379   H537    1.083   1_455 S
C380   H474    1.083   .     S
C381   C383    1.393   .     A
C381   H411    1.080   .     S
C382   H410    1.081   .     S
C382   C385    1.391   .     A
C383   C388    1.421   .     A
C383   C386    1.416   .     A
C384   C401    1.410   .     S
C384   O427    1.300   .     A
C384   O487    1.277   .     S
C385   C389    1.417   .     A
C385   C387    1.414   .     A
C386   C956    1.386   .     S
C387   C957    1.387   1_554 S
C388   C397    1.436   .     A
C388   C947    1.421   .     S
C389   C395    1.432   .     A
C389   C946    1.421   1_554 S
C390   H416    1.083   .     S
C390   O432    1.219   .     D
C390   C395    1.482   .     S
C391   H404    1.084   .     S
C391   C397    1.479   .     S
C391   O420    1.219   .     D
C392   O421    1.220   .     D
C392   C400    1.499   .     S
C392   H33     1.086   1_565 S
C393   C401    1.499   .     S
C393   O422    1.221   .     D
C394   H407    1.085   .     S
C394   N417    1.412   .     S
C394   O423    1.219   .     D
C395   C398    1.394   .     A
C396   N418    1.413   .     S
C396   H408    1.084   .     S
C396   O424    1.218   .     D
C397   C399    1.394   .     A
C398   H403    1.085   .     S
C398   C944    1.386   1_554 S
C399   H409    1.086   .     S
C399   C945    1.387   .     S
C400   C153    1.362   1_465 S
C402   O430    1.305   .     A
C402   O552    1.297   1_455 S
H406   C21     1.085   1_565 S
H412   C504    1.083   1_455 S
H413   C441    1.083   .     S
H414   C439    1.084   .     S
H415   C502    1.084   1_455 S
N417   N418    1.295   .     D
N417   Zn434   2.036   .     S
N418   Zn433   2.036   .     S
O419   Zn433   1.959   .     S
O419   C435    1.277   .     S
O425   Zn434   1.959   .     S
O425   C508    1.277   1_455 S
O426   Zn434   1.980   .     S
O427   Zn433   1.980   .     S
O428   Zn433   1.961   .     S
O428   C464    1.297   .     S
O429   Zn434   1.961   .     S
O429   C498    1.295   1_455 S
O430   Zn434   1.917   .     S
O431   Zn433   1.917   .     S
C435   O488    1.300   .     A
C435   C462    1.411   .     S
C436   C438    1.448   .     S
C436   O493    1.306   .     A
C436   O553    1.295   .     S
C437   C464    1.449   .     S
C437   C443    1.386   .     A
C437   C441    1.399   .     A
C438   C442    1.400   .     A
C438   C444    1.382   .     A
C439   C448    1.405   .     A
C439   C441    1.392   .     A
C440   C442    1.394   .     A
C440   C449    1.405   .     A
C440   H539    1.084   .     S
C442   H536    1.083   .     S
C443   C445    1.393   .     A
C443   H473    1.080   .     S
C444   H472    1.081   .     S
C444   C447    1.391   .     A
C445   C450    1.421   .     A
C445   C448    1.416   .     A
C446   C463    1.410   .     S
C446   O489    1.300   .     A
C446   O549    1.277   .     S
C447   C451    1.417   .     A
C447   C449    1.414   .     A
C448   C1018   1.386   .     S
C449   C1019   1.387   1_554 S
C450   C459    1.436   .     A
C450   C1009   1.421   .     S
C451   C457    1.432   .     A
C451   C1008   1.421   1_554 S
C452   H478    1.083   .     S
C452   O494    1.219   .     D
C452   C457    1.482   .     S
C453   H466    1.084   .     S
C453   C459    1.479   .     S
C453   O482    1.219   .     D
C454   O483    1.220   .     D
C454   C462    1.499   .     S
C454   H95     1.086   1_565 S
C455   C463    1.499   .     S
C455   O484    1.221   .     D
C456   H469    1.085   .     S
C456   N479    1.412   .     S
C456   O485    1.219   .     D
C457   C460    1.394   .     A
C458   N480    1.413   .     S
C458   H470    1.084   .     S
C458   O486    1.218   .     D
C459   C461    1.394   .     A
C460   H465    1.085   .     S
C460   C1006   1.386   1_554 S
C461   H471    1.086   .     S
C461   C1007   1.387   .     S
C462   C29     1.362   1_565 S
C464   O492    1.305   .     A
H468   C83     1.085   1_565 S
H475   C503    1.083   .     S
H476   C501    1.084   .     S
N479   N480    1.295   .     D
N479   Zn496   2.036   .     S
N480   Zn495   2.036   .     S
O481   Zn495   1.959   .     S
O481   C497    1.277   .     S
O487   Zn496   1.959   .     S
O488   Zn496   1.980   .     S
O489   Zn495   1.980   .     S
O490   Zn495   1.961   .     S
O490   C526    1.297   .     S
O491   Zn496   1.961   .     S
O492   Zn496   1.917   .     S
O493   Zn495   1.917   .     S
C497   O550    1.300   .     A
C497   C524    1.411   .     S
C498   C500    1.448   .     S
C498   O555    1.306   .     A
C498   O429    1.295   1_655 S
C499   C526    1.449   .     S
C499   C505    1.386   .     A
C499   C503    1.399   .     A
C500   C504    1.400   .     A
C500   C506    1.382   .     A
C501   C510    1.405   .     A
C501   C503    1.392   .     A
C502   C504    1.394   .     A
C502   C511    1.405   .     A
C502   H415    1.084   1_655 S
C504   H412    1.083   1_655 S
C505   C507    1.393   .     A
C505   H535    1.080   .     S
C506   H534    1.081   .     S
C506   C509    1.391   .     A
C507   C512    1.421   .     A
C507   C510    1.416   .     A
C508   C525    1.410   .     S
C508   O551    1.300   .     A
C508   O425    1.277   1_655 S
C509   C513    1.417   .     A
C509   C511    1.414   .     A
C510   C1080   1.386   .     S
C511   C1081   1.387   1_554 S
C512   C521    1.436   .     A
C512   C1071   1.421   .     S
C513   C519    1.432   .     A
C513   C1070   1.421   1_554 S
C514   H540    1.083   .     S
C514   O556    1.219   .     D
C514   C519    1.482   .     S
C515   H528    1.084   .     S
C515   C521    1.479   .     S
C515   O544    1.219   .     D
C516   O545    1.220   .     D
C516   C524    1.499   .     S
C516   H157    1.086   1_565 S
C517   C525    1.499   .     S
C517   O546    1.221   .     D
C518   H531    1.085   .     S
C518   N541    1.412   .     S
C518   O547    1.219   .     D
C519   C522    1.394   .     A
C520   N542    1.413   .     S
C520   H532    1.084   .     S
C520   O548    1.218   .     D
C521   C523    1.394   .     A
C522   H527    1.085   .     S
C522   C1068   1.386   1_554 S
C523   H533    1.086   .     S
C523   C1069   1.387   .     S
C524   C91     1.362   1_565 S
C525   C214    1.362   1_655 S
C526   O554    1.305   .     A
H530   C145    1.085   1_565 S
H537   C379    1.083   1_655 S
H538   C377    1.084   1_655 S
N541   N542    1.295   .     D
N541   Zn558   2.036   .     S
N542   Zn557   2.036   .     S
O543   Zn557   1.959   .     S
O543   C373    1.277   1_655 S
O549   Zn558   1.959   .     S
O550   Zn558   1.980   .     S
O551   Zn557   1.980   .     S
O552   Zn557   1.961   .     S
O552   C402    1.297   1_655 S
O553   Zn558   1.961   .     S
O554   Zn558   1.917   .     S
O555   Zn557   1.917   .     S
C559   O612    1.300   .     A
C559   C586    1.411   .     S
C559   O729    1.277   1_455 S
C560   C562    1.448   .     S
C560   O617    1.306   .     A
C560   O677    1.295   .     S
C561   C588    1.449   .     S
C561   C567    1.386   .     A
C561   C565    1.399   .     A
C562   C566    1.400   .     A
C562   C568    1.382   .     A
C563   C572    1.405   .     A
C563   C565    1.392   .     A
C563   H724    1.084   1_455 S
C564   C566    1.394   .     A
C564   C573    1.405   .     A
C564   H663    1.084   .     S
C565   H723    1.083   1_455 S
C566   H660    1.083   .     S
C567   C569    1.393   .     A
C567   H597    1.080   .     S
C568   H596    1.081   .     S
C568   C571    1.391   .     A
C569   C574    1.421   .     A
C569   C572    1.416   .     A
C570   C587    1.410   .     S
C570   O613    1.300   .     A
C570   O673    1.277   .     S
C571   C575    1.417   .     A
C571   C573    1.414   .     A
C572   C26     1.386   1_556 S
C574   C583    1.436   .     A
C574   C17     1.421   1_556 S
C575   C581    1.432   .     A
C576   H602    1.083   .     S
C576   O618    1.219   .     D
C576   C581    1.482   .     S
C577   H590    1.084   .     S
C577   C583    1.479   .     S
C577   O606    1.219   .     D
C578   O607    1.220   .     D
C578   C586    1.499   .     S
C578   H777    1.086   .     S
C579   C587    1.499   .     S
C579   O608    1.221   .     D
C579   H964    1.085   1_545 S
C580   H593    1.085   .     S
C580   N603    1.412   .     S
C580   O609    1.219   .     D
C581   C584    1.394   .     A
C582   N604    1.413   .     S
C582   H594    1.084   .     S
C582   O610    1.218   .     D
C583   C585    1.394   .     A
C584   H589    1.085   .     S
C585   H595    1.086   .     S
C585   C15     1.387   1_556 S
C586   C897    1.362   1_455 S
C587   C1020   1.362   1_545 S
C588   O616    1.305   .     A
C588   O738    1.297   1_455 S
H591   C950    1.086   1_545 S
H592   C765    1.085   .     S
H598   C690    1.083   1_455 S
H599   C627    1.083   .     S
H600   C625    1.084   .     S
H601   C688    1.084   1_455 S
N603   N604    1.295   .     D
N603   Zn620   2.036   .     S
N604   Zn619   2.036   .     S
O605   Zn619   1.959   .     S
O605   C621    1.277   .     S
O611   Zn620   1.959   .     S
O611   C694    1.277   1_455 S
O612   Zn620   1.980   .     S
O613   Zn619   1.980   .     S
O614   Zn619   1.961   .     S
O614   C650    1.297   .     S
O615   Zn620   1.961   .     S
O615   C684    1.295   1_455 S
O616   Zn620   1.917   .     S
O617   Zn619   1.917   .     S
C621   O674    1.300   .     A
C621   C648    1.411   .     S
C622   C624    1.448   .     S
C622   O679    1.306   .     A
C622   O739    1.295   .     S
C623   C650    1.449   .     S
C623   C629    1.386   .     A
C623   C627    1.399   .     A
C624   C628    1.400   .     A
C624   C630    1.382   .     A
C625   C634    1.405   .     A
C625   C627    1.392   .     A
C626   C628    1.394   .     A
C626   C635    1.405   .     A
C626   H725    1.084   .     S
C628   H722    1.083   .     S
C629   C631    1.393   .     A
C629   H659    1.080   .     S
C630   H658    1.081   .     S
C630   C633    1.391   .     A
C631   C636    1.421   .     A
C631   C634    1.416   .     A
C632   C649    1.410   .     S
C632   O675    1.300   .     A
C632   O735    1.277   .     S
C633   C637    1.417   .     A
C633   C635    1.414   .     A
C634   C88     1.386   1_556 S
C636   C645    1.436   .     A
C636   C79     1.421   1_556 S
C637   C643    1.432   .     A
C638   H664    1.083   .     S
C638   O680    1.219   .     D
C638   C643    1.482   .     S
C639   H652    1.084   .     S
C639   C645    1.479   .     S
C639   O668    1.219   .     D
C640   O669    1.220   .     D
C640   C648    1.499   .     S
C640   H839    1.086   .     S
C641   C649    1.499   .     S
C641   O670    1.221   .     D
C641   H1026   1.085   1_545 S
C642   H655    1.085   .     S
C642   N665    1.412   .     S
C642   O671    1.219   .     D
C643   C646    1.394   .     A
C644   N666    1.413   .     S
C644   H656    1.084   .     S
C644   O672    1.218   .     D
C645   C647    1.394   .     A
C646   H651    1.085   .     S
C647   H657    1.086   .     S
C647   C77     1.387   1_556 S
C648   C773    1.362   .     S
C649   C1082   1.362   1_545 S
C650   O678    1.305   .     A
H653   C1012   1.086   1_545 S
H654   C827    1.085   .     S
H661   C689    1.083   .     S
H662   C687    1.084   .     S
N665   N666    1.295   .     D
N665   Zn682   2.036   .     S
N666   Zn681   2.036   .     S
O667   Zn681   1.959   .     S
O667   C683    1.277   .     S
O673   Zn682   1.959   .     S
O674   Zn682   1.980   .     S
O675   Zn681   1.980   .     S
O676   Zn681   1.961   .     S
O676   C712    1.297   .     S
O677   Zn682   1.961   .     S
O678   Zn682   1.917   .     S
O679   Zn681   1.917   .     S
C683   O736    1.300   .     A
C683   C710    1.411   .     S
C684   C686    1.448   .     S
C684   O741    1.306   .     A
C684   O615    1.295   1_655 S
C685   C712    1.449   .     S
C685   C691    1.386   .     A
C685   C689    1.399   .     A
C686   C690    1.400   .     A
C686   C692    1.382   .     A
C687   C696    1.405   .     A
C687   C689    1.392   .     A
C688   C690    1.394   .     A
C688   C697    1.405   .     A
C688   H601    1.084   1_655 S
C690   H598    1.083   1_655 S
C691   C693    1.393   .     A
C691   H721    1.080   .     S
C692   H720    1.081   .     S
C692   C695    1.391   .     A
C693   C698    1.421   .     A
C693   C696    1.416   .     A
C694   C711    1.410   .     S
C694   O737    1.300   .     A
C694   O611    1.277   1_655 S
C695   C699    1.417   .     A
C695   C697    1.414   .     A
C696   C150    1.386   1_556 S
C698   C707    1.436   .     A
C698   C141    1.421   1_556 S
C699   C705    1.432   .     A
C700   H726    1.083   .     S
C700   O742    1.219   .     D
C700   C705    1.482   .     S
C701   H714    1.084   .     S
C701   C707    1.479   .     S
C701   O730    1.219   .     D
C702   O731    1.220   .     D
C702   C710    1.499   .     S
C702   H901    1.086   .     S
C703   C711    1.499   .     S
C703   O732    1.221   .     D
C703   H1088   1.085   1_545 S
C704   H717    1.085   .     S
C704   N727    1.412   .     S
C704   O733    1.219   .     D
C705   C708    1.394   .     A
C706   N728    1.413   .     S
C706   H718    1.084   .     S
C706   O734    1.218   .     D
C707   C709    1.394   .     A
C708   H713    1.085   .     S
C709   H719    1.086   .     S
C709   C139    1.387   1_556 S
C710   C835    1.362   .     S
C711   C958    1.362   1_645 S
C712   O740    1.305   .     A
H715   C1074   1.086   1_545 S
H716   C889    1.085   .     S
H723   C565    1.083   1_655 S
H724   C563    1.084   1_655 S
N727   N728    1.295   .     D
N727   Zn744   2.036   .     S
N728   Zn743   2.036   .     S
O729   Zn743   1.959   .     S
O729   C559    1.277   1_655 S
O735   Zn744   1.959   .     S
O736   Zn744   1.980   .     S
O737   Zn743   1.980   .     S
O738   Zn743   1.961   .     S
O738   C588    1.297   1_655 S
O739   Zn744   1.961   .     S
O740   Zn744   1.917   .     S
O741   Zn743   1.917   .     S
C745   O798    1.300   .     A
C745   C772    1.411   .     S
C745   O915    1.277   1_455 S
C746   C748    1.448   .     S
C746   O803    1.306   .     A
C746   O863    1.295   .     S
C747   C774    1.449   .     S
C747   C753    1.386   .     A
C747   C751    1.399   .     A
C748   C752    1.400   .     A
C748   C754    1.382   .     A
C749   C758    1.405   .     A
C749   C751    1.392   .     A
C749   H910    1.084   1_455 S
C750   C752    1.394   .     A
C750   C759    1.405   .     A
C750   H849    1.084   .     S
C751   H909    1.083   1_455 S
C752   H846    1.083   .     S
C753   C755    1.393   .     A
C753   H783    1.080   .     S
C754   H782    1.081   .     S
C754   C757    1.391   .     A
C755   C760    1.421   .     A
C755   C758    1.416   .     A
C756   C773    1.410   .     S
C756   O799    1.300   .     A
C756   O859    1.277   .     S
C757   C761    1.417   .     A
C757   C759    1.414   .     A
C758   C212    1.386   1_556 S
C760   C769    1.436   .     A
C760   C203    1.421   1_556 S
C761   C767    1.432   .     A
C762   H788    1.083   .     S
C762   O804    1.219   .     D
C762   C767    1.482   .     S
C763   H776    1.084   .     S
C763   C769    1.479   .     S
C763   O792    1.219   .     D
C764   O793    1.220   .     D
C764   C772    1.499   .     S
C764   H963    1.086   .     S
C765   C773    1.499   .     S
C765   O794    1.221   .     D
C766   H779    1.085   .     S
C766   N789    1.412   .     S
C766   O795    1.219   .     D
C767   C770    1.394   .     A
C768   N790    1.413   .     S
C768   H780    1.084   .     S
C768   O796    1.218   .     D
C769   C771    1.394   .     A
C770   H775    1.085   .     S
C771   H781    1.086   .     S
C771   C201    1.387   1_556 S
C772   C1083   1.362   1_455 S
C774   O802    1.305   .     A
C774   O924    1.297   1_455 S
H778   C951    1.085   .     S
H784   C876    1.083   1_455 S
H785   C813    1.083   .     S
H786   C811    1.084   .     S
H787   C874    1.084   1_455 S
N789   N790    1.295   .     D
N789   Zn806   2.036   .     S
N790   Zn805   2.036   .     S
O791   Zn805   1.959   .     S
O791   C807    1.277   .     S
O797   Zn806   1.959   .     S
O797   C880    1.277   1_455 S
O798   Zn806   1.980   .     S
O799   Zn805   1.980   .     S
O800   Zn805   1.961   .     S
O800   C836    1.297   .     S
O801   Zn806   1.961   .     S
O801   C870    1.295   1_455 S
O802   Zn806   1.917   .     S
O803   Zn805   1.917   .     S
C807   O860    1.300   .     A
C807   C834    1.411   .     S
C808   C810    1.448   .     S
C808   O865    1.306   .     A
C808   O925    1.295   .     S
C809   C836    1.449   .     S
C809   C815    1.386   .     A
C809   C813    1.399   .     A
C810   C814    1.400   .     A
C810   C816    1.382   .     A
C811   C820    1.405   .     A
C811   C813    1.392   .     A
C812   C814    1.394   .     A
C812   C821    1.405   .     A
C812   H911    1.084   .     S
C814   H908    1.083   .     S
C815   C817    1.393   .     A
C815   H845    1.080   .     S
C816   H844    1.081   .     S
C816   C819    1.391   .     A
C817   C822    1.421   .     A
C817   C820    1.416   .     A
C818   C835    1.410   .     S
C818   O861    1.300   .     A
C818   O921    1.277   .     S
C819   C823    1.417   .     A
C819   C821    1.414   .     A
C820   C274    1.386   1_556 S
C822   C831    1.436   .     A
C822   C265    1.421   1_556 S
C823   C829    1.432   .     A
C824   H850    1.083   .     S
C824   O866    1.219   .     D
C824   C829    1.482   .     S
C825   H838    1.084   .     S
C825   C831    1.479   .     S
C825   O854    1.219   .     D
C826   O855    1.220   .     D
C826   C834    1.499   .     S
C826   H1025   1.086   .     S
C827   C835    1.499   .     S
C827   O856    1.221   .     D
C828   H841    1.085   .     S
C828   N851    1.412   .     S
C828   O857    1.219   .     D
C829   C832    1.394   .     A
C830   N852    1.413   .     S
C830   H842    1.084   .     S
C830   O858    1.218   .     D
C831   C833    1.394   .     A
C832   H837    1.085   .     S
C833   H843    1.086   .     S
C833   C263    1.387   1_556 S
C834   C959    1.362   .     S
C836   O864    1.305   .     A
H840   C1013   1.085   .     S
H847   C875    1.083   .     S
H848   C873    1.084   .     S
N851   N852    1.295   .     D
N851   Zn868   2.036   .     S
N852   Zn867   2.036   .     S
O853   Zn867   1.959   .     S
O853   C869    1.277   .     S
O859   Zn868   1.959   .     S
O860   Zn868   1.980   .     S
O861   Zn867   1.980   .     S
O862   Zn867   1.961   .     S
O862   C898    1.297   .     S
O863   Zn868   1.961   .     S
O864   Zn868   1.917   .     S
O865   Zn867   1.917   .     S
C869   O922    1.300   .     A
C869   C896    1.411   .     S
C870   C872    1.448   .     S
C870   O927    1.306   .     A
C870   O801    1.295   1_655 S
C871   C898    1.449   .     S
C871   C877    1.386   .     A
C871   C875    1.399   .     A
C872   C876    1.400   .     A
C872   C878    1.382   .     A
C873   C882    1.405   .     A
C873   C875    1.392   .     A
C874   C876    1.394   .     A
C874   C883    1.405   .     A
C874   H787    1.084   1_655 S
C876   H784    1.083   1_655 S
C877   C879    1.393   .     A
C877   H907    1.080   .     S
C878   H906    1.081   .     S
C878   C881    1.391   .     A
C879   C884    1.421   .     A
C879   C882    1.416   .     A
C880   C897    1.410   .     S
C880   O923    1.300   .     A
C880   O797    1.277   1_655 S
C881   C885    1.417   .     A
C881   C883    1.414   .     A
C882   C336    1.386   1_556 S
C884   C893    1.436   .     A
C884   C327    1.421   1_556 S
C885   C891    1.432   .     A
C886   H912    1.083   .     S
C886   O928    1.219   .     D
C886   C891    1.482   .     S
C887   H900    1.084   .     S
C887   C893    1.479   .     S
C887   O916    1.219   .     D
C888   O917    1.220   .     D
C888   C896    1.499   .     S
C888   H1087   1.086   .     S
C889   C897    1.499   .     S
C889   O918    1.221   .     D
C890   H903    1.085   .     S
C890   N913    1.412   .     S
C890   O919    1.219   .     D
C891   C894    1.394   .     A
C892   N914    1.413   .     S
C892   H904    1.084   .     S
C892   O920    1.218   .     D
C893   C895    1.394   .     A
C894   H899    1.085   .     S
C895   H905    1.086   .     S
C895   C325    1.387   1_556 S
C896   C1021   1.362   .     S
C897   C586    1.362   1_655 S
C898   O926    1.305   .     A
H902   C1075   1.085   .     S
H909   C751    1.083   1_655 S
H910   C749    1.084   1_655 S
N913   N914    1.295   .     D
N913   Zn930   2.036   .     S
N914   Zn929   2.036   .     S
O915   Zn929   1.959   .     S
O915   C745    1.277   1_655 S
O921   Zn930   1.959   .     S
O922   Zn930   1.980   .     S
O923   Zn929   1.980   .     S
O924   Zn929   1.961   .     S
O924   C774    1.297   1_655 S
O925   Zn930   1.961   .     S
O926   Zn930   1.917   .     S
O927   Zn929   1.917   .     S
C931   O984    1.300   .     A
C931   C958    1.411   .     S
C931   O1101   1.277   1_455 S
C932   C934    1.448   .     S
C932   O989    1.306   .     A
C932   O1049   1.295   .     S
C933   C960    1.449   .     S
C933   C939    1.386   .     A
C933   C937    1.399   .     A
C934   C938    1.400   .     A
C934   C940    1.382   .     A
C935   C944    1.405   .     A
C935   C937    1.392   .     A
C935   H1096   1.084   1_455 S
C936   C938    1.394   .     A
C936   C945    1.405   .     A
C936   H1035   1.084   .     S
C937   H1095   1.083   1_455 S
C938   H1032   1.083   .     S
C939   C941    1.393   .     A
C939   H969    1.080   .     S
C940   H968    1.081   .     S
C940   C943    1.391   .     A
C941   C946    1.421   .     A
C941   C944    1.416   .     A
C942   C959    1.410   .     S
C942   O985    1.300   .     A
C942   O1045   1.277   .     S
C943   C947    1.417   .     A
C943   C945    1.414   .     A
C944   C398    1.386   1_556 S
C946   C955    1.436   .     A
C946   C389    1.421   1_556 S
C947   C953    1.432   .     A
C948   H974    1.083   .     S
C948   O990    1.219   .     D
C948   C953    1.482   .     S
C949   H962    1.084   .     S
C949   C955    1.479   .     S
C949   O978    1.219   .     D
C950   O979    1.220   .     D
C950   C958    1.499   .     S
C950   H591    1.086   1_565 S
C951   C959    1.499   .     S
C951   O980    1.221   .     D
C952   H965    1.085   .     S
C952   N975    1.412   .     S
C952   O981    1.219   .     D
C953   C956    1.394   .     A
C954   N976    1.413   .     S
C954   H966    1.084   .     S
C954   O982    1.218   .     D
C955   C957    1.394   .     A
C956   H961    1.085   .     S
C957   H967    1.086   .     S
C957   C387    1.387   1_556 S
C958   C711    1.362   1_465 S
C960   O988    1.305   .     A
C960   O1110   1.297   1_455 S
H964   C579    1.085   1_565 S
H970   C1062   1.083   1_455 S
H971   C999    1.083   .     S
H972   C997    1.084   .     S
H973   C1060   1.084   1_455 S
N975   N976    1.295   .     D
N975   Zn992   2.036   .     S
N976   Zn991   2.036   .     S
O977   Zn991   1.959   .     S
O977   C993    1.277   .     S
O983   Zn992   1.959   .     S
O983   C1066   1.277   1_455 S
O984   Zn992   1.980   .     S
O985   Zn991   1.980   .     S
O986   Zn991   1.961   .     S
O986   C1022   1.297   .     S
O987   Zn992   1.961   .     S
O987   C1056   1.295   1_455 S
O988   Zn992   1.917   .     S
O989   Zn991   1.917   .     S
C993   O1046   1.300   .     A
C993   C1020   1.411   .     S
C994   C996    1.448   .     S
C994   O1051   1.306   .     A
C994   O1111   1.295   .     S
C995   C1022   1.449   .     S
C995   C1001   1.386   .     A
C995   C999    1.399   .     A
C996   C1000   1.400   .     A
C996   C1002   1.382   .     A
C997   C1006   1.405   .     A
C997   C999    1.392   .     A
C998   C1000   1.394   .     A
C998   C1007   1.405   .     A
C998   H1097   1.084   .     S
C1000  H1094   1.083   .     S
C1001  C1003   1.393   .     A
C1001  H1031   1.080   .     S
C1002  H1030   1.081   .     S
C1002  C1005   1.391   .     A
C1003  C1008   1.421   .     A
C1003  C1006   1.416   .     A
C1004  C1021   1.410   .     S
C1004  O1047   1.300   .     A
C1004  O1107   1.277   .     S
C1005  C1009   1.417   .     A
C1005  C1007   1.414   .     A
C1006  C460    1.386   1_556 S
C1008  C1017   1.436   .     A
C1008  C451    1.421   1_556 S
C1009  C1015   1.432   .     A
C1010  H1036   1.083   .     S
C1010  O1052   1.219   .     D
C1010  C1015   1.482   .     S
C1011  H1024   1.084   .     S
C1011  C1017   1.479   .     S
C1011  O1040   1.219   .     D
C1012  O1041   1.220   .     D
C1012  C1020   1.499   .     S
C1012  H653    1.086   1_565 S
C1013  C1021   1.499   .     S
C1013  O1042   1.221   .     D
C1014  H1027   1.085   .     S
C1014  N1037   1.412   .     S
C1014  O1043   1.219   .     D
C1015  C1018   1.394   .     A
C1016  N1038   1.413   .     S
C1016  H1028   1.084   .     S
C1016  O1044   1.218   .     D
C1017  C1019   1.394   .     A
C1018  H1023   1.085   .     S
C1019  H1029   1.086   .     S
C1019  C449    1.387   1_556 S
C1020  C587    1.362   1_565 S
C1022  O1050   1.305   .     A
H1026  C641    1.085   1_565 S
H1033  C1061   1.083   .     S
H1034  C1059   1.084   .     S
N1037  N1038   1.295   .     D
N1037  Zn1054  2.036   .     S
N1038  Zn1053  2.036   .     S
O1039  Zn1053  1.959   .     S
O1039  C1055   1.277   .     S
O1045  Zn1054  1.959   .     S
O1046  Zn1054  1.980   .     S
O1047  Zn1053  1.980   .     S
O1048  Zn1053  1.961   .     S
O1048  C1084   1.297   .     S
O1049  Zn1054  1.961   .     S
O1050  Zn1054  1.917   .     S
O1051  Zn1053  1.917   .     S
C1055  O1108   1.300   .     A
C1055  C1082   1.411   .     S
C1056  C1058   1.448   .     S
C1056  O1113   1.306   .     A
C1056  O987    1.295   1_655 S
C1057  C1084   1.449   .     S
C1057  C1063   1.386   .     A
C1057  C1061   1.399   .     A
C1058  C1062   1.400   .     A
C1058  C1064   1.382   .     A
C1059  C1068   1.405   .     A
C1059  C1061   1.392   .     A
C1060  C1062   1.394   .     A
C1060  C1069   1.405   .     A
C1060  H973    1.084   1_655 S
C1062  H970    1.083   1_655 S
C1063  C1065   1.393   .     A
C1063  H1093   1.080   .     S
C1064  H1092   1.081   .     S
C1064  C1067   1.391   .     A
C1065  C1070   1.421   .     A
C1065  C1068   1.416   .     A
C1066  C1083   1.410   .     S
C1066  O1109   1.300   .     A
C1066  O983    1.277   1_655 S
C1067  C1071   1.417   .     A
C1067  C1069   1.414   .     A
C1068  C522    1.386   1_556 S
C1070  C1079   1.436   .     A
C1070  C513    1.421   1_556 S
C1071  C1077   1.432   .     A
C1072  H1098   1.083   .     S
C1072  O1114   1.219   .     D
C1072  C1077   1.482   .     S
C1073  H1086   1.084   .     S
C1073  C1079   1.479   .     S
C1073  O1102   1.219   .     D
C1074  O1103   1.220   .     D
C1074  C1082   1.499   .     S
C1074  H715    1.086   1_565 S
C1075  C1083   1.499   .     S
C1075  O1104   1.221   .     D
C1076  H1089   1.085   .     S
C1076  N1099   1.412   .     S
C1076  O1105   1.219   .     D
C1077  C1080   1.394   .     A
C1078  N1100   1.413   .     S
C1078  H1090   1.084   .     S
C1078  O1106   1.218   .     D
C1079  C1081   1.394   .     A
C1080  H1085   1.085   .     S
C1081  H1091   1.086   .     S
C1081  C511    1.387   1_556 S
C1082  C649    1.362   1_565 S
C1083  C772    1.362   1_655 S
C1084  O1112   1.305   .     A
H1088  C703    1.085   1_565 S
H1095  C937    1.083   1_655 S
H1096  C935    1.084   1_655 S
N1099  N1100   1.295   .     D
N1099  Zn1116  2.036   .     S
N1100  Zn1115  2.036   .     S
O1101  Zn1115  1.959   .     S
O1101  C931    1.277   1_655 S
O1107  Zn1116  1.959   .     S
O1108  Zn1116  1.980   .     S
O1109  Zn1115  1.980   .     S
O1110  Zn1115  1.961   .     S
O1110  C960    1.297   1_655 S
O1111  Zn1116  1.961   .     S
O1112  Zn1116  1.917   .     S
O1113  Zn1115  1.917   .     S
