data_str_m3_o10_o18_pcu_sym.53
_audit_creation_date              2020-01-03
_audit_creation_method            'Materials Studio'
_symmetry_space_group_name_H-M    'P1'
_symmetry_Int_Tables_number       1
_symmetry_cell_setting            triclinic
loop_
_symmetry_equiv_pos_as_xyz
  x,y,z
_cell_length_a                    23.4206
_cell_length_b                    25.6990
_cell_length_c                    27.1039
_cell_angle_alpha                 92.5819
_cell_angle_beta                  92.3087
_cell_angle_gamma                 94.2277
loop_
_atom_site_label
_atom_site_type_symbol
_atom_site_fract_x
_atom_site_fract_y
_atom_site_fract_z
_atom_site_U_iso_or_equiv
_atom_site_adp_type
_atom_site_occupancy
C1     C     0.01480   0.26490   0.24821   0.00000  Uiso   1.00
C2     C     0.31263   0.16195   0.15836   0.00000  Uiso   1.00
C3     C     0.03011   0.17864   0.39520   0.00000  Uiso   1.00
C4     C     0.30322   0.15470   0.10480   0.00000  Uiso   1.00
C5     C     0.02363   0.23096   0.47099   0.00000  Uiso   1.00
C6     C     0.30970   0.10238   0.02901   0.00000  Uiso   1.00
C7     C     0.00030   0.21378   0.42441   0.00000  Uiso   1.00
C8     C     0.33304   0.11956   0.07559   0.00000  Uiso   1.00
C9     C     0.07656   0.15538   0.41600   0.00000  Uiso   1.00
C10    C     0.25678   0.17796   0.08400   0.00000  Uiso   1.00
C11    C     0.09864   0.17056   0.46338   0.00000  Uiso   1.00
C12    C     0.31853   0.06843   0.25179   0.00000  Uiso   1.00
C13    C     0.23469   0.16279   0.03661   0.00000  Uiso   1.00
C14    C     0.07538   0.21304   0.48837   0.00000  Uiso   1.00
C15    C     0.25795   0.12031   0.01163   0.00000  Uiso   1.00
C16    C     0.14960   0.15108   0.48194   0.00000  Uiso   1.00
C17    C     0.18373   0.18226   0.01806   0.00000  Uiso   1.00
C18    C     0.16471   0.23088   0.03521   0.00000  Uiso   1.00
C19    C     0.16862   0.10246   0.46479   0.00000  Uiso   1.00
C20    C     0.10846   0.24236   0.02498   0.00000  Uiso   1.00
C21    C     0.22487   0.09098   0.47502   0.00000  Uiso   1.00
C22    C     0.02260   0.31918   0.25528   0.00000  Uiso   1.00
C23    C     0.31073   0.01415   0.24472   0.00000  Uiso   1.00
C24    C     0.02071   0.17138   0.34164   0.00000  Uiso   1.00
H25    H     0.09383   0.27866   0.03990   0.00000  Uiso   1.00
H26    H     0.23949   0.05468   0.46010   0.00000  Uiso   1.00
H27    H     0.23350   0.20328   0.10750   0.00000  Uiso   1.00
H28    H     0.09983   0.13006   0.39251   0.00000  Uiso   1.00
H29    H     0.00437   0.26195   0.49133   0.00000  Uiso   1.00
H30    H     0.32896   0.07140   0.00866   0.00000  Uiso   1.00
H31    H     0.16269   0.12455   0.21396   0.00000  Uiso   1.00
H32    H     0.17065   0.20878   0.28604   0.00000  Uiso   1.00
I33    I     0.07344   0.08293   0.10050   0.00000  Uiso   1.00
I34    I     0.25988   0.25040   0.39949   0.00000  Uiso   1.00
I35    I     0.22107   0.29664   0.06030   0.00000  Uiso   1.00
I36    I     0.11226   0.03670   0.43972   0.00000  Uiso   1.00
I37    I     0.10120   0.01161   0.29630   0.00000  Uiso   1.00
I38    I     0.23213   0.32172   0.20369   0.00000  Uiso   1.00
N39    N     0.14695   0.15216   0.23739   0.00000  Uiso   1.00
N40    N     0.18638   0.18117   0.26260   0.00000  Uiso   1.00
O41    O     0.29719   0.24631   0.25310   0.00000  Uiso   1.00
O42    O     0.03614   0.08702   0.24690   0.00000  Uiso   1.00
O43    O     0.05822   0.23702   0.24501   0.00000  Uiso   1.00
O44    O     0.27512   0.09632   0.25498   0.00000  Uiso   1.00
O45    O     0.30328   0.17397   0.32247   0.00000  Uiso   1.00
O46    O     0.03005   0.15937   0.17753   0.00000  Uiso   1.00
O47    O     0.06431   0.16467   0.31439   0.00000  Uiso   1.00
O48    O     0.26902   0.16866   0.18561   0.00000  Uiso   1.00
Zn49   Zn    0.27033   0.17287   0.25539   0.00000  Uiso   1.00
Zn50   Zn    0.06300   0.16046   0.24460   0.00000  Uiso   1.00
C51    C     0.34813   0.26490   0.24821   0.00000  Uiso   1.00
C52    C     0.64596   0.16195   0.15836   0.00000  Uiso   1.00
C53    C     0.36345   0.17864   0.39520   0.00000  Uiso   1.00
C54    C     0.63655   0.15470   0.10480   0.00000  Uiso   1.00
C55    C     0.35697   0.23096   0.47099   0.00000  Uiso   1.00
C56    C     0.64303   0.10238   0.02901   0.00000  Uiso   1.00
C57    C     0.33363   0.21378   0.42441   0.00000  Uiso   1.00
C58    C     0.66637   0.11956   0.07559   0.00000  Uiso   1.00
C59    C     0.40989   0.15538   0.41600   0.00000  Uiso   1.00
C60    C     0.59011   0.17796   0.08400   0.00000  Uiso   1.00
C61    C     0.43197   0.17056   0.46338   0.00000  Uiso   1.00
C62    C     0.65186   0.06843   0.25179   0.00000  Uiso   1.00
C63    C     0.56803   0.16279   0.03661   0.00000  Uiso   1.00
C64    C     0.40872   0.21304   0.48837   0.00000  Uiso   1.00
C65    C     0.59128   0.12031   0.01163   0.00000  Uiso   1.00
C66    C     0.48293   0.15108   0.48194   0.00000  Uiso   1.00
C67    C     0.51707   0.18226   0.01806   0.00000  Uiso   1.00
C68    C     0.49804   0.23088   0.03521   0.00000  Uiso   1.00
C69    C     0.50196   0.10246   0.46479   0.00000  Uiso   1.00
C70    C     0.44179   0.24236   0.02498   0.00000  Uiso   1.00
C71    C     0.55820   0.09098   0.47502   0.00000  Uiso   1.00
C72    C     0.35593   0.31918   0.25528   0.00000  Uiso   1.00
C73    C     0.64407   0.01415   0.24472   0.00000  Uiso   1.00
C74    C     0.35404   0.17138   0.34164   0.00000  Uiso   1.00
H75    H     0.42717   0.27866   0.03990   0.00000  Uiso   1.00
H76    H     0.57283   0.05468   0.46010   0.00000  Uiso   1.00
H77    H     0.56684   0.20328   0.10750   0.00000  Uiso   1.00
H78    H     0.43316   0.13006   0.39251   0.00000  Uiso   1.00
H79    H     0.33771   0.26195   0.49133   0.00000  Uiso   1.00
H80    H     0.66229   0.07140   0.00866   0.00000  Uiso   1.00
H81    H     0.49602   0.12455   0.21396   0.00000  Uiso   1.00
H82    H     0.50398   0.20878   0.28604   0.00000  Uiso   1.00
I83    I     0.40678   0.08293   0.10050   0.00000  Uiso   1.00
I84    I     0.59322   0.25040   0.39949   0.00000  Uiso   1.00
I85    I     0.55440   0.29664   0.06030   0.00000  Uiso   1.00
I86    I     0.44559   0.03670   0.43972   0.00000  Uiso   1.00
I87    I     0.43453   0.01161   0.29630   0.00000  Uiso   1.00
I88    I     0.56546   0.32172   0.20369   0.00000  Uiso   1.00
N89    N     0.48029   0.15216   0.23739   0.00000  Uiso   1.00
N90    N     0.51971   0.18117   0.26260   0.00000  Uiso   1.00
O91    O     0.63052   0.24631   0.25310   0.00000  Uiso   1.00
O92    O     0.36948   0.08702   0.24690   0.00000  Uiso   1.00
O93    O     0.39155   0.23702   0.24501   0.00000  Uiso   1.00
O94    O     0.60845   0.09632   0.25498   0.00000  Uiso   1.00
O95    O     0.63662   0.17397   0.32247   0.00000  Uiso   1.00
O96    O     0.36338   0.15937   0.17753   0.00000  Uiso   1.00
O97    O     0.39764   0.16467   0.31439   0.00000  Uiso   1.00
O98    O     0.60236   0.16866   0.18561   0.00000  Uiso   1.00
Zn99   Zn    0.60366   0.17287   0.25539   0.00000  Uiso   1.00
Zn100  Zn    0.39634   0.16046   0.24460   0.00000  Uiso   1.00
C101   C     0.68147   0.26490   0.24821   0.00000  Uiso   1.00
C102   C     0.97929   0.16195   0.15836   0.00000  Uiso   1.00
C103   C     0.69678   0.17864   0.39520   0.00000  Uiso   1.00
C104   C     0.96989   0.15470   0.10480   0.00000  Uiso   1.00
C105   C     0.69030   0.23096   0.47099   0.00000  Uiso   1.00
C106   C     0.97637   0.10238   0.02901   0.00000  Uiso   1.00
C107   C     0.66696   0.21378   0.42441   0.00000  Uiso   1.00
C108   C     0.99970   0.11956   0.07559   0.00000  Uiso   1.00
C109   C     0.74322   0.15538   0.41600   0.00000  Uiso   1.00
C110   C     0.92345   0.17796   0.08400   0.00000  Uiso   1.00
C111   C     0.76531   0.17056   0.46338   0.00000  Uiso   1.00
C112   C     0.98520   0.06843   0.25179   0.00000  Uiso   1.00
C113   C     0.90136   0.16279   0.03661   0.00000  Uiso   1.00
C114   C     0.74205   0.21304   0.48837   0.00000  Uiso   1.00
C115   C     0.92462   0.12031   0.01163   0.00000  Uiso   1.00
C116   C     0.81627   0.15108   0.48194   0.00000  Uiso   1.00
C117   C     0.85040   0.18226   0.01806   0.00000  Uiso   1.00
C118   C     0.83137   0.23088   0.03521   0.00000  Uiso   1.00
C119   C     0.83529   0.10246   0.46479   0.00000  Uiso   1.00
C120   C     0.77513   0.24236   0.02498   0.00000  Uiso   1.00
C121   C     0.89154   0.09098   0.47502   0.00000  Uiso   1.00
C122   C     0.68927   0.31918   0.25528   0.00000  Uiso   1.00
C123   C     0.97740   0.01415   0.24472   0.00000  Uiso   1.00
C124   C     0.68737   0.17138   0.34164   0.00000  Uiso   1.00
H125   H     0.76050   0.27866   0.03990   0.00000  Uiso   1.00
H126   H     0.90616   0.05468   0.46010   0.00000  Uiso   1.00
H127   H     0.90017   0.20328   0.10750   0.00000  Uiso   1.00
H128   H     0.76650   0.13006   0.39251   0.00000  Uiso   1.00
H129   H     0.67104   0.26195   0.49133   0.00000  Uiso   1.00
H130   H     0.99562   0.07140   0.00866   0.00000  Uiso   1.00
H131   H     0.82935   0.12455   0.21396   0.00000  Uiso   1.00
H132   H     0.83731   0.20878   0.28604   0.00000  Uiso   1.00
I133   I     0.74011   0.08293   0.10050   0.00000  Uiso   1.00
I134   I     0.92655   0.25040   0.39949   0.00000  Uiso   1.00
I135   I     0.88774   0.29664   0.06030   0.00000  Uiso   1.00
I136   I     0.77892   0.03670   0.43972   0.00000  Uiso   1.00
I137   I     0.76787   0.01161   0.29630   0.00000  Uiso   1.00
I138   I     0.89880   0.32172   0.20369   0.00000  Uiso   1.00
N139   N     0.81362   0.15216   0.23739   0.00000  Uiso   1.00
N140   N     0.85305   0.18117   0.26260   0.00000  Uiso   1.00
O141   O     0.96386   0.24631   0.25310   0.00000  Uiso   1.00
O142   O     0.70281   0.08702   0.24690   0.00000  Uiso   1.00
O143   O     0.72488   0.23702   0.24501   0.00000  Uiso   1.00
O144   O     0.94178   0.09632   0.25498   0.00000  Uiso   1.00
O145   O     0.96995   0.17397   0.32247   0.00000  Uiso   1.00
O146   O     0.69672   0.15937   0.17753   0.00000  Uiso   1.00
O147   O     0.73098   0.16467   0.31439   0.00000  Uiso   1.00
O148   O     0.93569   0.16866   0.18561   0.00000  Uiso   1.00
Zn149  Zn    0.93700   0.17287   0.25539   0.00000  Uiso   1.00
Zn150  Zn    0.72967   0.16046   0.24460   0.00000  Uiso   1.00
C151   C     0.01480   0.59823   0.24821   0.00000  Uiso   1.00
C152   C     0.31263   0.49529   0.15836   0.00000  Uiso   1.00
C153   C     0.03011   0.51197   0.39520   0.00000  Uiso   1.00
C154   C     0.30322   0.48804   0.10480   0.00000  Uiso   1.00
C155   C     0.02363   0.56429   0.47099   0.00000  Uiso   1.00
C156   C     0.30970   0.43572   0.02901   0.00000  Uiso   1.00
C157   C     0.00030   0.54711   0.42441   0.00000  Uiso   1.00
C158   C     0.33304   0.45289   0.07559   0.00000  Uiso   1.00
C159   C     0.07656   0.48872   0.41600   0.00000  Uiso   1.00
C160   C     0.25678   0.51129   0.08400   0.00000  Uiso   1.00
C161   C     0.09864   0.50389   0.46338   0.00000  Uiso   1.00
C162   C     0.31853   0.40177   0.25179   0.00000  Uiso   1.00
C163   C     0.23469   0.49612   0.03661   0.00000  Uiso   1.00
C164   C     0.07538   0.54637   0.48837   0.00000  Uiso   1.00
C165   C     0.25795   0.45364   0.01163   0.00000  Uiso   1.00
C166   C     0.14960   0.48442   0.48194   0.00000  Uiso   1.00
C167   C     0.18373   0.51560   0.01806   0.00000  Uiso   1.00
C168   C     0.16471   0.56422   0.03521   0.00000  Uiso   1.00
C169   C     0.16862   0.43579   0.46479   0.00000  Uiso   1.00
C170   C     0.10846   0.57569   0.02498   0.00000  Uiso   1.00
C171   C     0.22487   0.42432   0.47502   0.00000  Uiso   1.00
C172   C     0.02260   0.65251   0.25528   0.00000  Uiso   1.00
C173   C     0.31073   0.34749   0.24472   0.00000  Uiso   1.00
C174   C     0.02071   0.50471   0.34164   0.00000  Uiso   1.00
H175   H     0.09383   0.61199   0.03990   0.00000  Uiso   1.00
H176   H     0.23949   0.38801   0.46010   0.00000  Uiso   1.00
H177   H     0.23350   0.53661   0.10750   0.00000  Uiso   1.00
H178   H     0.09983   0.46339   0.39251   0.00000  Uiso   1.00
H179   H     0.00437   0.59528   0.49133   0.00000  Uiso   1.00
H180   H     0.32896   0.40473   0.00866   0.00000  Uiso   1.00
H181   H     0.16269   0.45788   0.21396   0.00000  Uiso   1.00
H182   H     0.17065   0.54212   0.28604   0.00000  Uiso   1.00
I183   I     0.07344   0.41626   0.10050   0.00000  Uiso   1.00
I184   I     0.25988   0.58374   0.39949   0.00000  Uiso   1.00
I185   I     0.22107   0.62998   0.06030   0.00000  Uiso   1.00
I186   I     0.11226   0.37004   0.43972   0.00000  Uiso   1.00
I187   I     0.10120   0.34495   0.29630   0.00000  Uiso   1.00
I188   I     0.23213   0.65505   0.20369   0.00000  Uiso   1.00
N189   N     0.14695   0.48550   0.23739   0.00000  Uiso   1.00
N190   N     0.18638   0.51450   0.26260   0.00000  Uiso   1.00
O191   O     0.29719   0.57964   0.25310   0.00000  Uiso   1.00
O192   O     0.03614   0.42036   0.24690   0.00000  Uiso   1.00
O193   O     0.05822   0.57035   0.24501   0.00000  Uiso   1.00
O194   O     0.27512   0.42965   0.25498   0.00000  Uiso   1.00
O195   O     0.30328   0.50730   0.32247   0.00000  Uiso   1.00
O196   O     0.03005   0.49270   0.17753   0.00000  Uiso   1.00
O197   O     0.06431   0.49801   0.31439   0.00000  Uiso   1.00
O198   O     0.26902   0.50199   0.18561   0.00000  Uiso   1.00
Zn199  Zn    0.27033   0.50621   0.25539   0.00000  Uiso   1.00
Zn200  Zn    0.06300   0.49379   0.24460   0.00000  Uiso   1.00
C201   C     0.34813   0.59823   0.24821   0.00000  Uiso   1.00
C202   C     0.64596   0.49529   0.15836   0.00000  Uiso   1.00
C203   C     0.36345   0.51197   0.39520   0.00000  Uiso   1.00
C204   C     0.63655   0.48804   0.10480   0.00000  Uiso   1.00
C205   C     0.35697   0.56429   0.47099   0.00000  Uiso   1.00
C206   C     0.64303   0.43572   0.02901   0.00000  Uiso   1.00
C207   C     0.33363   0.54711   0.42441   0.00000  Uiso   1.00
C208   C     0.66637   0.45289   0.07559   0.00000  Uiso   1.00
C209   C     0.40989   0.48872   0.41600   0.00000  Uiso   1.00
C210   C     0.59011   0.51129   0.08400   0.00000  Uiso   1.00
C211   C     0.43197   0.50389   0.46338   0.00000  Uiso   1.00
C212   C     0.65186   0.40177   0.25179   0.00000  Uiso   1.00
C213   C     0.56803   0.49612   0.03661   0.00000  Uiso   1.00
C214   C     0.40872   0.54637   0.48837   0.00000  Uiso   1.00
C215   C     0.59128   0.45364   0.01163   0.00000  Uiso   1.00
C216   C     0.48293   0.48442   0.48194   0.00000  Uiso   1.00
C217   C     0.51707   0.51560   0.01806   0.00000  Uiso   1.00
C218   C     0.49804   0.56422   0.03521   0.00000  Uiso   1.00
C219   C     0.50196   0.43579   0.46479   0.00000  Uiso   1.00
C220   C     0.44179   0.57569   0.02498   0.00000  Uiso   1.00
C221   C     0.55820   0.42432   0.47502   0.00000  Uiso   1.00
C222   C     0.35593   0.65251   0.25528   0.00000  Uiso   1.00
C223   C     0.64407   0.34749   0.24472   0.00000  Uiso   1.00
C224   C     0.35404   0.50471   0.34164   0.00000  Uiso   1.00
H225   H     0.42717   0.61199   0.03990   0.00000  Uiso   1.00
H226   H     0.57283   0.38801   0.46010   0.00000  Uiso   1.00
H227   H     0.56684   0.53661   0.10750   0.00000  Uiso   1.00
H228   H     0.43316   0.46339   0.39251   0.00000  Uiso   1.00
H229   H     0.33771   0.59528   0.49133   0.00000  Uiso   1.00
H230   H     0.66229   0.40473   0.00866   0.00000  Uiso   1.00
H231   H     0.49602   0.45788   0.21396   0.00000  Uiso   1.00
H232   H     0.50398   0.54212   0.28604   0.00000  Uiso   1.00
I233   I     0.40678   0.41626   0.10050   0.00000  Uiso   1.00
I234   I     0.59322   0.58374   0.39949   0.00000  Uiso   1.00
I235   I     0.55440   0.62998   0.06030   0.00000  Uiso   1.00
I236   I     0.44559   0.37004   0.43972   0.00000  Uiso   1.00
I237   I     0.43453   0.34495   0.29630   0.00000  Uiso   1.00
I238   I     0.56546   0.65505   0.20369   0.00000  Uiso   1.00
N239   N     0.48029   0.48550   0.23739   0.00000  Uiso   1.00
N240   N     0.51971   0.51450   0.26260   0.00000  Uiso   1.00
O241   O     0.63052   0.57964   0.25310   0.00000  Uiso   1.00
O242   O     0.36948   0.42036   0.24690   0.00000  Uiso   1.00
O243   O     0.39155   0.57035   0.24501   0.00000  Uiso   1.00
O244   O     0.60845   0.42965   0.25498   0.00000  Uiso   1.00
O245   O     0.63662   0.50730   0.32247   0.00000  Uiso   1.00
O246   O     0.36338   0.49270   0.17753   0.00000  Uiso   1.00
O247   O     0.39764   0.49801   0.31439   0.00000  Uiso   1.00
O248   O     0.60236   0.50199   0.18561   0.00000  Uiso   1.00
Zn249  Zn    0.60366   0.50621   0.25539   0.00000  Uiso   1.00
Zn250  Zn    0.39634   0.49379   0.24460   0.00000  Uiso   1.00
C251   C     0.68147   0.59823   0.24821   0.00000  Uiso   1.00
C252   C     0.97929   0.49529   0.15836   0.00000  Uiso   1.00
C253   C     0.69678   0.51197   0.39520   0.00000  Uiso   1.00
C254   C     0.96989   0.48804   0.10480   0.00000  Uiso   1.00
C255   C     0.69030   0.56429   0.47099   0.00000  Uiso   1.00
C256   C     0.97637   0.43572   0.02901   0.00000  Uiso   1.00
C257   C     0.66696   0.54711   0.42441   0.00000  Uiso   1.00
C258   C     0.99970   0.45289   0.07559   0.00000  Uiso   1.00
C259   C     0.74322   0.48872   0.41600   0.00000  Uiso   1.00
C260   C     0.92345   0.51129   0.08400   0.00000  Uiso   1.00
C261   C     0.76531   0.50389   0.46338   0.00000  Uiso   1.00
C262   C     0.98520   0.40177   0.25179   0.00000  Uiso   1.00
C263   C     0.90136   0.49612   0.03661   0.00000  Uiso   1.00
C264   C     0.74205   0.54637   0.48837   0.00000  Uiso   1.00
C265   C     0.92462   0.45364   0.01163   0.00000  Uiso   1.00
C266   C     0.81627   0.48442   0.48194   0.00000  Uiso   1.00
C267   C     0.85040   0.51560   0.01806   0.00000  Uiso   1.00
C268   C     0.83137   0.56422   0.03521   0.00000  Uiso   1.00
C269   C     0.83529   0.43579   0.46479   0.00000  Uiso   1.00
C270   C     0.77513   0.57569   0.02498   0.00000  Uiso   1.00
C271   C     0.89154   0.42432   0.47502   0.00000  Uiso   1.00
C272   C     0.68927   0.65251   0.25528   0.00000  Uiso   1.00
C273   C     0.97740   0.34749   0.24472   0.00000  Uiso   1.00
C274   C     0.68737   0.50471   0.34164   0.00000  Uiso   1.00
H275   H     0.76050   0.61199   0.03990   0.00000  Uiso   1.00
H276   H     0.90616   0.38801   0.46010   0.00000  Uiso   1.00
H277   H     0.90017   0.53661   0.10750   0.00000  Uiso   1.00
H278   H     0.76650   0.46339   0.39251   0.00000  Uiso   1.00
H279   H     0.67104   0.59528   0.49133   0.00000  Uiso   1.00
H280   H     0.99562   0.40473   0.00866   0.00000  Uiso   1.00
H281   H     0.82935   0.45788   0.21396   0.00000  Uiso   1.00
H282   H     0.83731   0.54212   0.28604   0.00000  Uiso   1.00
I283   I     0.74011   0.41626   0.10050   0.00000  Uiso   1.00
I284   I     0.92655   0.58374   0.39949   0.00000  Uiso   1.00
I285   I     0.88774   0.62998   0.06030   0.00000  Uiso   1.00
I286   I     0.77892   0.37004   0.43972   0.00000  Uiso   1.00
I287   I     0.76787   0.34495   0.29630   0.00000  Uiso   1.00
I288   I     0.89880   0.65505   0.20369   0.00000  Uiso   1.00
N289   N     0.81362   0.48550   0.23739   0.00000  Uiso   1.00
N290   N     0.85305   0.51450   0.26260   0.00000  Uiso   1.00
O291   O     0.96386   0.57964   0.25310   0.00000  Uiso   1.00
O292   O     0.70281   0.42036   0.24690   0.00000  Uiso   1.00
O293   O     0.72488   0.57035   0.24501   0.00000  Uiso   1.00
O294   O     0.94178   0.42965   0.25498   0.00000  Uiso   1.00
O295   O     0.96995   0.50730   0.32247   0.00000  Uiso   1.00
O296   O     0.69672   0.49270   0.17753   0.00000  Uiso   1.00
O297   O     0.73098   0.49801   0.31439   0.00000  Uiso   1.00
O298   O     0.93569   0.50199   0.18561   0.00000  Uiso   1.00
Zn299  Zn    0.93700   0.50621   0.25539   0.00000  Uiso   1.00
Zn300  Zn    0.72967   0.49379   0.24460   0.00000  Uiso   1.00
C301   C     0.01480   0.93157   0.24821   0.00000  Uiso   1.00
C302   C     0.31263   0.82862   0.15836   0.00000  Uiso   1.00
C303   C     0.03011   0.84530   0.39520   0.00000  Uiso   1.00
C304   C     0.30322   0.82137   0.10480   0.00000  Uiso   1.00
C305   C     0.02363   0.89763   0.47099   0.00000  Uiso   1.00
C306   C     0.30970   0.76905   0.02901   0.00000  Uiso   1.00
C307   C     0.00030   0.88045   0.42441   0.00000  Uiso   1.00
C308   C     0.33304   0.78623   0.07559   0.00000  Uiso   1.00
C309   C     0.07656   0.82205   0.41600   0.00000  Uiso   1.00
C310   C     0.25678   0.84462   0.08400   0.00000  Uiso   1.00
C311   C     0.09864   0.83723   0.46338   0.00000  Uiso   1.00
C312   C     0.31853   0.73510   0.25179   0.00000  Uiso   1.00
C313   C     0.23469   0.82945   0.03661   0.00000  Uiso   1.00
C314   C     0.07538   0.87971   0.48837   0.00000  Uiso   1.00
C315   C     0.25795   0.78697   0.01163   0.00000  Uiso   1.00
C316   C     0.14960   0.81775   0.48194   0.00000  Uiso   1.00
C317   C     0.18373   0.84893   0.01806   0.00000  Uiso   1.00
C318   C     0.16471   0.89755   0.03521   0.00000  Uiso   1.00
C319   C     0.16862   0.76912   0.46479   0.00000  Uiso   1.00
C320   C     0.10846   0.90902   0.02498   0.00000  Uiso   1.00
C321   C     0.22487   0.75765   0.47502   0.00000  Uiso   1.00
C322   C     0.02260   0.98585   0.25528   0.00000  Uiso   1.00
C323   C     0.31073   0.68082   0.24472   0.00000  Uiso   1.00
C324   C     0.02071   0.83805   0.34164   0.00000  Uiso   1.00
H325   H     0.09383   0.94533   0.03990   0.00000  Uiso   1.00
H326   H     0.23949   0.72135   0.46010   0.00000  Uiso   1.00
H327   H     0.23350   0.86994   0.10750   0.00000  Uiso   1.00
H328   H     0.09983   0.79673   0.39251   0.00000  Uiso   1.00
H329   H     0.00437   0.92861   0.49133   0.00000  Uiso   1.00
H330   H     0.32896   0.73806   0.00866   0.00000  Uiso   1.00
H331   H     0.16269   0.79122   0.21396   0.00000  Uiso   1.00
H332   H     0.17065   0.87545   0.28604   0.00000  Uiso   1.00
I333   I     0.07344   0.74960   0.10050   0.00000  Uiso   1.00
I334   I     0.25988   0.91707   0.39949   0.00000  Uiso   1.00
I335   I     0.22107   0.96331   0.06030   0.00000  Uiso   1.00
I336   I     0.11226   0.70337   0.43972   0.00000  Uiso   1.00
I337   I     0.10120   0.67828   0.29630   0.00000  Uiso   1.00
I338   I     0.23213   0.98838   0.20369   0.00000  Uiso   1.00
N339   N     0.14695   0.81883   0.23739   0.00000  Uiso   1.00
N340   N     0.18638   0.84784   0.26260   0.00000  Uiso   1.00
O341   O     0.29719   0.91298   0.25310   0.00000  Uiso   1.00
O342   O     0.03614   0.75369   0.24690   0.00000  Uiso   1.00
O343   O     0.05822   0.90368   0.24501   0.00000  Uiso   1.00
O344   O     0.27512   0.76298   0.25498   0.00000  Uiso   1.00
O345   O     0.30328   0.84063   0.32247   0.00000  Uiso   1.00
O346   O     0.03005   0.82603   0.17753   0.00000  Uiso   1.00
O347   O     0.06431   0.83134   0.31439   0.00000  Uiso   1.00
O348   O     0.26902   0.83533   0.18561   0.00000  Uiso   1.00
Zn349  Zn    0.27033   0.83954   0.25539   0.00000  Uiso   1.00
Zn350  Zn    0.06300   0.82713   0.24460   0.00000  Uiso   1.00
C351   C     0.34813   0.93157   0.24821   0.00000  Uiso   1.00
C352   C     0.64596   0.82862   0.15836   0.00000  Uiso   1.00
C353   C     0.36345   0.84530   0.39520   0.00000  Uiso   1.00
C354   C     0.63655   0.82137   0.10480   0.00000  Uiso   1.00
C355   C     0.35697   0.89763   0.47099   0.00000  Uiso   1.00
C356   C     0.64303   0.76905   0.02901   0.00000  Uiso   1.00
C357   C     0.33363   0.88045   0.42441   0.00000  Uiso   1.00
C358   C     0.66637   0.78623   0.07559   0.00000  Uiso   1.00
C359   C     0.40989   0.82205   0.41600   0.00000  Uiso   1.00
C360   C     0.59011   0.84462   0.08400   0.00000  Uiso   1.00
C361   C     0.43197   0.83723   0.46338   0.00000  Uiso   1.00
C362   C     0.65186   0.73510   0.25179   0.00000  Uiso   1.00
C363   C     0.56803   0.82945   0.03661   0.00000  Uiso   1.00
C364   C     0.40872   0.87971   0.48837   0.00000  Uiso   1.00
C365   C     0.59128   0.78697   0.01163   0.00000  Uiso   1.00
C366   C     0.48293   0.81775   0.48194   0.00000  Uiso   1.00
C367   C     0.51707   0.84893   0.01806   0.00000  Uiso   1.00
C368   C     0.49804   0.89755   0.03521   0.00000  Uiso   1.00
C369   C     0.50196   0.76912   0.46479   0.00000  Uiso   1.00
C370   C     0.44179   0.90902   0.02498   0.00000  Uiso   1.00
C371   C     0.55820   0.75765   0.47502   0.00000  Uiso   1.00
C372   C     0.35593   0.98585   0.25528   0.00000  Uiso   1.00
C373   C     0.64407   0.68082   0.24472   0.00000  Uiso   1.00
C374   C     0.35404   0.83805   0.34164   0.00000  Uiso   1.00
H375   H     0.42717   0.94533   0.03990   0.00000  Uiso   1.00
H376   H     0.57283   0.72135   0.46010   0.00000  Uiso   1.00
H377   H     0.56684   0.86994   0.10750   0.00000  Uiso   1.00
H378   H     0.43316   0.79673   0.39251   0.00000  Uiso   1.00
H379   H     0.33771   0.92861   0.49133   0.00000  Uiso   1.00
H380   H     0.66229   0.73806   0.00866   0.00000  Uiso   1.00
H381   H     0.49602   0.79122   0.21396   0.00000  Uiso   1.00
H382   H     0.50398   0.87545   0.28604   0.00000  Uiso   1.00
I383   I     0.40678   0.74960   0.10050   0.00000  Uiso   1.00
I384   I     0.59322   0.91707   0.39949   0.00000  Uiso   1.00
I385   I     0.55440   0.96331   0.06030   0.00000  Uiso   1.00
I386   I     0.44559   0.70337   0.43972   0.00000  Uiso   1.00
I387   I     0.43453   0.67828   0.29630   0.00000  Uiso   1.00
I388   I     0.56546   0.98838   0.20369   0.00000  Uiso   1.00
N389   N     0.48029   0.81883   0.23739   0.00000  Uiso   1.00
N390   N     0.51971   0.84784   0.26260   0.00000  Uiso   1.00
O391   O     0.63052   0.91298   0.25310   0.00000  Uiso   1.00
O392   O     0.36948   0.75369   0.24690   0.00000  Uiso   1.00
O393   O     0.39155   0.90368   0.24501   0.00000  Uiso   1.00
O394   O     0.60845   0.76298   0.25498   0.00000  Uiso   1.00
O395   O     0.63662   0.84063   0.32247   0.00000  Uiso   1.00
O396   O     0.36338   0.82603   0.17753   0.00000  Uiso   1.00
O397   O     0.39764   0.83134   0.31439   0.00000  Uiso   1.00
O398   O     0.60236   0.83533   0.18561   0.00000  Uiso   1.00
Zn399  Zn    0.60366   0.83954   0.25539   0.00000  Uiso   1.00
Zn400  Zn    0.39634   0.82713   0.24460   0.00000  Uiso   1.00
C401   C     0.68147   0.93157   0.24821   0.00000  Uiso   1.00
C402   C     0.97929   0.82862   0.15836   0.00000  Uiso   1.00
C403   C     0.69678   0.84530   0.39520   0.00000  Uiso   1.00
C404   C     0.96989   0.82137   0.10480   0.00000  Uiso   1.00
C405   C     0.69030   0.89763   0.47099   0.00000  Uiso   1.00
C406   C     0.97637   0.76905   0.02901   0.00000  Uiso   1.00
C407   C     0.66696   0.88045   0.42441   0.00000  Uiso   1.00
C408   C     0.99970   0.78623   0.07559   0.00000  Uiso   1.00
C409   C     0.74322   0.82205   0.41600   0.00000  Uiso   1.00
C410   C     0.92345   0.84462   0.08400   0.00000  Uiso   1.00
C411   C     0.76531   0.83723   0.46338   0.00000  Uiso   1.00
C412   C     0.98520   0.73510   0.25179   0.00000  Uiso   1.00
C413   C     0.90136   0.82945   0.03661   0.00000  Uiso   1.00
C414   C     0.74205   0.87971   0.48837   0.00000  Uiso   1.00
C415   C     0.92462   0.78697   0.01163   0.00000  Uiso   1.00
C416   C     0.81627   0.81775   0.48194   0.00000  Uiso   1.00
C417   C     0.85040   0.84893   0.01806   0.00000  Uiso   1.00
C418   C     0.83137   0.89755   0.03521   0.00000  Uiso   1.00
C419   C     0.83529   0.76912   0.46479   0.00000  Uiso   1.00
C420   C     0.77513   0.90902   0.02498   0.00000  Uiso   1.00
C421   C     0.89154   0.75765   0.47502   0.00000  Uiso   1.00
C422   C     0.68927   0.98585   0.25528   0.00000  Uiso   1.00
C423   C     0.97740   0.68082   0.24472   0.00000  Uiso   1.00
C424   C     0.68737   0.83805   0.34164   0.00000  Uiso   1.00
H425   H     0.76050   0.94533   0.03990   0.00000  Uiso   1.00
H426   H     0.90616   0.72135   0.46010   0.00000  Uiso   1.00
H427   H     0.90017   0.86994   0.10750   0.00000  Uiso   1.00
H428   H     0.76650   0.79673   0.39251   0.00000  Uiso   1.00
H429   H     0.67104   0.92861   0.49133   0.00000  Uiso   1.00
H430   H     0.99562   0.73806   0.00866   0.00000  Uiso   1.00
H431   H     0.82935   0.79122   0.21396   0.00000  Uiso   1.00
H432   H     0.83731   0.87545   0.28604   0.00000  Uiso   1.00
I433   I     0.74011   0.74960   0.10050   0.00000  Uiso   1.00
I434   I     0.92655   0.91707   0.39949   0.00000  Uiso   1.00
I435   I     0.88774   0.96331   0.06030   0.00000  Uiso   1.00
I436   I     0.77892   0.70337   0.43972   0.00000  Uiso   1.00
I437   I     0.76787   0.67828   0.29630   0.00000  Uiso   1.00
I438   I     0.89880   0.98838   0.20369   0.00000  Uiso   1.00
N439   N     0.81362   0.81883   0.23739   0.00000  Uiso   1.00
N440   N     0.85305   0.84784   0.26260   0.00000  Uiso   1.00
O441   O     0.96386   0.91298   0.25310   0.00000  Uiso   1.00
O442   O     0.70281   0.75369   0.24690   0.00000  Uiso   1.00
O443   O     0.72488   0.90368   0.24501   0.00000  Uiso   1.00
O444   O     0.94178   0.76298   0.25498   0.00000  Uiso   1.00
O445   O     0.96995   0.84063   0.32247   0.00000  Uiso   1.00
O446   O     0.69672   0.82603   0.17753   0.00000  Uiso   1.00
O447   O     0.73098   0.83134   0.31439   0.00000  Uiso   1.00
O448   O     0.93569   0.83533   0.18561   0.00000  Uiso   1.00
Zn449  Zn    0.93700   0.83954   0.25539   0.00000  Uiso   1.00
Zn450  Zn    0.72967   0.82713   0.24460   0.00000  Uiso   1.00
C451   C     0.01480   0.26490   0.74821   0.00000  Uiso   1.00
C452   C     0.31263   0.16195   0.65836   0.00000  Uiso   1.00
C453   C     0.03011   0.17864   0.89520   0.00000  Uiso   1.00
C454   C     0.30322   0.15470   0.60480   0.00000  Uiso   1.00
C455   C     0.02363   0.23096   0.97099   0.00000  Uiso   1.00
C456   C     0.30970   0.10238   0.52901   0.00000  Uiso   1.00
C457   C     0.00030   0.21378   0.92441   0.00000  Uiso   1.00
C458   C     0.33304   0.11956   0.57559   0.00000  Uiso   1.00
C459   C     0.07656   0.15538   0.91600   0.00000  Uiso   1.00
C460   C     0.25678   0.17796   0.58400   0.00000  Uiso   1.00
C461   C     0.09864   0.17056   0.96338   0.00000  Uiso   1.00
C462   C     0.31853   0.06843   0.75179   0.00000  Uiso   1.00
C463   C     0.23469   0.16279   0.53661   0.00000  Uiso   1.00
C464   C     0.07538   0.21304   0.98837   0.00000  Uiso   1.00
C465   C     0.25795   0.12031   0.51163   0.00000  Uiso   1.00
C466   C     0.14960   0.15108   0.98194   0.00000  Uiso   1.00
C467   C     0.18373   0.18226   0.51806   0.00000  Uiso   1.00
C468   C     0.16471   0.23088   0.53521   0.00000  Uiso   1.00
C469   C     0.16862   0.10246   0.96479   0.00000  Uiso   1.00
C470   C     0.10846   0.24236   0.52498   0.00000  Uiso   1.00
C471   C     0.22487   0.09098   0.97502   0.00000  Uiso   1.00
C472   C     0.02260   0.31918   0.75528   0.00000  Uiso   1.00
C473   C     0.31073   0.01415   0.74472   0.00000  Uiso   1.00
C474   C     0.02071   0.17138   0.84164   0.00000  Uiso   1.00
H475   H     0.09383   0.27866   0.53990   0.00000  Uiso   1.00
H476   H     0.23949   0.05468   0.96010   0.00000  Uiso   1.00
H477   H     0.23350   0.20328   0.60750   0.00000  Uiso   1.00
H478   H     0.09983   0.13006   0.89251   0.00000  Uiso   1.00
H479   H     0.00437   0.26195   0.99133   0.00000  Uiso   1.00
H480   H     0.32896   0.07140   0.50866   0.00000  Uiso   1.00
H481   H     0.16269   0.12455   0.71396   0.00000  Uiso   1.00
H482   H     0.17065   0.20878   0.78604   0.00000  Uiso   1.00
I483   I     0.07344   0.08293   0.60050   0.00000  Uiso   1.00
I484   I     0.25988   0.25040   0.89949   0.00000  Uiso   1.00
I485   I     0.22107   0.29664   0.56030   0.00000  Uiso   1.00
I486   I     0.11226   0.03670   0.93972   0.00000  Uiso   1.00
I487   I     0.10120   0.01161   0.79630   0.00000  Uiso   1.00
I488   I     0.23213   0.32172   0.70369   0.00000  Uiso   1.00
N489   N     0.14695   0.15216   0.73739   0.00000  Uiso   1.00
N490   N     0.18638   0.18117   0.76260   0.00000  Uiso   1.00
O491   O     0.29719   0.24631   0.75310   0.00000  Uiso   1.00
O492   O     0.03614   0.08702   0.74690   0.00000  Uiso   1.00
O493   O     0.05822   0.23702   0.74501   0.00000  Uiso   1.00
O494   O     0.27512   0.09632   0.75498   0.00000  Uiso   1.00
O495   O     0.30328   0.17397   0.82247   0.00000  Uiso   1.00
O496   O     0.03005   0.15937   0.67753   0.00000  Uiso   1.00
O497   O     0.06431   0.16467   0.81439   0.00000  Uiso   1.00
O498   O     0.26902   0.16866   0.68561   0.00000  Uiso   1.00
Zn499  Zn    0.27033   0.17287   0.75539   0.00000  Uiso   1.00
Zn500  Zn    0.06300   0.16046   0.74460   0.00000  Uiso   1.00
C501   C     0.34813   0.26490   0.74821   0.00000  Uiso   1.00
C502   C     0.64596   0.16195   0.65836   0.00000  Uiso   1.00
C503   C     0.36345   0.17864   0.89520   0.00000  Uiso   1.00
C504   C     0.63655   0.15470   0.60480   0.00000  Uiso   1.00
C505   C     0.35697   0.23096   0.97099   0.00000  Uiso   1.00
C506   C     0.64303   0.10238   0.52901   0.00000  Uiso   1.00
C507   C     0.33363   0.21378   0.92441   0.00000  Uiso   1.00
C508   C     0.66637   0.11956   0.57559   0.00000  Uiso   1.00
C509   C     0.40989   0.15538   0.91600   0.00000  Uiso   1.00
C510   C     0.59011   0.17796   0.58400   0.00000  Uiso   1.00
C511   C     0.43197   0.17056   0.96338   0.00000  Uiso   1.00
C512   C     0.65186   0.06843   0.75179   0.00000  Uiso   1.00
C513   C     0.56803   0.16279   0.53661   0.00000  Uiso   1.00
C514   C     0.40872   0.21304   0.98837   0.00000  Uiso   1.00
C515   C     0.59128   0.12031   0.51163   0.00000  Uiso   1.00
C516   C     0.48293   0.15108   0.98194   0.00000  Uiso   1.00
C517   C     0.51707   0.18226   0.51806   0.00000  Uiso   1.00
C518   C     0.49804   0.23088   0.53521   0.00000  Uiso   1.00
C519   C     0.50196   0.10246   0.96479   0.00000  Uiso   1.00
C520   C     0.44179   0.24236   0.52498   0.00000  Uiso   1.00
C521   C     0.55820   0.09098   0.97502   0.00000  Uiso   1.00
C522   C     0.35593   0.31918   0.75528   0.00000  Uiso   1.00
C523   C     0.64407   0.01415   0.74472   0.00000  Uiso   1.00
C524   C     0.35404   0.17138   0.84164   0.00000  Uiso   1.00
H525   H     0.42717   0.27866   0.53990   0.00000  Uiso   1.00
H526   H     0.57283   0.05468   0.96010   0.00000  Uiso   1.00
H527   H     0.56684   0.20328   0.60750   0.00000  Uiso   1.00
H528   H     0.43316   0.13006   0.89251   0.00000  Uiso   1.00
H529   H     0.33771   0.26195   0.99133   0.00000  Uiso   1.00
H530   H     0.66229   0.07140   0.50866   0.00000  Uiso   1.00
H531   H     0.49602   0.12455   0.71396   0.00000  Uiso   1.00
H532   H     0.50398   0.20878   0.78604   0.00000  Uiso   1.00
I533   I     0.40678   0.08293   0.60050   0.00000  Uiso   1.00
I534   I     0.59322   0.25040   0.89949   0.00000  Uiso   1.00
I535   I     0.55440   0.29664   0.56030   0.00000  Uiso   1.00
I536   I     0.44559   0.03670   0.93972   0.00000  Uiso   1.00
I537   I     0.43453   0.01161   0.79630   0.00000  Uiso   1.00
I538   I     0.56546   0.32172   0.70369   0.00000  Uiso   1.00
N539   N     0.48029   0.15216   0.73739   0.00000  Uiso   1.00
N540   N     0.51971   0.18117   0.76260   0.00000  Uiso   1.00
O541   O     0.63052   0.24631   0.75310   0.00000  Uiso   1.00
O542   O     0.36948   0.08702   0.74690   0.00000  Uiso   1.00
O543   O     0.39155   0.23702   0.74501   0.00000  Uiso   1.00
O544   O     0.60845   0.09632   0.75498   0.00000  Uiso   1.00
O545   O     0.63662   0.17397   0.82247   0.00000  Uiso   1.00
O546   O     0.36338   0.15937   0.67753   0.00000  Uiso   1.00
O547   O     0.39764   0.16467   0.81439   0.00000  Uiso   1.00
O548   O     0.60236   0.16866   0.68561   0.00000  Uiso   1.00
Zn549  Zn    0.60366   0.17287   0.75539   0.00000  Uiso   1.00
Zn550  Zn    0.39634   0.16046   0.74460   0.00000  Uiso   1.00
C551   C     0.68147   0.26490   0.74821   0.00000  Uiso   1.00
C552   C     0.97929   0.16195   0.65836   0.00000  Uiso   1.00
C553   C     0.69678   0.17864   0.89520   0.00000  Uiso   1.00
C554   C     0.96989   0.15470   0.60480   0.00000  Uiso   1.00
C555   C     0.69030   0.23096   0.97099   0.00000  Uiso   1.00
C556   C     0.97637   0.10238   0.52901   0.00000  Uiso   1.00
C557   C     0.66696   0.21378   0.92441   0.00000  Uiso   1.00
C558   C     0.99970   0.11956   0.57559   0.00000  Uiso   1.00
C559   C     0.74322   0.15538   0.91600   0.00000  Uiso   1.00
C560   C     0.92345   0.17796   0.58400   0.00000  Uiso   1.00
C561   C     0.76531   0.17056   0.96338   0.00000  Uiso   1.00
C562   C     0.98520   0.06843   0.75179   0.00000  Uiso   1.00
C563   C     0.90136   0.16279   0.53661   0.00000  Uiso   1.00
C564   C     0.74205   0.21304   0.98837   0.00000  Uiso   1.00
C565   C     0.92462   0.12031   0.51163   0.00000  Uiso   1.00
C566   C     0.81627   0.15108   0.98194   0.00000  Uiso   1.00
C567   C     0.85040   0.18226   0.51806   0.00000  Uiso   1.00
C568   C     0.83137   0.23088   0.53521   0.00000  Uiso   1.00
C569   C     0.83529   0.10246   0.96479   0.00000  Uiso   1.00
C570   C     0.77513   0.24236   0.52498   0.00000  Uiso   1.00
C571   C     0.89154   0.09098   0.97502   0.00000  Uiso   1.00
C572   C     0.68927   0.31918   0.75528   0.00000  Uiso   1.00
C573   C     0.97740   0.01415   0.74472   0.00000  Uiso   1.00
C574   C     0.68737   0.17138   0.84164   0.00000  Uiso   1.00
H575   H     0.76050   0.27866   0.53990   0.00000  Uiso   1.00
H576   H     0.90616   0.05468   0.96010   0.00000  Uiso   1.00
H577   H     0.90017   0.20328   0.60750   0.00000  Uiso   1.00
H578   H     0.76650   0.13006   0.89251   0.00000  Uiso   1.00
H579   H     0.67104   0.26195   0.99133   0.00000  Uiso   1.00
H580   H     0.99562   0.07140   0.50866   0.00000  Uiso   1.00
H581   H     0.82935   0.12455   0.71396   0.00000  Uiso   1.00
H582   H     0.83731   0.20878   0.78604   0.00000  Uiso   1.00
I583   I     0.74011   0.08293   0.60050   0.00000  Uiso   1.00
I584   I     0.92655   0.25040   0.89949   0.00000  Uiso   1.00
I585   I     0.88774   0.29664   0.56030   0.00000  Uiso   1.00
I586   I     0.77892   0.03670   0.93972   0.00000  Uiso   1.00
I587   I     0.76787   0.01161   0.79630   0.00000  Uiso   1.00
I588   I     0.89880   0.32172   0.70369   0.00000  Uiso   1.00
N589   N     0.81362   0.15216   0.73739   0.00000  Uiso   1.00
N590   N     0.85305   0.18117   0.76260   0.00000  Uiso   1.00
O591   O     0.96386   0.24631   0.75310   0.00000  Uiso   1.00
O592   O     0.70281   0.08702   0.74690   0.00000  Uiso   1.00
O593   O     0.72488   0.23702   0.74501   0.00000  Uiso   1.00
O594   O     0.94178   0.09632   0.75498   0.00000  Uiso   1.00
O595   O     0.96995   0.17397   0.82247   0.00000  Uiso   1.00
O596   O     0.69672   0.15937   0.67753   0.00000  Uiso   1.00
O597   O     0.73098   0.16467   0.81439   0.00000  Uiso   1.00
O598   O     0.93569   0.16866   0.68561   0.00000  Uiso   1.00
Zn599  Zn    0.93700   0.17287   0.75539   0.00000  Uiso   1.00
Zn600  Zn    0.72967   0.16046   0.74460   0.00000  Uiso   1.00
C601   C     0.01480   0.59823   0.74821   0.00000  Uiso   1.00
C602   C     0.31263   0.49529   0.65836   0.00000  Uiso   1.00
C603   C     0.03011   0.51197   0.89520   0.00000  Uiso   1.00
C604   C     0.30322   0.48804   0.60480   0.00000  Uiso   1.00
C605   C     0.02363   0.56429   0.97099   0.00000  Uiso   1.00
C606   C     0.30970   0.43572   0.52901   0.00000  Uiso   1.00
C607   C     0.00030   0.54711   0.92441   0.00000  Uiso   1.00
C608   C     0.33304   0.45289   0.57559   0.00000  Uiso   1.00
C609   C     0.07656   0.48872   0.91600   0.00000  Uiso   1.00
C610   C     0.25678   0.51129   0.58400   0.00000  Uiso   1.00
C611   C     0.09864   0.50389   0.96338   0.00000  Uiso   1.00
C612   C     0.31853   0.40177   0.75179   0.00000  Uiso   1.00
C613   C     0.23469   0.49612   0.53661   0.00000  Uiso   1.00
C614   C     0.07538   0.54637   0.98837   0.00000  Uiso   1.00
C615   C     0.25795   0.45364   0.51163   0.00000  Uiso   1.00
C616   C     0.14960   0.48442   0.98194   0.00000  Uiso   1.00
C617   C     0.18373   0.51560   0.51806   0.00000  Uiso   1.00
C618   C     0.16471   0.56422   0.53521   0.00000  Uiso   1.00
C619   C     0.16862   0.43579   0.96479   0.00000  Uiso   1.00
C620   C     0.10846   0.57569   0.52498   0.00000  Uiso   1.00
C621   C     0.22487   0.42432   0.97502   0.00000  Uiso   1.00
C622   C     0.02260   0.65251   0.75528   0.00000  Uiso   1.00
C623   C     0.31073   0.34749   0.74472   0.00000  Uiso   1.00
C624   C     0.02071   0.50471   0.84164   0.00000  Uiso   1.00
H625   H     0.09383   0.61199   0.53990   0.00000  Uiso   1.00
H626   H     0.23949   0.38801   0.96010   0.00000  Uiso   1.00
H627   H     0.23350   0.53661   0.60750   0.00000  Uiso   1.00
H628   H     0.09983   0.46339   0.89251   0.00000  Uiso   1.00
H629   H     0.00437   0.59528   0.99133   0.00000  Uiso   1.00
H630   H     0.32896   0.40473   0.50866   0.00000  Uiso   1.00
H631   H     0.16269   0.45788   0.71396   0.00000  Uiso   1.00
H632   H     0.17065   0.54212   0.78604   0.00000  Uiso   1.00
I633   I     0.07344   0.41626   0.60050   0.00000  Uiso   1.00
I634   I     0.25988   0.58374   0.89949   0.00000  Uiso   1.00
I635   I     0.22107   0.62998   0.56030   0.00000  Uiso   1.00
I636   I     0.11226   0.37004   0.93972   0.00000  Uiso   1.00
I637   I     0.10120   0.34495   0.79630   0.00000  Uiso   1.00
I638   I     0.23213   0.65505   0.70369   0.00000  Uiso   1.00
N639   N     0.14695   0.48550   0.73739   0.00000  Uiso   1.00
N640   N     0.18638   0.51450   0.76260   0.00000  Uiso   1.00
O641   O     0.29719   0.57964   0.75310   0.00000  Uiso   1.00
O642   O     0.03614   0.42036   0.74690   0.00000  Uiso   1.00
O643   O     0.05822   0.57035   0.74501   0.00000  Uiso   1.00
O644   O     0.27512   0.42965   0.75498   0.00000  Uiso   1.00
O645   O     0.30328   0.50730   0.82247   0.00000  Uiso   1.00
O646   O     0.03005   0.49270   0.67753   0.00000  Uiso   1.00
O647   O     0.06431   0.49801   0.81439   0.00000  Uiso   1.00
O648   O     0.26902   0.50199   0.68561   0.00000  Uiso   1.00
Zn649  Zn    0.27033   0.50621   0.75539   0.00000  Uiso   1.00
Zn650  Zn    0.06300   0.49379   0.74460   0.00000  Uiso   1.00
C651   C     0.34813   0.59823   0.74821   0.00000  Uiso   1.00
C652   C     0.64596   0.49529   0.65836   0.00000  Uiso   1.00
C653   C     0.36345   0.51197   0.89520   0.00000  Uiso   1.00
C654   C     0.63655   0.48804   0.60480   0.00000  Uiso   1.00
C655   C     0.35697   0.56429   0.97099   0.00000  Uiso   1.00
C656   C     0.64303   0.43572   0.52901   0.00000  Uiso   1.00
C657   C     0.33363   0.54711   0.92441   0.00000  Uiso   1.00
C658   C     0.66637   0.45289   0.57559   0.00000  Uiso   1.00
C659   C     0.40989   0.48872   0.91600   0.00000  Uiso   1.00
C660   C     0.59011   0.51129   0.58400   0.00000  Uiso   1.00
C661   C     0.43197   0.50389   0.96338   0.00000  Uiso   1.00
C662   C     0.65186   0.40177   0.75179   0.00000  Uiso   1.00
C663   C     0.56803   0.49612   0.53661   0.00000  Uiso   1.00
C664   C     0.40872   0.54637   0.98837   0.00000  Uiso   1.00
C665   C     0.59128   0.45364   0.51163   0.00000  Uiso   1.00
C666   C     0.48293   0.48442   0.98194   0.00000  Uiso   1.00
C667   C     0.51707   0.51560   0.51806   0.00000  Uiso   1.00
C668   C     0.49804   0.56422   0.53521   0.00000  Uiso   1.00
C669   C     0.50196   0.43579   0.96479   0.00000  Uiso   1.00
C670   C     0.44179   0.57569   0.52498   0.00000  Uiso   1.00
C671   C     0.55820   0.42432   0.97502   0.00000  Uiso   1.00
C672   C     0.35593   0.65251   0.75528   0.00000  Uiso   1.00
C673   C     0.64407   0.34749   0.74472   0.00000  Uiso   1.00
C674   C     0.35404   0.50471   0.84164   0.00000  Uiso   1.00
H675   H     0.42717   0.61199   0.53990   0.00000  Uiso   1.00
H676   H     0.57283   0.38801   0.96010   0.00000  Uiso   1.00
H677   H     0.56684   0.53661   0.60750   0.00000  Uiso   1.00
H678   H     0.43316   0.46339   0.89251   0.00000  Uiso   1.00
H679   H     0.33771   0.59528   0.99133   0.00000  Uiso   1.00
H680   H     0.66229   0.40473   0.50866   0.00000  Uiso   1.00
H681   H     0.49602   0.45788   0.71396   0.00000  Uiso   1.00
H682   H     0.50398   0.54212   0.78604   0.00000  Uiso   1.00
I683   I     0.40678   0.41626   0.60050   0.00000  Uiso   1.00
I684   I     0.59322   0.58374   0.89949   0.00000  Uiso   1.00
I685   I     0.55440   0.62998   0.56030   0.00000  Uiso   1.00
I686   I     0.44559   0.37004   0.93972   0.00000  Uiso   1.00
I687   I     0.43453   0.34495   0.79630   0.00000  Uiso   1.00
I688   I     0.56546   0.65505   0.70369   0.00000  Uiso   1.00
N689   N     0.48029   0.48550   0.73739   0.00000  Uiso   1.00
N690   N     0.51971   0.51450   0.76260   0.00000  Uiso   1.00
O691   O     0.63052   0.57964   0.75310   0.00000  Uiso   1.00
O692   O     0.36948   0.42036   0.74690   0.00000  Uiso   1.00
O693   O     0.39155   0.57035   0.74501   0.00000  Uiso   1.00
O694   O     0.60845   0.42965   0.75498   0.00000  Uiso   1.00
O695   O     0.63662   0.50730   0.82247   0.00000  Uiso   1.00
O696   O     0.36338   0.49270   0.67753   0.00000  Uiso   1.00
O697   O     0.39764   0.49801   0.81439   0.00000  Uiso   1.00
O698   O     0.60236   0.50199   0.68561   0.00000  Uiso   1.00
Zn699  Zn    0.60366   0.50621   0.75539   0.00000  Uiso   1.00
Zn700  Zn    0.39634   0.49379   0.74460   0.00000  Uiso   1.00
C701   C     0.68147   0.59823   0.74821   0.00000  Uiso   1.00
C702   C     0.97929   0.49529   0.65836   0.00000  Uiso   1.00
C703   C     0.69678   0.51197   0.89520   0.00000  Uiso   1.00
C704   C     0.96989   0.48804   0.60480   0.00000  Uiso   1.00
C705   C     0.69030   0.56429   0.97099   0.00000  Uiso   1.00
C706   C     0.97637   0.43572   0.52901   0.00000  Uiso   1.00
C707   C     0.66696   0.54711   0.92441   0.00000  Uiso   1.00
C708   C     0.99970   0.45289   0.57559   0.00000  Uiso   1.00
C709   C     0.74322   0.48872   0.91600   0.00000  Uiso   1.00
C710   C     0.92345   0.51129   0.58400   0.00000  Uiso   1.00
C711   C     0.76531   0.50389   0.96338   0.00000  Uiso   1.00
C712   C     0.98520   0.40177   0.75179   0.00000  Uiso   1.00
C713   C     0.90136   0.49612   0.53661   0.00000  Uiso   1.00
C714   C     0.74205   0.54637   0.98837   0.00000  Uiso   1.00
C715   C     0.92462   0.45364   0.51163   0.00000  Uiso   1.00
C716   C     0.81627   0.48442   0.98194   0.00000  Uiso   1.00
C717   C     0.85040   0.51560   0.51806   0.00000  Uiso   1.00
C718   C     0.83137   0.56422   0.53521   0.00000  Uiso   1.00
C719   C     0.83529   0.43579   0.96479   0.00000  Uiso   1.00
C720   C     0.77513   0.57569   0.52498   0.00000  Uiso   1.00
C721   C     0.89154   0.42432   0.97502   0.00000  Uiso   1.00
C722   C     0.68927   0.65251   0.75528   0.00000  Uiso   1.00
C723   C     0.97740   0.34749   0.74472   0.00000  Uiso   1.00
C724   C     0.68737   0.50471   0.84164   0.00000  Uiso   1.00
H725   H     0.76050   0.61199   0.53990   0.00000  Uiso   1.00
H726   H     0.90616   0.38801   0.96010   0.00000  Uiso   1.00
H727   H     0.90017   0.53661   0.60750   0.00000  Uiso   1.00
H728   H     0.76650   0.46339   0.89251   0.00000  Uiso   1.00
H729   H     0.67104   0.59528   0.99133   0.00000  Uiso   1.00
H730   H     0.99562   0.40473   0.50866   0.00000  Uiso   1.00
H731   H     0.82935   0.45788   0.71396   0.00000  Uiso   1.00
H732   H     0.83731   0.54212   0.78604   0.00000  Uiso   1.00
I733   I     0.74011   0.41626   0.60050   0.00000  Uiso   1.00
I734   I     0.92655   0.58374   0.89949   0.00000  Uiso   1.00
I735   I     0.88774   0.62998   0.56030   0.00000  Uiso   1.00
I736   I     0.77892   0.37004   0.93972   0.00000  Uiso   1.00
I737   I     0.76787   0.34495   0.79630   0.00000  Uiso   1.00
I738   I     0.89880   0.65505   0.70369   0.00000  Uiso   1.00
N739   N     0.81362   0.48550   0.73739   0.00000  Uiso   1.00
N740   N     0.85305   0.51450   0.76260   0.00000  Uiso   1.00
O741   O     0.96386   0.57964   0.75310   0.00000  Uiso   1.00
O742   O     0.70281   0.42036   0.74690   0.00000  Uiso   1.00
O743   O     0.72488   0.57035   0.74501   0.00000  Uiso   1.00
O744   O     0.94178   0.42965   0.75498   0.00000  Uiso   1.00
O745   O     0.96995   0.50730   0.82247   0.00000  Uiso   1.00
O746   O     0.69672   0.49270   0.67753   0.00000  Uiso   1.00
O747   O     0.73098   0.49801   0.81439   0.00000  Uiso   1.00
O748   O     0.93569   0.50199   0.68561   0.00000  Uiso   1.00
Zn749  Zn    0.93700   0.50621   0.75539   0.00000  Uiso   1.00
Zn750  Zn    0.72967   0.49379   0.74460   0.00000  Uiso   1.00
C751   C     0.01480   0.93157   0.74821   0.00000  Uiso   1.00
C752   C     0.31263   0.82862   0.65836   0.00000  Uiso   1.00
C753   C     0.03011   0.84530   0.89520   0.00000  Uiso   1.00
C754   C     0.30322   0.82137   0.60480   0.00000  Uiso   1.00
C755   C     0.02363   0.89763   0.97099   0.00000  Uiso   1.00
C756   C     0.30970   0.76905   0.52901   0.00000  Uiso   1.00
C757   C     0.00030   0.88045   0.92441   0.00000  Uiso   1.00
C758   C     0.33304   0.78623   0.57559   0.00000  Uiso   1.00
C759   C     0.07656   0.82205   0.91600   0.00000  Uiso   1.00
C760   C     0.25678   0.84462   0.58400   0.00000  Uiso   1.00
C761   C     0.09864   0.83723   0.96338   0.00000  Uiso   1.00
C762   C     0.31853   0.73510   0.75179   0.00000  Uiso   1.00
C763   C     0.23469   0.82945   0.53661   0.00000  Uiso   1.00
C764   C     0.07538   0.87971   0.98837   0.00000  Uiso   1.00
C765   C     0.25795   0.78697   0.51163   0.00000  Uiso   1.00
C766   C     0.14960   0.81775   0.98194   0.00000  Uiso   1.00
C767   C     0.18373   0.84893   0.51806   0.00000  Uiso   1.00
C768   C     0.16471   0.89755   0.53521   0.00000  Uiso   1.00
C769   C     0.16862   0.76912   0.96479   0.00000  Uiso   1.00
C770   C     0.10846   0.90902   0.52498   0.00000  Uiso   1.00
C771   C     0.22487   0.75765   0.97502   0.00000  Uiso   1.00
C772   C     0.02260   0.98585   0.75528   0.00000  Uiso   1.00
C773   C     0.31073   0.68082   0.74472   0.00000  Uiso   1.00
C774   C     0.02071   0.83805   0.84164   0.00000  Uiso   1.00
H775   H     0.09383   0.94533   0.53990   0.00000  Uiso   1.00
H776   H     0.23949   0.72135   0.96010   0.00000  Uiso   1.00
H777   H     0.23350   0.86994   0.60750   0.00000  Uiso   1.00
H778   H     0.09983   0.79673   0.89251   0.00000  Uiso   1.00
H779   H     0.00437   0.92861   0.99133   0.00000  Uiso   1.00
H780   H     0.32896   0.73806   0.50866   0.00000  Uiso   1.00
H781   H     0.16269   0.79122   0.71396   0.00000  Uiso   1.00
H782   H     0.17065   0.87545   0.78604   0.00000  Uiso   1.00
I783   I     0.07344   0.74960   0.60050   0.00000  Uiso   1.00
I784   I     0.25988   0.91707   0.89949   0.00000  Uiso   1.00
I785   I     0.22107   0.96331   0.56030   0.00000  Uiso   1.00
I786   I     0.11226   0.70337   0.93972   0.00000  Uiso   1.00
I787   I     0.10120   0.67828   0.79630   0.00000  Uiso   1.00
I788   I     0.23213   0.98838   0.70369   0.00000  Uiso   1.00
N789   N     0.14695   0.81883   0.73739   0.00000  Uiso   1.00
N790   N     0.18638   0.84784   0.76260   0.00000  Uiso   1.00
O791   O     0.29719   0.91298   0.75310   0.00000  Uiso   1.00
O792   O     0.03614   0.75369   0.74690   0.00000  Uiso   1.00
O793   O     0.05822   0.90368   0.74501   0.00000  Uiso   1.00
O794   O     0.27512   0.76298   0.75498   0.00000  Uiso   1.00
O795   O     0.30328   0.84063   0.82247   0.00000  Uiso   1.00
O796   O     0.03005   0.82603   0.67753   0.00000  Uiso   1.00
O797   O     0.06431   0.83134   0.81439   0.00000  Uiso   1.00
O798   O     0.26902   0.83533   0.68561   0.00000  Uiso   1.00
Zn799  Zn    0.27033   0.83954   0.75539   0.00000  Uiso   1.00
Zn800  Zn    0.06300   0.82713   0.74460   0.00000  Uiso   1.00
C801   C     0.34813   0.93157   0.74821   0.00000  Uiso   1.00
C802   C     0.64596   0.82862   0.65836   0.00000  Uiso   1.00
C803   C     0.36345   0.84530   0.89520   0.00000  Uiso   1.00
C804   C     0.63655   0.82137   0.60480   0.00000  Uiso   1.00
C805   C     0.35697   0.89763   0.97099   0.00000  Uiso   1.00
C806   C     0.64303   0.76905   0.52901   0.00000  Uiso   1.00
C807   C     0.33363   0.88045   0.92441   0.00000  Uiso   1.00
C808   C     0.66637   0.78623   0.57559   0.00000  Uiso   1.00
C809   C     0.40989   0.82205   0.91600   0.00000  Uiso   1.00
C810   C     0.59011   0.84462   0.58400   0.00000  Uiso   1.00
C811   C     0.43197   0.83723   0.96338   0.00000  Uiso   1.00
C812   C     0.65186   0.73510   0.75179   0.00000  Uiso   1.00
C813   C     0.56803   0.82945   0.53661   0.00000  Uiso   1.00
C814   C     0.40872   0.87971   0.98837   0.00000  Uiso   1.00
C815   C     0.59128   0.78697   0.51163   0.00000  Uiso   1.00
C816   C     0.48293   0.81775   0.98194   0.00000  Uiso   1.00
C817   C     0.51707   0.84893   0.51806   0.00000  Uiso   1.00
C818   C     0.49804   0.89755   0.53521   0.00000  Uiso   1.00
C819   C     0.50196   0.76912   0.96479   0.00000  Uiso   1.00
C820   C     0.44179   0.90902   0.52498   0.00000  Uiso   1.00
C821   C     0.55820   0.75765   0.97502   0.00000  Uiso   1.00
C822   C     0.35593   0.98585   0.75528   0.00000  Uiso   1.00
C823   C     0.64407   0.68082   0.74472   0.00000  Uiso   1.00
C824   C     0.35404   0.83805   0.84164   0.00000  Uiso   1.00
H825   H     0.42717   0.94533   0.53990   0.00000  Uiso   1.00
H826   H     0.57283   0.72135   0.96010   0.00000  Uiso   1.00
H827   H     0.56684   0.86994   0.60750   0.00000  Uiso   1.00
H828   H     0.43316   0.79673   0.89251   0.00000  Uiso   1.00
H829   H     0.33771   0.92861   0.99133   0.00000  Uiso   1.00
H830   H     0.66229   0.73806   0.50866   0.00000  Uiso   1.00
H831   H     0.49602   0.79122   0.71396   0.00000  Uiso   1.00
H832   H     0.50398   0.87545   0.78604   0.00000  Uiso   1.00
I833   I     0.40678   0.74960   0.60050   0.00000  Uiso   1.00
I834   I     0.59322   0.91707   0.89949   0.00000  Uiso   1.00
I835   I     0.55440   0.96331   0.56030   0.00000  Uiso   1.00
I836   I     0.44559   0.70337   0.93972   0.00000  Uiso   1.00
I837   I     0.43453   0.67828   0.79630   0.00000  Uiso   1.00
I838   I     0.56546   0.98838   0.70369   0.00000  Uiso   1.00
N839   N     0.48029   0.81883   0.73739   0.00000  Uiso   1.00
N840   N     0.51971   0.84784   0.76260   0.00000  Uiso   1.00
O841   O     0.63052   0.91298   0.75310   0.00000  Uiso   1.00
O842   O     0.36948   0.75369   0.74690   0.00000  Uiso   1.00
O843   O     0.39155   0.90368   0.74501   0.00000  Uiso   1.00
O844   O     0.60845   0.76298   0.75498   0.00000  Uiso   1.00
O845   O     0.63662   0.84063   0.82247   0.00000  Uiso   1.00
O846   O     0.36338   0.82603   0.67753   0.00000  Uiso   1.00
O847   O     0.39764   0.83134   0.81439   0.00000  Uiso   1.00
O848   O     0.60236   0.83533   0.68561   0.00000  Uiso   1.00
Zn849  Zn    0.60366   0.83954   0.75539   0.00000  Uiso   1.00
Zn850  Zn    0.39634   0.82713   0.74460   0.00000  Uiso   1.00
C851   C     0.68147   0.93157   0.74821   0.00000  Uiso   1.00
C852   C     0.97929   0.82862   0.65836   0.00000  Uiso   1.00
C853   C     0.69678   0.84530   0.89520   0.00000  Uiso   1.00
C854   C     0.96989   0.82137   0.60480   0.00000  Uiso   1.00
C855   C     0.69030   0.89763   0.97099   0.00000  Uiso   1.00
C856   C     0.97637   0.76905   0.52901   0.00000  Uiso   1.00
C857   C     0.66696   0.88045   0.92441   0.00000  Uiso   1.00
C858   C     0.99970   0.78623   0.57559   0.00000  Uiso   1.00
C859   C     0.74322   0.82205   0.91600   0.00000  Uiso   1.00
C860   C     0.92345   0.84462   0.58400   0.00000  Uiso   1.00
C861   C     0.76531   0.83723   0.96338   0.00000  Uiso   1.00
C862   C     0.98520   0.73510   0.75179   0.00000  Uiso   1.00
C863   C     0.90136   0.82945   0.53661   0.00000  Uiso   1.00
C864   C     0.74205   0.87971   0.98837   0.00000  Uiso   1.00
C865   C     0.92462   0.78697   0.51163   0.00000  Uiso   1.00
C866   C     0.81627   0.81775   0.98194   0.00000  Uiso   1.00
C867   C     0.85040   0.84893   0.51806   0.00000  Uiso   1.00
C868   C     0.83137   0.89755   0.53521   0.00000  Uiso   1.00
C869   C     0.83529   0.76912   0.96479   0.00000  Uiso   1.00
C870   C     0.77513   0.90902   0.52498   0.00000  Uiso   1.00
C871   C     0.89154   0.75765   0.97502   0.00000  Uiso   1.00
C872   C     0.68927   0.98585   0.75528   0.00000  Uiso   1.00
C873   C     0.97740   0.68082   0.74472   0.00000  Uiso   1.00
C874   C     0.68737   0.83805   0.84164   0.00000  Uiso   1.00
H875   H     0.76050   0.94533   0.53990   0.00000  Uiso   1.00
H876   H     0.90616   0.72135   0.96010   0.00000  Uiso   1.00
H877   H     0.90017   0.86994   0.60750   0.00000  Uiso   1.00
H878   H     0.76650   0.79673   0.89251   0.00000  Uiso   1.00
H879   H     0.67104   0.92861   0.99133   0.00000  Uiso   1.00
H880   H     0.99562   0.73806   0.50866   0.00000  Uiso   1.00
H881   H     0.82935   0.79122   0.71396   0.00000  Uiso   1.00
H882   H     0.83731   0.87545   0.78604   0.00000  Uiso   1.00
I883   I     0.74011   0.74960   0.60050   0.00000  Uiso   1.00
I884   I     0.92655   0.91707   0.89949   0.00000  Uiso   1.00
I885   I     0.88774   0.96331   0.56030   0.00000  Uiso   1.00
I886   I     0.77892   0.70337   0.93972   0.00000  Uiso   1.00
I887   I     0.76787   0.67828   0.79630   0.00000  Uiso   1.00
I888   I     0.89880   0.98838   0.70369   0.00000  Uiso   1.00
N889   N     0.81362   0.81883   0.73739   0.00000  Uiso   1.00
N890   N     0.85305   0.84784   0.76260   0.00000  Uiso   1.00
O891   O     0.96386   0.91298   0.75310   0.00000  Uiso   1.00
O892   O     0.70281   0.75369   0.74690   0.00000  Uiso   1.00
O893   O     0.72488   0.90368   0.74501   0.00000  Uiso   1.00
O894   O     0.94178   0.76298   0.75498   0.00000  Uiso   1.00
O895   O     0.96995   0.84063   0.82247   0.00000  Uiso   1.00
O896   O     0.69672   0.82603   0.67753   0.00000  Uiso   1.00
O897   O     0.73098   0.83134   0.81439   0.00000  Uiso   1.00
O898   O     0.93569   0.83533   0.68561   0.00000  Uiso   1.00
Zn899  Zn    0.93700   0.83954   0.75539   0.00000  Uiso   1.00
Zn900  Zn    0.72967   0.82713   0.74460   0.00000  Uiso   1.00
loop_
_geom_bond_atom_site_label_1
_geom_bond_atom_site_label_2
_geom_bond_distance
_geom_bond_site_symmetry_2
_ccdc_geom_bond_type
C1     O43     1.290   .     A
C1     C22     1.397   .     S
C1     O141    1.266   1_455 S
C2     C4      1.461   .     S
C2     O48     1.301   .     A
C2     O96     1.285   .     S
C3     C9      1.391   .     A
C3     C24     1.461   .     S
C3     C7      1.415   .     A
C4     C8      1.415   .     A
C4     C10     1.391   .     A
C5     C14     1.400   .     A
C5     H29     1.084   .     S
C5     C7      1.395   .     A
C6     C8      1.395   .     A
C6     C15     1.400   .     A
C6     H30     1.084   .     S
C7     I134    2.128   1_455 S
C8     I83     2.128   .     S
C9     C11     1.393   .     A
C9     H28     1.081   .     S
C10    H27     1.081   .     S
C10    C13     1.393   .     A
C11    C16     1.411   .     A
C11    C14     1.414   .     A
C12    O44     1.290   .     A
C12    C23     1.397   .     S
C12    O92     1.266   .     S
C13    C17     1.411   .     A
C13    C15     1.414   .     A
C14    C470    1.392   .     S
C15    C471    1.392   1_554 S
C16    C19     1.422   .     A
C16    C467    1.418   .     S
C17    C18     1.422   .     A
C17    C466    1.418   1_554 S
C18    C20     1.391   .     A
C18    I35     2.134   .     S
C19    I36     2.134   .     S
C19    C21     1.391   .     A
C20    H25     1.084   .     S
C20    C464    1.392   1_554 S
C21    H26     1.084   .     S
C21    C465    1.392   .     S
C22    C273    1.356   1_455 S
C22    I187    2.157   .     S
C23    C372    1.356   1_545 S
C23    I338    2.157   1_545 S
C24    O47     1.301   .     A
C24    O145    1.285   1_455 S
H31    N39     1.029   .     S
H32    N40     1.029   .     S
I33    C108    2.128   1_455 S
I34    C57     2.128   .     S
I37    C322    2.157   1_545 S
I38    C173    2.157   .     S
N39    Zn50    2.010   .     S
N39    N40     1.295   .     D
N40    Zn49    2.010   .     S
O41    Zn49    1.949   .     S
O41    C51     1.266   .     S
O42    Zn50    1.949   .     S
O42    C112    1.266   1_455 S
O43    Zn50    1.978   .     S
O44    Zn49    1.978   .     S
O45    Zn49    1.944   .     S
O45    C74     1.285   .     S
O46    Zn50    1.944   .     S
O46    C102    1.285   1_455 S
O47    Zn50    1.889   .     S
O48    Zn49    1.889   .     S
C51    O93     1.290   .     A
C51    C72     1.397   .     S
C52    C54     1.461   .     S
C52    O98     1.301   .     A
C52    O146    1.285   .     S
C53    C59     1.391   .     A
C53    C74     1.461   .     S
C53    C57     1.415   .     A
C54    C58     1.415   .     A
C54    C60     1.391   .     A
C55    C64     1.400   .     A
C55    H79     1.084   .     S
C55    C57     1.395   .     A
C56    C58     1.395   .     A
C56    C65     1.400   .     A
C56    H80     1.084   .     S
C58    I133    2.128   .     S
C59    C61     1.393   .     A
C59    H78     1.081   .     S
C60    H77     1.081   .     S
C60    C63     1.393   .     A
C61    C66     1.411   .     A
C61    C64     1.414   .     A
C62    O94     1.290   .     A
C62    C73     1.397   .     S
C62    O142    1.266   .     S
C63    C67     1.411   .     A
C63    C65     1.414   .     A
C64    C520    1.392   .     S
C65    C521    1.392   1_554 S
C66    C69     1.422   .     A
C66    C517    1.418   .     S
C67    C68     1.422   .     A
C67    C516    1.418   1_554 S
C68    C70     1.391   .     A
C68    I85     2.134   .     S
C69    I86     2.134   .     S
C69    C71     1.391   .     A
C70    H75     1.084   .     S
C70    C514    1.392   1_554 S
C71    H76     1.084   .     S
C71    C515    1.392   .     S
C72    C173    1.356   .     S
C72    I237    2.157   .     S
C73    C422    1.356   1_545 S
C73    I388    2.157   1_545 S
C74    O97     1.301   .     A
H81    N89     1.029   .     S
H82    N90     1.029   .     S
I84    C107    2.128   .     S
I87    C372    2.157   1_545 S
I88    C223    2.157   .     S
N89    Zn100   2.010   .     S
N89    N90     1.295   .     D
N90    Zn99    2.010   .     S
O91    Zn99    1.949   .     S
O91    C101    1.266   .     S
O92    Zn100   1.949   .     S
O93    Zn100   1.978   .     S
O94    Zn99    1.978   .     S
O95    Zn99    1.944   .     S
O95    C124    1.285   .     S
O96    Zn100   1.944   .     S
O97    Zn100   1.889   .     S
O98    Zn99    1.889   .     S
C101   O143    1.290   .     A
C101   C122    1.397   .     S
C102   C104    1.461   .     S
C102   O148    1.301   .     A
C102   O46     1.285   1_655 S
C103   C109    1.391   .     A
C103   C124    1.461   .     S
C103   C107    1.415   .     A
C104   C108    1.415   .     A
C104   C110    1.391   .     A
C105   C114    1.400   .     A
C105   H129    1.084   .     S
C105   C107    1.395   .     A
C106   C108    1.395   .     A
C106   C115    1.400   .     A
C106   H130    1.084   .     S
C108   I33     2.128   1_655 S
C109   C111    1.393   .     A
C109   H128    1.081   .     S
C110   H127    1.081   .     S
C110   C113    1.393   .     A
C111   C116    1.411   .     A
C111   C114    1.414   .     A
C112   O144    1.290   .     A
C112   C123    1.397   .     S
C112   O42     1.266   1_655 S
C113   C117    1.411   .     A
C113   C115    1.414   .     A
C114   C570    1.392   .     S
C115   C571    1.392   1_554 S
C116   C119    1.422   .     A
C116   C567    1.418   .     S
C117   C118    1.422   .     A
C117   C566    1.418   1_554 S
C118   C120    1.391   .     A
C118   I135    2.134   .     S
C119   I136    2.134   .     S
C119   C121    1.391   .     A
C120   H125    1.084   .     S
C120   C564    1.392   1_554 S
C121   H126    1.084   .     S
C121   C565    1.392   .     S
C122   C223    1.356   .     S
C122   I287    2.157   .     S
C123   C322    1.356   1_645 S
C123   I438    2.157   1_545 S
C124   O147    1.301   .     A
H131   N139    1.029   .     S
H132   N140    1.029   .     S
I134   C7      2.128   1_655 S
I137   C422    2.157   1_545 S
I138   C273    2.157   .     S
N139   Zn150   2.010   .     S
N139   N140    1.295   .     D
N140   Zn149   2.010   .     S
O141   Zn149   1.949   .     S
O141   C1      1.266   1_655 S
O142   Zn150   1.949   .     S
O143   Zn150   1.978   .     S
O144   Zn149   1.978   .     S
O145   Zn149   1.944   .     S
O145   C24     1.285   1_655 S
O146   Zn150   1.944   .     S
O147   Zn150   1.889   .     S
O148   Zn149   1.889   .     S
C151   O193    1.290   .     A
C151   C172    1.397   .     S
C151   O291    1.266   1_455 S
C152   C154    1.461   .     S
C152   O198    1.301   .     A
C152   O246    1.285   .     S
C153   C159    1.391   .     A
C153   C174    1.461   .     S
C153   C157    1.415   .     A
C154   C158    1.415   .     A
C154   C160    1.391   .     A
C155   C164    1.400   .     A
C155   H179    1.084   .     S
C155   C157    1.395   .     A
C156   C158    1.395   .     A
C156   C165    1.400   .     A
C156   H180    1.084   .     S
C157   I284    2.128   1_455 S
C158   I233    2.128   .     S
C159   C161    1.393   .     A
C159   H178    1.081   .     S
C160   H177    1.081   .     S
C160   C163    1.393   .     A
C161   C166    1.411   .     A
C161   C164    1.414   .     A
C162   O194    1.290   .     A
C162   C173    1.397   .     S
C162   O242    1.266   .     S
C163   C167    1.411   .     A
C163   C165    1.414   .     A
C164   C620    1.392   .     S
C165   C621    1.392   1_554 S
C166   C169    1.422   .     A
C166   C617    1.418   .     S
C167   C168    1.422   .     A
C167   C616    1.418   1_554 S
C168   C170    1.391   .     A
C168   I185    2.134   .     S
C169   I186    2.134   .     S
C169   C171    1.391   .     A
C170   H175    1.084   .     S
C170   C614    1.392   1_554 S
C171   H176    1.084   .     S
C171   C615    1.392   .     S
C172   C423    1.356   1_455 S
C172   I337    2.157   .     S
C174   O197    1.301   .     A
C174   O295    1.285   1_455 S
H181   N189    1.029   .     S
H182   N190    1.029   .     S
I183   C258    2.128   1_455 S
I184   C207    2.128   .     S
I188   C323    2.157   .     S
N189   Zn200   2.010   .     S
N189   N190    1.295   .     D
N190   Zn199   2.010   .     S
O191   Zn199   1.949   .     S
O191   C201    1.266   .     S
O192   Zn200   1.949   .     S
O192   C262    1.266   1_455 S
O193   Zn200   1.978   .     S
O194   Zn199   1.978   .     S
O195   Zn199   1.944   .     S
O195   C224    1.285   .     S
O196   Zn200   1.944   .     S
O196   C252    1.285   1_455 S
O197   Zn200   1.889   .     S
O198   Zn199   1.889   .     S
C201   O243    1.290   .     A
C201   C222    1.397   .     S
C202   C204    1.461   .     S
C202   O248    1.301   .     A
C202   O296    1.285   .     S
C203   C209    1.391   .     A
C203   C224    1.461   .     S
C203   C207    1.415   .     A
C204   C208    1.415   .     A
C204   C210    1.391   .     A
C205   C214    1.400   .     A
C205   H229    1.084   .     S
C205   C207    1.395   .     A
C206   C208    1.395   .     A
C206   C215    1.400   .     A
C206   H230    1.084   .     S
C208   I283    2.128   .     S
C209   C211    1.393   .     A
C209   H228    1.081   .     S
C210   H227    1.081   .     S
C210   C213    1.393   .     A
C211   C216    1.411   .     A
C211   C214    1.414   .     A
C212   O244    1.290   .     A
C212   C223    1.397   .     S
C212   O292    1.266   .     S
C213   C217    1.411   .     A
C213   C215    1.414   .     A
C214   C670    1.392   .     S
C215   C671    1.392   1_554 S
C216   C219    1.422   .     A
C216   C667    1.418   .     S
C217   C218    1.422   .     A
C217   C666    1.418   1_554 S
C218   C220    1.391   .     A
C218   I235    2.134   .     S
C219   I236    2.134   .     S
C219   C221    1.391   .     A
C220   H225    1.084   .     S
C220   C664    1.392   1_554 S
C221   H226    1.084   .     S
C221   C665    1.392   .     S
C222   C323    1.356   .     S
C222   I387    2.157   .     S
C224   O247    1.301   .     A
H231   N239    1.029   .     S
H232   N240    1.029   .     S
I234   C257    2.128   .     S
I238   C373    2.157   .     S
N239   Zn250   2.010   .     S
N239   N240    1.295   .     D
N240   Zn249   2.010   .     S
O241   Zn249   1.949   .     S
O241   C251    1.266   .     S
O242   Zn250   1.949   .     S
O243   Zn250   1.978   .     S
O244   Zn249   1.978   .     S
O245   Zn249   1.944   .     S
O245   C274    1.285   .     S
O246   Zn250   1.944   .     S
O247   Zn250   1.889   .     S
O248   Zn249   1.889   .     S
C251   O293    1.290   .     A
C251   C272    1.397   .     S
C252   C254    1.461   .     S
C252   O298    1.301   .     A
C252   O196    1.285   1_655 S
C253   C259    1.391   .     A
C253   C274    1.461   .     S
C253   C257    1.415   .     A
C254   C258    1.415   .     A
C254   C260    1.391   .     A
C255   C264    1.400   .     A
C255   H279    1.084   .     S
C255   C257    1.395   .     A
C256   C258    1.395   .     A
C256   C265    1.400   .     A
C256   H280    1.084   .     S
C258   I183    2.128   1_655 S
C259   C261    1.393   .     A
C259   H278    1.081   .     S
C260   H277    1.081   .     S
C260   C263    1.393   .     A
C261   C266    1.411   .     A
C261   C264    1.414   .     A
C262   O294    1.290   .     A
C262   C273    1.397   .     S
C262   O192    1.266   1_655 S
C263   C267    1.411   .     A
C263   C265    1.414   .     A
C264   C720    1.392   .     S
C265   C721    1.392   1_554 S
C266   C269    1.422   .     A
C266   C717    1.418   .     S
C267   C268    1.422   .     A
C267   C716    1.418   1_554 S
C268   C270    1.391   .     A
C268   I285    2.134   .     S
C269   I286    2.134   .     S
C269   C271    1.391   .     A
C270   H275    1.084   .     S
C270   C714    1.392   1_554 S
C271   H276    1.084   .     S
C271   C715    1.392   .     S
C272   C373    1.356   .     S
C272   I437    2.157   .     S
C273   C22     1.356   1_655 S
C274   O297    1.301   .     A
H281   N289    1.029   .     S
H282   N290    1.029   .     S
I284   C157    2.128   1_655 S
I288   C423    2.157   .     S
N289   Zn300   2.010   .     S
N289   N290    1.295   .     D
N290   Zn299   2.010   .     S
O291   Zn299   1.949   .     S
O291   C151    1.266   1_655 S
O292   Zn300   1.949   .     S
O293   Zn300   1.978   .     S
O294   Zn299   1.978   .     S
O295   Zn299   1.944   .     S
O295   C174    1.285   1_655 S
O296   Zn300   1.944   .     S
O297   Zn300   1.889   .     S
O298   Zn299   1.889   .     S
C301   O343    1.290   .     A
C301   C322    1.397   .     S
C301   O441    1.266   1_455 S
C302   C304    1.461   .     S
C302   O348    1.301   .     A
C302   O396    1.285   .     S
C303   C309    1.391   .     A
C303   C324    1.461   .     S
C303   C307    1.415   .     A
C304   C308    1.415   .     A
C304   C310    1.391   .     A
C305   C314    1.400   .     A
C305   H329    1.084   .     S
C305   C307    1.395   .     A
C306   C308    1.395   .     A
C306   C315    1.400   .     A
C306   H330    1.084   .     S
C307   I434    2.128   1_455 S
C308   I383    2.128   .     S
C309   C311    1.393   .     A
C309   H328    1.081   .     S
C310   H327    1.081   .     S
C310   C313    1.393   .     A
C311   C316    1.411   .     A
C311   C314    1.414   .     A
C312   O344    1.290   .     A
C312   C323    1.397   .     S
C312   O392    1.266   .     S
C313   C317    1.411   .     A
C313   C315    1.414   .     A
C314   C770    1.392   .     S
C315   C771    1.392   1_554 S
C316   C319    1.422   .     A
C316   C767    1.418   .     S
C317   C318    1.422   .     A
C317   C766    1.418   1_554 S
C318   C320    1.391   .     A
C318   I335    2.134   .     S
C319   I336    2.134   .     S
C319   C321    1.391   .     A
C320   H325    1.084   .     S
C320   C764    1.392   1_554 S
C321   H326    1.084   .     S
C321   C765    1.392   .     S
C322   C123    1.356   1_465 S
C322   I37     2.157   1_565 S
C324   O347    1.301   .     A
C324   O445    1.285   1_455 S
H331   N339    1.029   .     S
H332   N340    1.029   .     S
I333   C408    2.128   1_455 S
I334   C357    2.128   .     S
I338   C23     2.157   1_565 S
N339   Zn350   2.010   .     S
N339   N340    1.295   .     D
N340   Zn349   2.010   .     S
O341   Zn349   1.949   .     S
O341   C351    1.266   .     S
O342   Zn350   1.949   .     S
O342   C412    1.266   1_455 S
O343   Zn350   1.978   .     S
O344   Zn349   1.978   .     S
O345   Zn349   1.944   .     S
O345   C374    1.285   .     S
O346   Zn350   1.944   .     S
O346   C402    1.285   1_455 S
O347   Zn350   1.889   .     S
O348   Zn349   1.889   .     S
C351   O393    1.290   .     A
C351   C372    1.397   .     S
C352   C354    1.461   .     S
C352   O398    1.301   .     A
C352   O446    1.285   .     S
C353   C359    1.391   .     A
C353   C374    1.461   .     S
C353   C357    1.415   .     A
C354   C358    1.415   .     A
C354   C360    1.391   .     A
C355   C364    1.400   .     A
C355   H379    1.084   .     S
C355   C357    1.395   .     A
C356   C358    1.395   .     A
C356   C365    1.400   .     A
C356   H380    1.084   .     S
C358   I433    2.128   .     S
C359   C361    1.393   .     A
C359   H378    1.081   .     S
C360   H377    1.081   .     S
C360   C363    1.393   .     A
C361   C366    1.411   .     A
C361   C364    1.414   .     A
C362   O394    1.290   .     A
C362   C373    1.397   .     S
C362   O442    1.266   .     S
C363   C367    1.411   .     A
C363   C365    1.414   .     A
C364   C820    1.392   .     S
C365   C821    1.392   1_554 S
C366   C369    1.422   .     A
C366   C817    1.418   .     S
C367   C368    1.422   .     A
C367   C816    1.418   1_554 S
C368   C370    1.391   .     A
C368   I385    2.134   .     S
C369   I386    2.134   .     S
C369   C371    1.391   .     A
C370   H375    1.084   .     S
C370   C814    1.392   1_554 S
C371   H376    1.084   .     S
C371   C815    1.392   .     S
C372   C23     1.356   1_565 S
C372   I87     2.157   1_565 S
C374   O397    1.301   .     A
H381   N389    1.029   .     S
H382   N390    1.029   .     S
I384   C407    2.128   .     S
I388   C73     2.157   1_565 S
N389   Zn400   2.010   .     S
N389   N390    1.295   .     D
N390   Zn399   2.010   .     S
O391   Zn399   1.949   .     S
O391   C401    1.266   .     S
O392   Zn400   1.949   .     S
O393   Zn400   1.978   .     S
O394   Zn399   1.978   .     S
O395   Zn399   1.944   .     S
O395   C424    1.285   .     S
O396   Zn400   1.944   .     S
O397   Zn400   1.889   .     S
O398   Zn399   1.889   .     S
C401   O443    1.290   .     A
C401   C422    1.397   .     S
C402   C404    1.461   .     S
C402   O448    1.301   .     A
C402   O346    1.285   1_655 S
C403   C409    1.391   .     A
C403   C424    1.461   .     S
C403   C407    1.415   .     A
C404   C408    1.415   .     A
C404   C410    1.391   .     A
C405   C414    1.400   .     A
C405   H429    1.084   .     S
C405   C407    1.395   .     A
C406   C408    1.395   .     A
C406   C415    1.400   .     A
C406   H430    1.084   .     S
C408   I333    2.128   1_655 S
C409   C411    1.393   .     A
C409   H428    1.081   .     S
C410   H427    1.081   .     S
C410   C413    1.393   .     A
C411   C416    1.411   .     A
C411   C414    1.414   .     A
C412   O444    1.290   .     A
C412   C423    1.397   .     S
C412   O342    1.266   1_655 S
C413   C417    1.411   .     A
C413   C415    1.414   .     A
C414   C870    1.392   .     S
C415   C871    1.392   1_554 S
C416   C419    1.422   .     A
C416   C867    1.418   .     S
C417   C418    1.422   .     A
C417   C866    1.418   1_554 S
C418   C420    1.391   .     A
C418   I435    2.134   .     S
C419   I436    2.134   .     S
C419   C421    1.391   .     A
C420   H425    1.084   .     S
C420   C864    1.392   1_554 S
C421   H426    1.084   .     S
C421   C865    1.392   .     S
C422   C73     1.356   1_565 S
C422   I137    2.157   1_565 S
C423   C172    1.356   1_655 S
C424   O447    1.301   .     A
H431   N439    1.029   .     S
H432   N440    1.029   .     S
I434   C307    2.128   1_655 S
I438   C123    2.157   1_565 S
N439   Zn450   2.010   .     S
N439   N440    1.295   .     D
N440   Zn449   2.010   .     S
O441   Zn449   1.949   .     S
O441   C301    1.266   1_655 S
O442   Zn450   1.949   .     S
O443   Zn450   1.978   .     S
O444   Zn449   1.978   .     S
O445   Zn449   1.944   .     S
O445   C324    1.285   1_655 S
O446   Zn450   1.944   .     S
O447   Zn450   1.889   .     S
O448   Zn449   1.889   .     S
C451   O493    1.290   .     A
C451   C472    1.397   .     S
C451   O591    1.266   1_455 S
C452   C454    1.461   .     S
C452   O498    1.301   .     A
C452   O546    1.285   .     S
C453   C459    1.391   .     A
C453   C474    1.461   .     S
C453   C457    1.415   .     A
C454   C458    1.415   .     A
C454   C460    1.391   .     A
C455   C464    1.400   .     A
C455   H479    1.084   .     S
C455   C457    1.395   .     A
C456   C458    1.395   .     A
C456   C465    1.400   .     A
C456   H480    1.084   .     S
C457   I584    2.128   1_455 S
C458   I533    2.128   .     S
C459   C461    1.393   .     A
C459   H478    1.081   .     S
C460   H477    1.081   .     S
C460   C463    1.393   .     A
C461   C466    1.411   .     A
C461   C464    1.414   .     A
C462   O494    1.290   .     A
C462   C473    1.397   .     S
C462   O542    1.266   .     S
C463   C467    1.411   .     A
C463   C465    1.414   .     A
C464   C20     1.392   1_556 S
C466   C469    1.422   .     A
C466   C17     1.418   1_556 S
C467   C468    1.422   .     A
C468   C470    1.391   .     A
C468   I485    2.134   .     S
C469   I486    2.134   .     S
C469   C471    1.391   .     A
C470   H475    1.084   .     S
C471   H476    1.084   .     S
C471   C15     1.392   1_556 S
C472   C723    1.356   1_455 S
C472   I637    2.157   .     S
C473   C822    1.356   1_545 S
C473   I788    2.157   1_545 S
C474   O497    1.301   .     A
C474   O595    1.285   1_455 S
H481   N489    1.029   .     S
H482   N490    1.029   .     S
I483   C558    2.128   1_455 S
I484   C507    2.128   .     S
I487   C772    2.157   1_545 S
I488   C623    2.157   .     S
N489   Zn500   2.010   .     S
N489   N490    1.295   .     D
N490   Zn499   2.010   .     S
O491   Zn499   1.949   .     S
O491   C501    1.266   .     S
O492   Zn500   1.949   .     S
O492   C562    1.266   1_455 S
O493   Zn500   1.978   .     S
O494   Zn499   1.978   .     S
O495   Zn499   1.944   .     S
O495   C524    1.285   .     S
O496   Zn500   1.944   .     S
O496   C552    1.285   1_455 S
O497   Zn500   1.889   .     S
O498   Zn499   1.889   .     S
C501   O543    1.290   .     A
C501   C522    1.397   .     S
C502   C504    1.461   .     S
C502   O548    1.301   .     A
C502   O596    1.285   .     S
C503   C509    1.391   .     A
C503   C524    1.461   .     S
C503   C507    1.415   .     A
C504   C508    1.415   .     A
C504   C510    1.391   .     A
C505   C514    1.400   .     A
C505   H529    1.084   .     S
C505   C507    1.395   .     A
C506   C508    1.395   .     A
C506   C515    1.400   .     A
C506   H530    1.084   .     S
C508   I583    2.128   .     S
C509   C511    1.393   .     A
C509   H528    1.081   .     S
C510   H527    1.081   .     S
C510   C513    1.393   .     A
C511   C516    1.411   .     A
C511   C514    1.414   .     A
C512   O544    1.290   .     A
C512   C523    1.397   .     S
C512   O592    1.266   .     S
C513   C517    1.411   .     A
C513   C515    1.414   .     A
C514   C70     1.392   1_556 S
C516   C519    1.422   .     A
C516   C67     1.418   1_556 S
C517   C518    1.422   .     A
C518   C520    1.391   .     A
C518   I535    2.134   .     S
C519   I536    2.134   .     S
C519   C521    1.391   .     A
C520   H525    1.084   .     S
C521   H526    1.084   .     S
C521   C65     1.392   1_556 S
C522   C623    1.356   .     S
C522   I687    2.157   .     S
C523   C872    1.356   1_545 S
C523   I838    2.157   1_545 S
C524   O547    1.301   .     A
H531   N539    1.029   .     S
H532   N540    1.029   .     S
I534   C557    2.128   .     S
I537   C822    2.157   1_545 S
I538   C673    2.157   .     S
N539   Zn550   2.010   .     S
N539   N540    1.295   .     D
N540   Zn549   2.010   .     S
O541   Zn549   1.949   .     S
O541   C551    1.266   .     S
O542   Zn550   1.949   .     S
O543   Zn550   1.978   .     S
O544   Zn549   1.978   .     S
O545   Zn549   1.944   .     S
O545   C574    1.285   .     S
O546   Zn550   1.944   .     S
O547   Zn550   1.889   .     S
O548   Zn549   1.889   .     S
C551   O593    1.290   .     A
C551   C572    1.397   .     S
C552   C554    1.461   .     S
C552   O598    1.301   .     A
C552   O496    1.285   1_655 S
C553   C559    1.391   .     A
C553   C574    1.461   .     S
C553   C557    1.415   .     A
C554   C558    1.415   .     A
C554   C560    1.391   .     A
C555   C564    1.400   .     A
C555   H579    1.084   .     S
C555   C557    1.395   .     A
C556   C558    1.395   .     A
C556   C565    1.400   .     A
C556   H580    1.084   .     S
C558   I483    2.128   1_655 S
C559   C561    1.393   .     A
C559   H578    1.081   .     S
C560   H577    1.081   .     S
C560   C563    1.393   .     A
C561   C566    1.411   .     A
C561   C564    1.414   .     A
C562   O594    1.290   .     A
C562   C573    1.397   .     S
C562   O492    1.266   1_655 S
C563   C567    1.411   .     A
C563   C565    1.414   .     A
C564   C120    1.392   1_556 S
C566   C569    1.422   .     A
C566   C117    1.418   1_556 S
C567   C568    1.422   .     A
C568   C570    1.391   .     A
C568   I585    2.134   .     S
C569   I586    2.134   .     S
C569   C571    1.391   .     A
C570   H575    1.084   .     S
C571   H576    1.084   .     S
C571   C115    1.392   1_556 S
C572   C673    1.356   .     S
C572   I737    2.157   .     S
C573   C772    1.356   1_645 S
C573   I888    2.157   1_545 S
C574   O597    1.301   .     A
H581   N589    1.029   .     S
H582   N590    1.029   .     S
I584   C457    2.128   1_655 S
I587   C872    2.157   1_545 S
I588   C723    2.157   .     S
N589   Zn600   2.010   .     S
N589   N590    1.295   .     D
N590   Zn599   2.010   .     S
O591   Zn599   1.949   .     S
O591   C451    1.266   1_655 S
O592   Zn600   1.949   .     S
O593   Zn600   1.978   .     S
O594   Zn599   1.978   .     S
O595   Zn599   1.944   .     S
O595   C474    1.285   1_655 S
O596   Zn600   1.944   .     S
O597   Zn600   1.889   .     S
O598   Zn599   1.889   .     S
C601   O643    1.290   .     A
C601   C622    1.397   .     S
C601   O741    1.266   1_455 S
C602   C604    1.461   .     S
C602   O648    1.301   .     A
C602   O696    1.285   .     S
C603   C609    1.391   .     A
C603   C624    1.461   .     S
C603   C607    1.415   .     A
C604   C608    1.415   .     A
C604   C610    1.391   .     A
C605   C614    1.400   .     A
C605   H629    1.084   .     S
C605   C607    1.395   .     A
C606   C608    1.395   .     A
C606   C615    1.400   .     A
C606   H630    1.084   .     S
C607   I734    2.128   1_455 S
C608   I683    2.128   .     S
C609   C611    1.393   .     A
C609   H628    1.081   .     S
C610   H627    1.081   .     S
C610   C613    1.393   .     A
C611   C616    1.411   .     A
C611   C614    1.414   .     A
C612   O644    1.290   .     A
C612   C623    1.397   .     S
C612   O692    1.266   .     S
C613   C617    1.411   .     A
C613   C615    1.414   .     A
C614   C170    1.392   1_556 S
C616   C619    1.422   .     A
C616   C167    1.418   1_556 S
C617   C618    1.422   .     A
C618   C620    1.391   .     A
C618   I635    2.134   .     S
C619   I636    2.134   .     S
C619   C621    1.391   .     A
C620   H625    1.084   .     S
C621   H626    1.084   .     S
C621   C165    1.392   1_556 S
C622   C873    1.356   1_455 S
C622   I787    2.157   .     S
C624   O647    1.301   .     A
C624   O745    1.285   1_455 S
H631   N639    1.029   .     S
H632   N640    1.029   .     S
I633   C708    2.128   1_455 S
I634   C657    2.128   .     S
I638   C773    2.157   .     S
N639   Zn650   2.010   .     S
N639   N640    1.295   .     D
N640   Zn649   2.010   .     S
O641   Zn649   1.949   .     S
O641   C651    1.266   .     S
O642   Zn650   1.949   .     S
O642   C712    1.266   1_455 S
O643   Zn650   1.978   .     S
O644   Zn649   1.978   .     S
O645   Zn649   1.944   .     S
O645   C674    1.285   .     S
O646   Zn650   1.944   .     S
O646   C702    1.285   1_455 S
O647   Zn650   1.889   .     S
O648   Zn649   1.889   .     S
C651   O693    1.290   .     A
C651   C672    1.397   .     S
C652   C654    1.461   .     S
C652   O698    1.301   .     A
C652   O746    1.285   .     S
C653   C659    1.391   .     A
C653   C674    1.461   .     S
C653   C657    1.415   .     A
C654   C658    1.415   .     A
C654   C660    1.391   .     A
C655   C664    1.400   .     A
C655   H679    1.084   .     S
C655   C657    1.395   .     A
C656   C658    1.395   .     A
C656   C665    1.400   .     A
C656   H680    1.084   .     S
C658   I733    2.128   .     S
C659   C661    1.393   .     A
C659   H678    1.081   .     S
C660   H677    1.081   .     S
C660   C663    1.393   .     A
C661   C666    1.411   .     A
C661   C664    1.414   .     A
C662   O694    1.290   .     A
C662   C673    1.397   .     S
C662   O742    1.266   .     S
C663   C667    1.411   .     A
C663   C665    1.414   .     A
C664   C220    1.392   1_556 S
C666   C669    1.422   .     A
C666   C217    1.418   1_556 S
C667   C668    1.422   .     A
C668   C670    1.391   .     A
C668   I685    2.134   .     S
C669   I686    2.134   .     S
C669   C671    1.391   .     A
C670   H675    1.084   .     S
C671   H676    1.084   .     S
C671   C215    1.392   1_556 S
C672   C773    1.356   .     S
C672   I837    2.157   .     S
C674   O697    1.301   .     A
H681   N689    1.029   .     S
H682   N690    1.029   .     S
I684   C707    2.128   .     S
I688   C823    2.157   .     S
N689   Zn700   2.010   .     S
N689   N690    1.295   .     D
N690   Zn699   2.010   .     S
O691   Zn699   1.949   .     S
O691   C701    1.266   .     S
O692   Zn700   1.949   .     S
O693   Zn700   1.978   .     S
O694   Zn699   1.978   .     S
O695   Zn699   1.944   .     S
O695   C724    1.285   .     S
O696   Zn700   1.944   .     S
O697   Zn700   1.889   .     S
O698   Zn699   1.889   .     S
C701   O743    1.290   .     A
C701   C722    1.397   .     S
C702   C704    1.461   .     S
C702   O748    1.301   .     A
C702   O646    1.285   1_655 S
C703   C709    1.391   .     A
C703   C724    1.461   .     S
C703   C707    1.415   .     A
C704   C708    1.415   .     A
C704   C710    1.391   .     A
C705   C714    1.400   .     A
C705   H729    1.084   .     S
C705   C707    1.395   .     A
C706   C708    1.395   .     A
C706   C715    1.400   .     A
C706   H730    1.084   .     S
C708   I633    2.128   1_655 S
C709   C711    1.393   .     A
C709   H728    1.081   .     S
C710   H727    1.081   .     S
C710   C713    1.393   .     A
C711   C716    1.411   .     A
C711   C714    1.414   .     A
C712   O744    1.290   .     A
C712   C723    1.397   .     S
C712   O642    1.266   1_655 S
C713   C717    1.411   .     A
C713   C715    1.414   .     A
C714   C270    1.392   1_556 S
C716   C719    1.422   .     A
C716   C267    1.418   1_556 S
C717   C718    1.422   .     A
C718   C720    1.391   .     A
C718   I735    2.134   .     S
C719   I736    2.134   .     S
C719   C721    1.391   .     A
C720   H725    1.084   .     S
C721   H726    1.084   .     S
C721   C265    1.392   1_556 S
C722   C823    1.356   .     S
C722   I887    2.157   .     S
C723   C472    1.356   1_655 S
C724   O747    1.301   .     A
H731   N739    1.029   .     S
H732   N740    1.029   .     S
I734   C607    2.128   1_655 S
I738   C873    2.157   .     S
N739   Zn750   2.010   .     S
N739   N740    1.295   .     D
N740   Zn749   2.010   .     S
O741   Zn749   1.949   .     S
O741   C601    1.266   1_655 S
O742   Zn750   1.949   .     S
O743   Zn750   1.978   .     S
O744   Zn749   1.978   .     S
O745   Zn749   1.944   .     S
O745   C624    1.285   1_655 S
O746   Zn750   1.944   .     S
O747   Zn750   1.889   .     S
O748   Zn749   1.889   .     S
C751   O793    1.290   .     A
C751   C772    1.397   .     S
C751   O891    1.266   1_455 S
C752   C754    1.461   .     S
C752   O798    1.301   .     A
C752   O846    1.285   .     S
C753   C759    1.391   .     A
C753   C774    1.461   .     S
C753   C757    1.415   .     A
C754   C758    1.415   .     A
C754   C760    1.391   .     A
C755   C764    1.400   .     A
C755   H779    1.084   .     S
C755   C757    1.395   .     A
C756   C758    1.395   .     A
C756   C765    1.400   .     A
C756   H780    1.084   .     S
C757   I884    2.128   1_455 S
C758   I833    2.128   .     S
C759   C761    1.393   .     A
C759   H778    1.081   .     S
C760   H777    1.081   .     S
C760   C763    1.393   .     A
C761   C766    1.411   .     A
C761   C764    1.414   .     A
C762   O794    1.290   .     A
C762   C773    1.397   .     S
C762   O842    1.266   .     S
C763   C767    1.411   .     A
C763   C765    1.414   .     A
C764   C320    1.392   1_556 S
C766   C769    1.422   .     A
C766   C317    1.418   1_556 S
C767   C768    1.422   .     A
C768   C770    1.391   .     A
C768   I785    2.134   .     S
C769   I786    2.134   .     S
C769   C771    1.391   .     A
C770   H775    1.084   .     S
C771   H776    1.084   .     S
C771   C315    1.392   1_556 S
C772   C573    1.356   1_465 S
C772   I487    2.157   1_565 S
C774   O797    1.301   .     A
C774   O895    1.285   1_455 S
H781   N789    1.029   .     S
H782   N790    1.029   .     S
I783   C858    2.128   1_455 S
I784   C807    2.128   .     S
I788   C473    2.157   1_565 S
N789   Zn800   2.010   .     S
N789   N790    1.295   .     D
N790   Zn799   2.010   .     S
O791   Zn799   1.949   .     S
O791   C801    1.266   .     S
O792   Zn800   1.949   .     S
O792   C862    1.266   1_455 S
O793   Zn800   1.978   .     S
O794   Zn799   1.978   .     S
O795   Zn799   1.944   .     S
O795   C824    1.285   .     S
O796   Zn800   1.944   .     S
O796   C852    1.285   1_455 S
O797   Zn800   1.889   .     S
O798   Zn799   1.889   .     S
C801   O843    1.290   .     A
C801   C822    1.397   .     S
C802   C804    1.461   .     S
C802   O848    1.301   .     A
C802   O896    1.285   .     S
C803   C809    1.391   .     A
C803   C824    1.461   .     S
C803   C807    1.415   .     A
C804   C808    1.415   .     A
C804   C810    1.391   .     A
C805   C814    1.400   .     A
C805   H829    1.084   .     S
C805   C807    1.395   .     A
C806   C808    1.395   .     A
C806   C815    1.400   .     A
C806   H830    1.084   .     S
C808   I883    2.128   .     S
C809   C811    1.393   .     A
C809   H828    1.081   .     S
C810   H827    1.081   .     S
C810   C813    1.393   .     A
C811   C816    1.411   .     A
C811   C814    1.414   .     A
C812   O844    1.290   .     A
C812   C823    1.397   .     S
C812   O892    1.266   .     S
C813   C817    1.411   .     A
C813   C815    1.414   .     A
C814   C370    1.392   1_556 S
C816   C819    1.422   .     A
C816   C367    1.418   1_556 S
C817   C818    1.422   .     A
C818   C820    1.391   .     A
C818   I835    2.134   .     S
C819   I836    2.134   .     S
C819   C821    1.391   .     A
C820   H825    1.084   .     S
C821   H826    1.084   .     S
C821   C365    1.392   1_556 S
C822   C473    1.356   1_565 S
C822   I537    2.157   1_565 S
C824   O847    1.301   .     A
H831   N839    1.029   .     S
H832   N840    1.029   .     S
I834   C857    2.128   .     S
I838   C523    2.157   1_565 S
N839   Zn850   2.010   .     S
N839   N840    1.295   .     D
N840   Zn849   2.010   .     S
O841   Zn849   1.949   .     S
O841   C851    1.266   .     S
O842   Zn850   1.949   .     S
O843   Zn850   1.978   .     S
O844   Zn849   1.978   .     S
O845   Zn849   1.944   .     S
O845   C874    1.285   .     S
O846   Zn850   1.944   .     S
O847   Zn850   1.889   .     S
O848   Zn849   1.889   .     S
C851   O893    1.290   .     A
C851   C872    1.397   .     S
C852   C854    1.461   .     S
C852   O898    1.301   .     A
C852   O796    1.285   1_655 S
C853   C859    1.391   .     A
C853   C874    1.461   .     S
C853   C857    1.415   .     A
C854   C858    1.415   .     A
C854   C860    1.391   .     A
C855   C864    1.400   .     A
C855   H879    1.084   .     S
C855   C857    1.395   .     A
C856   C858    1.395   .     A
C856   C865    1.400   .     A
C856   H880    1.084   .     S
C858   I783    2.128   1_655 S
C859   C861    1.393   .     A
C859   H878    1.081   .     S
C860   H877    1.081   .     S
C860   C863    1.393   .     A
C861   C866    1.411   .     A
C861   C864    1.414   .     A
C862   O894    1.290   .     A
C862   C873    1.397   .     S
C862   O792    1.266   1_655 S
C863   C867    1.411   .     A
C863   C865    1.414   .     A
C864   C420    1.392   1_556 S
C866   C869    1.422   .     A
C866   C417    1.418   1_556 S
C867   C868    1.422   .     A
C868   C870    1.391   .     A
C868   I885    2.134   .     S
C869   I886    2.134   .     S
C869   C871    1.391   .     A
C870   H875    1.084   .     S
C871   H876    1.084   .     S
C871   C415    1.392   1_556 S
C872   C523    1.356   1_565 S
C872   I587    2.157   1_565 S
C873   C622    1.356   1_655 S
C874   O897    1.301   .     A
H881   N889    1.029   .     S
H882   N890    1.029   .     S
I884   C757    2.128   1_655 S
I888   C573    2.157   1_565 S
N889   Zn900   2.010   .     S
N889   N890    1.295   .     D
N890   Zn899   2.010   .     S
O891   Zn899   1.949   .     S
O891   C751    1.266   1_655 S
O892   Zn900   1.949   .     S
O893   Zn900   1.978   .     S
O894   Zn899   1.978   .     S
O895   Zn899   1.944   .     S
O895   C774    1.285   1_655 S
O896   Zn900   1.944   .     S
O897   Zn900   1.889   .     S
O898   Zn899   1.889   .     S
