data_str_m3_o1_o2_pcu_sym.68
_audit_creation_date              2020-01-03
_audit_creation_method            'Materials Studio'
_symmetry_space_group_name_H-M    'P1'
_symmetry_Int_Tables_number       1
_symmetry_cell_setting            triclinic
loop_
_symmetry_equiv_pos_as_xyz
  x,y,z
_cell_length_a                    32.3478
_cell_length_b                    29.8390
_cell_length_c                    30.1814
_cell_angle_alpha                 92.3044
_cell_angle_beta                  93.2783
_cell_angle_gamma                 90.5608
loop_
_atom_site_label
_atom_site_type_symbol
_atom_site_fract_x
_atom_site_fract_y
_atom_site_fract_z
_atom_site_U_iso_or_equiv
_atom_site_adp_type
_atom_site_occupancy
C1     C     0.08678   0.16670   0.25330   0.00000  Uiso   1.00
C2     C     0.31227   0.20775   0.24091   0.00000  Uiso   1.00
C3     C     0.31148   0.12590   0.23872   0.00000  Uiso   1.00
C4     C     0.02077   0.20809   0.25324   0.00000  Uiso   1.00
C5     C     0.18233   0.20248   0.04810   0.00000  Uiso   1.00
C6     C     0.14936   0.13091   0.45038   0.00000  Uiso   1.00
C7     C     0.15303   0.21188   0.45357   0.00000  Uiso   1.00
C8     C     0.13857   0.13624   0.04521   0.00000  Uiso   1.00
C9     C     0.18908   0.19936   0.09383   0.00000  Uiso   1.00
C10    C     0.14412   0.13042   0.40459   0.00000  Uiso   1.00
C11    C     0.15245   0.21206   0.40744   0.00000  Uiso   1.00
C12    C     0.24610   0.16667   0.24511   0.00000  Uiso   1.00
C13    C     0.14933   0.12903   0.08926   0.00000  Uiso   1.00
C14    C     0.17055   0.16351   0.11532   0.00000  Uiso   1.00
C15    C     0.15200   0.17034   0.38259   0.00000  Uiso   1.00
C16    C     0.15673   0.17128   0.02375   0.00000  Uiso   1.00
C17    C     0.15333   0.17148   0.47520   0.00000  Uiso   1.00
C18    C     0.29023   0.16679   0.23888   0.00000  Uiso   1.00
C19    C     0.04200   0.16693   0.25541   0.00000  Uiso   1.00
C20    C     0.21814   0.05118   0.31359   0.00000  Uiso   1.00
C21    C     0.12075   0.28242   0.18222   0.00000  Uiso   1.00
C22    C     0.10223   0.04188   0.19854   0.00000  Uiso   1.00
C23    C     0.16836   0.16565   0.16386   0.00000  Uiso   1.00
C24    C     0.22915   0.29028   0.30361   0.00000  Uiso   1.00
C25    C     0.21934   0.23095   0.11705   0.00000  Uiso   1.00
C26    C     0.12465   0.08962   0.38223   0.00000  Uiso   1.00
C27    C     0.14928   0.25642   0.38719   0.00000  Uiso   1.00
C28    C     0.14268   0.08280   0.10352   0.00000  Uiso   1.00
C29    C     0.03700   0.08459   0.26807   0.00000  Uiso   1.00
C30    C     0.29368   0.24896   0.22581   0.00000  Uiso   1.00
C31    C     0.29186   0.08411   0.22180   0.00000  Uiso   1.00
C32    C     0.04017   0.25089   0.26709   0.00000  Uiso   1.00
C33    C     0.16207   0.16767   0.33552   0.00000  Uiso   1.00
C34    C     0.19348   0.02565   0.27815   0.00000  Uiso   1.00
C35    C     0.14100   0.30759   0.22084   0.00000  Uiso   1.00
C36    C     0.13861   0.02195   0.22292   0.00000  Uiso   1.00
C37    C     0.19445   0.31114   0.27745   0.00000  Uiso   1.00
C38    C     0.01972   0.12596   0.25206   0.00000  Uiso   1.00
H39    H     0.19860   0.22811   0.03126   0.00000  Uiso   1.00
H40    H     0.11144   0.02376   0.38523   0.00000  Uiso   1.00
H41    H     0.12202   0.29392   0.33999   0.00000  Uiso   1.00
H42    H     0.10578   0.02762   0.09953   0.00000  Uiso   1.00
H43    H     0.14885   0.09925   0.46654   0.00000  Uiso   1.00
H44    H     0.15275   0.24343   0.47266   0.00000  Uiso   1.00
H45    H     0.11842   0.11204   0.02682   0.00000  Uiso   1.00
H46    H     0.22580   0.06781   0.37896   0.00000  Uiso   1.00
H47    H     0.11941   0.26933   0.11609   0.00000  Uiso   1.00
H48    H     0.04243   0.03450   0.17563   0.00000  Uiso   1.00
H49    H     0.29013   0.29213   0.32257   0.00000  Uiso   1.00
H50    H     0.24439   0.29328   0.12182   0.00000  Uiso   1.00
N51    N     0.16667   0.28573   0.25000   0.00000  Uiso   1.00
N52    N     0.16667   0.04760   0.25000   0.00000  Uiso   1.00
N53    N     0.04998   0.05145   0.28142   0.00000  Uiso   1.00
N54    N     0.27933   0.28179   0.21317   0.00000  Uiso   1.00
N55    N     0.27629   0.05093   0.20805   0.00000  Uiso   1.00
N56    N     0.05532   0.28508   0.27823   0.00000  Uiso   1.00
O57    O     0.10559   0.20487   0.24999   0.00000  Uiso   1.00
O58    O     0.20612   0.05027   0.35722   0.00000  Uiso   1.00
O59    O     0.09011   0.25913   0.18632   0.00000  Uiso   1.00
O60    O     0.13583   0.28756   0.14025   0.00000  Uiso   1.00
O61    O     0.10433   0.07849   0.18279   0.00000  Uiso   1.00
O62    O     0.06477   0.01783   0.19298   0.00000  Uiso   1.00
O63    O     0.22306   0.25963   0.32780   0.00000  Uiso   1.00
O64    O     0.26918   0.30832   0.30289   0.00000  Uiso   1.00
O65    O     0.24289   0.21780   0.14666   0.00000  Uiso   1.00
O66    O     0.22227   0.27515   0.10368   0.00000  Uiso   1.00
O67    O     0.10204   0.09285   0.34876   0.00000  Uiso   1.00
O68    O     0.22774   0.12846   0.25000   0.00000  Uiso   1.00
O69    O     0.12902   0.04804   0.40165   0.00000  Uiso   1.00
O70    O     0.17149   0.28760   0.40192   0.00000  Uiso   1.00
O71    O     0.11962   0.26314   0.35265   0.00000  Uiso   1.00
O72    O     0.17044   0.06353   0.12406   0.00000  Uiso   1.00
O73    O     0.10604   0.05969   0.08971   0.00000  Uiso   1.00
O74    O     0.22774   0.20487   0.25000   0.00000  Uiso   1.00
O75    O     0.10559   0.12846   0.24999   0.00000  Uiso   1.00
O76    O     0.16666   0.20489   0.18453   0.00000  Uiso   1.00
O77    O     0.16667   0.12845   0.31547   0.00000  Uiso   1.00
O78    O     0.16667   0.20489   0.31547   0.00000  Uiso   1.00
O79    O     0.16666   0.12845   0.18453   0.00000  Uiso   1.00
O80    O     0.25070   0.06936   0.30572   0.00000  Uiso   1.00
Zn81   Zn    0.16667   0.21771   0.25000   0.00000  Uiso   1.00
Zn82   Zn    0.16667   0.11563   0.25000   0.00000  Uiso   1.00
C83    C     0.42011   0.16670   0.25330   0.00000  Uiso   1.00
C84    C     0.64561   0.20775   0.24091   0.00000  Uiso   1.00
C85    C     0.64481   0.12590   0.23872   0.00000  Uiso   1.00
C86    C     0.35410   0.20809   0.25324   0.00000  Uiso   1.00
C87    C     0.51566   0.20248   0.04810   0.00000  Uiso   1.00
C88    C     0.48269   0.13091   0.45038   0.00000  Uiso   1.00
C89    C     0.48636   0.21188   0.45357   0.00000  Uiso   1.00
C90    C     0.47190   0.13624   0.04521   0.00000  Uiso   1.00
C91    C     0.52241   0.19936   0.09383   0.00000  Uiso   1.00
C92    C     0.47745   0.13042   0.40459   0.00000  Uiso   1.00
C93    C     0.48578   0.21206   0.40744   0.00000  Uiso   1.00
C94    C     0.57944   0.16667   0.24511   0.00000  Uiso   1.00
C95    C     0.48266   0.12903   0.08926   0.00000  Uiso   1.00
C96    C     0.50389   0.16351   0.11532   0.00000  Uiso   1.00
C97    C     0.48533   0.17034   0.38259   0.00000  Uiso   1.00
C98    C     0.49006   0.17128   0.02375   0.00000  Uiso   1.00
C99    C     0.48667   0.17148   0.47520   0.00000  Uiso   1.00
C100   C     0.62356   0.16679   0.23888   0.00000  Uiso   1.00
C101   C     0.37533   0.16693   0.25541   0.00000  Uiso   1.00
C102   C     0.55148   0.05118   0.31359   0.00000  Uiso   1.00
C103   C     0.45408   0.28242   0.18222   0.00000  Uiso   1.00
C104   C     0.43556   0.04188   0.19854   0.00000  Uiso   1.00
C105   C     0.50169   0.16565   0.16386   0.00000  Uiso   1.00
C106   C     0.56249   0.29028   0.30361   0.00000  Uiso   1.00
C107   C     0.55267   0.23095   0.11705   0.00000  Uiso   1.00
C108   C     0.45799   0.08962   0.38223   0.00000  Uiso   1.00
C109   C     0.48262   0.25642   0.38719   0.00000  Uiso   1.00
C110   C     0.47601   0.08280   0.10352   0.00000  Uiso   1.00
C111   C     0.37033   0.08459   0.26807   0.00000  Uiso   1.00
C112   C     0.62702   0.24896   0.22581   0.00000  Uiso   1.00
C113   C     0.62519   0.08411   0.22180   0.00000  Uiso   1.00
C114   C     0.37351   0.25089   0.26709   0.00000  Uiso   1.00
C115   C     0.49541   0.16767   0.33552   0.00000  Uiso   1.00
C116   C     0.52682   0.02565   0.27815   0.00000  Uiso   1.00
C117   C     0.47433   0.30759   0.22084   0.00000  Uiso   1.00
C118   C     0.47194   0.02195   0.22292   0.00000  Uiso   1.00
C119   C     0.52778   0.31114   0.27745   0.00000  Uiso   1.00
C120   C     0.35305   0.12596   0.25206   0.00000  Uiso   1.00
H121   H     0.53193   0.22811   0.03126   0.00000  Uiso   1.00
H122   H     0.44478   0.02376   0.38523   0.00000  Uiso   1.00
H123   H     0.45535   0.29392   0.33999   0.00000  Uiso   1.00
H124   H     0.43911   0.02762   0.09953   0.00000  Uiso   1.00
H125   H     0.48218   0.09925   0.46654   0.00000  Uiso   1.00
H126   H     0.48608   0.24343   0.47266   0.00000  Uiso   1.00
H127   H     0.45175   0.11204   0.02682   0.00000  Uiso   1.00
H128   H     0.55913   0.06781   0.37896   0.00000  Uiso   1.00
H129   H     0.45274   0.26933   0.11609   0.00000  Uiso   1.00
H130   H     0.37576   0.03450   0.17563   0.00000  Uiso   1.00
H131   H     0.62346   0.29213   0.32257   0.00000  Uiso   1.00
H132   H     0.57772   0.29328   0.12182   0.00000  Uiso   1.00
N133   N     0.50000   0.28573   0.25000   0.00000  Uiso   1.00
N134   N     0.50000   0.04760   0.25000   0.00000  Uiso   1.00
N135   N     0.38332   0.05145   0.28142   0.00000  Uiso   1.00
N136   N     0.61266   0.28179   0.21317   0.00000  Uiso   1.00
N137   N     0.60963   0.05093   0.20805   0.00000  Uiso   1.00
N138   N     0.38865   0.28508   0.27823   0.00000  Uiso   1.00
O139   O     0.43892   0.20487   0.24999   0.00000  Uiso   1.00
O140   O     0.53945   0.05027   0.35722   0.00000  Uiso   1.00
O141   O     0.42344   0.25913   0.18632   0.00000  Uiso   1.00
O142   O     0.46916   0.28756   0.14025   0.00000  Uiso   1.00
O143   O     0.43766   0.07849   0.18279   0.00000  Uiso   1.00
O144   O     0.39811   0.01783   0.19298   0.00000  Uiso   1.00
O145   O     0.55640   0.25963   0.32780   0.00000  Uiso   1.00
O146   O     0.60252   0.30832   0.30289   0.00000  Uiso   1.00
O147   O     0.57623   0.21780   0.14666   0.00000  Uiso   1.00
O148   O     0.55561   0.27515   0.10368   0.00000  Uiso   1.00
O149   O     0.43537   0.09285   0.34876   0.00000  Uiso   1.00
O150   O     0.56108   0.12846   0.25000   0.00000  Uiso   1.00
O151   O     0.46235   0.04804   0.40165   0.00000  Uiso   1.00
O152   O     0.50482   0.28760   0.40192   0.00000  Uiso   1.00
O153   O     0.45296   0.26314   0.35265   0.00000  Uiso   1.00
O154   O     0.50377   0.06353   0.12406   0.00000  Uiso   1.00
O155   O     0.43937   0.05969   0.08971   0.00000  Uiso   1.00
O156   O     0.56108   0.20487   0.25000   0.00000  Uiso   1.00
O157   O     0.43892   0.12846   0.24999   0.00000  Uiso   1.00
O158   O     0.50000   0.20489   0.18453   0.00000  Uiso   1.00
O159   O     0.50000   0.12845   0.31547   0.00000  Uiso   1.00
O160   O     0.50000   0.20489   0.31547   0.00000  Uiso   1.00
O161   O     0.50000   0.12845   0.18453   0.00000  Uiso   1.00
O162   O     0.58403   0.06936   0.30572   0.00000  Uiso   1.00
Zn163  Zn    0.50000   0.21771   0.25000   0.00000  Uiso   1.00
Zn164  Zn    0.50000   0.11563   0.25000   0.00000  Uiso   1.00
C165   C     0.75345   0.16670   0.25330   0.00000  Uiso   1.00
C166   C     0.97894   0.20775   0.24091   0.00000  Uiso   1.00
C167   C     0.97814   0.12590   0.23872   0.00000  Uiso   1.00
C168   C     0.68743   0.20809   0.25324   0.00000  Uiso   1.00
C169   C     0.84900   0.20248   0.04810   0.00000  Uiso   1.00
C170   C     0.81603   0.13091   0.45038   0.00000  Uiso   1.00
C171   C     0.81969   0.21188   0.45357   0.00000  Uiso   1.00
C172   C     0.80523   0.13624   0.04521   0.00000  Uiso   1.00
C173   C     0.85574   0.19936   0.09383   0.00000  Uiso   1.00
C174   C     0.81079   0.13042   0.40459   0.00000  Uiso   1.00
C175   C     0.81911   0.21206   0.40744   0.00000  Uiso   1.00
C176   C     0.91277   0.16667   0.24511   0.00000  Uiso   1.00
C177   C     0.81599   0.12903   0.08926   0.00000  Uiso   1.00
C178   C     0.83722   0.16351   0.11532   0.00000  Uiso   1.00
C179   C     0.81866   0.17034   0.38259   0.00000  Uiso   1.00
C180   C     0.82339   0.17128   0.02375   0.00000  Uiso   1.00
C181   C     0.82000   0.17148   0.47520   0.00000  Uiso   1.00
C182   C     0.95690   0.16679   0.23888   0.00000  Uiso   1.00
C183   C     0.70866   0.16693   0.25541   0.00000  Uiso   1.00
C184   C     0.88481   0.05118   0.31359   0.00000  Uiso   1.00
C185   C     0.78741   0.28242   0.18222   0.00000  Uiso   1.00
C186   C     0.76890   0.04188   0.19854   0.00000  Uiso   1.00
C187   C     0.83503   0.16565   0.16386   0.00000  Uiso   1.00
C188   C     0.89582   0.29028   0.30361   0.00000  Uiso   1.00
C189   C     0.88600   0.23095   0.11705   0.00000  Uiso   1.00
C190   C     0.79132   0.08962   0.38223   0.00000  Uiso   1.00
C191   C     0.81595   0.25642   0.38719   0.00000  Uiso   1.00
C192   C     0.80935   0.08280   0.10352   0.00000  Uiso   1.00
C193   C     0.70367   0.08459   0.26807   0.00000  Uiso   1.00
C194   C     0.96035   0.24896   0.22581   0.00000  Uiso   1.00
C195   C     0.95852   0.08411   0.22180   0.00000  Uiso   1.00
C196   C     0.70684   0.25089   0.26709   0.00000  Uiso   1.00
C197   C     0.82874   0.16767   0.33552   0.00000  Uiso   1.00
C198   C     0.86015   0.02565   0.27815   0.00000  Uiso   1.00
C199   C     0.80766   0.30759   0.22084   0.00000  Uiso   1.00
C200   C     0.80528   0.02195   0.22292   0.00000  Uiso   1.00
C201   C     0.86111   0.31114   0.27745   0.00000  Uiso   1.00
C202   C     0.68639   0.12596   0.25206   0.00000  Uiso   1.00
H203   H     0.86526   0.22811   0.03126   0.00000  Uiso   1.00
H204   H     0.77811   0.02376   0.38523   0.00000  Uiso   1.00
H205   H     0.78868   0.29392   0.33999   0.00000  Uiso   1.00
H206   H     0.77245   0.02762   0.09953   0.00000  Uiso   1.00
H207   H     0.81551   0.09925   0.46654   0.00000  Uiso   1.00
H208   H     0.81942   0.24343   0.47266   0.00000  Uiso   1.00
H209   H     0.78509   0.11204   0.02682   0.00000  Uiso   1.00
H210   H     0.89246   0.06781   0.37896   0.00000  Uiso   1.00
H211   H     0.78607   0.26933   0.11609   0.00000  Uiso   1.00
H212   H     0.70910   0.03450   0.17563   0.00000  Uiso   1.00
H213   H     0.95679   0.29213   0.32257   0.00000  Uiso   1.00
H214   H     0.91105   0.29328   0.12182   0.00000  Uiso   1.00
N215   N     0.83333   0.28573   0.25000   0.00000  Uiso   1.00
N216   N     0.83333   0.04760   0.25000   0.00000  Uiso   1.00
N217   N     0.71665   0.05145   0.28142   0.00000  Uiso   1.00
N218   N     0.94599   0.28179   0.21317   0.00000  Uiso   1.00
N219   N     0.94296   0.05093   0.20805   0.00000  Uiso   1.00
N220   N     0.72199   0.28508   0.27823   0.00000  Uiso   1.00
O221   O     0.77226   0.20487   0.24999   0.00000  Uiso   1.00
O222   O     0.87278   0.05027   0.35722   0.00000  Uiso   1.00
O223   O     0.75678   0.25913   0.18632   0.00000  Uiso   1.00
O224   O     0.80250   0.28756   0.14025   0.00000  Uiso   1.00
O225   O     0.77099   0.07849   0.18279   0.00000  Uiso   1.00
O226   O     0.73144   0.01783   0.19298   0.00000  Uiso   1.00
O227   O     0.88973   0.25963   0.32780   0.00000  Uiso   1.00
O228   O     0.93585   0.30832   0.30289   0.00000  Uiso   1.00
O229   O     0.90956   0.21780   0.14666   0.00000  Uiso   1.00
O230   O     0.88894   0.27515   0.10368   0.00000  Uiso   1.00
O231   O     0.76870   0.09285   0.34876   0.00000  Uiso   1.00
O232   O     0.89441   0.12846   0.25000   0.00000  Uiso   1.00
O233   O     0.79568   0.04804   0.40165   0.00000  Uiso   1.00
O234   O     0.83816   0.28760   0.40192   0.00000  Uiso   1.00
O235   O     0.78629   0.26314   0.35265   0.00000  Uiso   1.00
O236   O     0.83711   0.06353   0.12406   0.00000  Uiso   1.00
O237   O     0.77271   0.05969   0.08971   0.00000  Uiso   1.00
O238   O     0.89441   0.20487   0.25000   0.00000  Uiso   1.00
O239   O     0.77226   0.12846   0.24999   0.00000  Uiso   1.00
O240   O     0.83333   0.20489   0.18453   0.00000  Uiso   1.00
O241   O     0.83334   0.12845   0.31547   0.00000  Uiso   1.00
O242   O     0.83334   0.20489   0.31547   0.00000  Uiso   1.00
O243   O     0.83333   0.12845   0.18453   0.00000  Uiso   1.00
O244   O     0.91736   0.06936   0.30572   0.00000  Uiso   1.00
Zn245  Zn    0.83333   0.21771   0.25000   0.00000  Uiso   1.00
Zn246  Zn    0.83333   0.11563   0.25000   0.00000  Uiso   1.00
C247   C     0.08678   0.50003   0.25330   0.00000  Uiso   1.00
C248   C     0.31227   0.54109   0.24091   0.00000  Uiso   1.00
C249   C     0.31148   0.45924   0.23872   0.00000  Uiso   1.00
C250   C     0.02077   0.54142   0.25324   0.00000  Uiso   1.00
C251   C     0.18233   0.53581   0.04810   0.00000  Uiso   1.00
C252   C     0.14936   0.46424   0.45038   0.00000  Uiso   1.00
C253   C     0.15303   0.54521   0.45357   0.00000  Uiso   1.00
C254   C     0.13857   0.46957   0.04521   0.00000  Uiso   1.00
C255   C     0.18908   0.53269   0.09383   0.00000  Uiso   1.00
C256   C     0.14412   0.46376   0.40459   0.00000  Uiso   1.00
C257   C     0.15245   0.54539   0.40744   0.00000  Uiso   1.00
C258   C     0.24610   0.50000   0.24511   0.00000  Uiso   1.00
C259   C     0.14933   0.46236   0.08926   0.00000  Uiso   1.00
C260   C     0.17055   0.49684   0.11532   0.00000  Uiso   1.00
C261   C     0.15200   0.50367   0.38259   0.00000  Uiso   1.00
C262   C     0.15673   0.50461   0.02375   0.00000  Uiso   1.00
C263   C     0.15333   0.50481   0.47520   0.00000  Uiso   1.00
C264   C     0.29023   0.50013   0.23888   0.00000  Uiso   1.00
C265   C     0.04200   0.50027   0.25541   0.00000  Uiso   1.00
C266   C     0.21814   0.38451   0.31359   0.00000  Uiso   1.00
C267   C     0.12075   0.61575   0.18222   0.00000  Uiso   1.00
C268   C     0.10223   0.37521   0.19854   0.00000  Uiso   1.00
C269   C     0.16836   0.49898   0.16386   0.00000  Uiso   1.00
C270   C     0.22915   0.62361   0.30361   0.00000  Uiso   1.00
C271   C     0.21934   0.56429   0.11705   0.00000  Uiso   1.00
C272   C     0.12465   0.42295   0.38223   0.00000  Uiso   1.00
C273   C     0.14928   0.58975   0.38719   0.00000  Uiso   1.00
C274   C     0.14268   0.41614   0.10352   0.00000  Uiso   1.00
C275   C     0.03700   0.41792   0.26807   0.00000  Uiso   1.00
C276   C     0.29368   0.58230   0.22581   0.00000  Uiso   1.00
C277   C     0.29186   0.41745   0.22180   0.00000  Uiso   1.00
C278   C     0.04017   0.58423   0.26709   0.00000  Uiso   1.00
C279   C     0.16207   0.50100   0.33552   0.00000  Uiso   1.00
C280   C     0.19348   0.35898   0.27815   0.00000  Uiso   1.00
C281   C     0.14100   0.64093   0.22084   0.00000  Uiso   1.00
C282   C     0.13861   0.35529   0.22292   0.00000  Uiso   1.00
C283   C     0.19445   0.64447   0.27745   0.00000  Uiso   1.00
C284   C     0.01972   0.45929   0.25206   0.00000  Uiso   1.00
H285   H     0.19860   0.56145   0.03126   0.00000  Uiso   1.00
H286   H     0.11144   0.35709   0.38523   0.00000  Uiso   1.00
H287   H     0.12202   0.62725   0.33999   0.00000  Uiso   1.00
H288   H     0.10578   0.36096   0.09953   0.00000  Uiso   1.00
H289   H     0.14885   0.43259   0.46654   0.00000  Uiso   1.00
H290   H     0.15275   0.57676   0.47266   0.00000  Uiso   1.00
H291   H     0.11842   0.44538   0.02682   0.00000  Uiso   1.00
H292   H     0.22580   0.40114   0.37896   0.00000  Uiso   1.00
H293   H     0.11941   0.60266   0.11609   0.00000  Uiso   1.00
H294   H     0.04243   0.36783   0.17563   0.00000  Uiso   1.00
H295   H     0.29013   0.62546   0.32257   0.00000  Uiso   1.00
H296   H     0.24439   0.62662   0.12182   0.00000  Uiso   1.00
N297   N     0.16667   0.61907   0.25000   0.00000  Uiso   1.00
N298   N     0.16667   0.38093   0.25000   0.00000  Uiso   1.00
N299   N     0.04998   0.38478   0.28142   0.00000  Uiso   1.00
N300   N     0.27933   0.61512   0.21317   0.00000  Uiso   1.00
N301   N     0.27629   0.38426   0.20805   0.00000  Uiso   1.00
N302   N     0.05532   0.61841   0.27823   0.00000  Uiso   1.00
O303   O     0.10559   0.53821   0.24999   0.00000  Uiso   1.00
O304   O     0.20612   0.38360   0.35722   0.00000  Uiso   1.00
O305   O     0.09011   0.59247   0.18632   0.00000  Uiso   1.00
O306   O     0.13583   0.62089   0.14025   0.00000  Uiso   1.00
O307   O     0.10433   0.41183   0.18279   0.00000  Uiso   1.00
O308   O     0.06477   0.35116   0.19298   0.00000  Uiso   1.00
O309   O     0.22306   0.59297   0.32780   0.00000  Uiso   1.00
O310   O     0.26918   0.64166   0.30289   0.00000  Uiso   1.00
O311   O     0.24289   0.55113   0.14666   0.00000  Uiso   1.00
O312   O     0.22227   0.60849   0.10368   0.00000  Uiso   1.00
O313   O     0.10204   0.42618   0.34876   0.00000  Uiso   1.00
O314   O     0.22774   0.46179   0.25000   0.00000  Uiso   1.00
O315   O     0.12902   0.38138   0.40165   0.00000  Uiso   1.00
O316   O     0.17149   0.62093   0.40192   0.00000  Uiso   1.00
O317   O     0.11962   0.59647   0.35265   0.00000  Uiso   1.00
O318   O     0.17044   0.39687   0.12406   0.00000  Uiso   1.00
O319   O     0.10604   0.39303   0.08971   0.00000  Uiso   1.00
O320   O     0.22774   0.53821   0.25000   0.00000  Uiso   1.00
O321   O     0.10559   0.46179   0.24999   0.00000  Uiso   1.00
O322   O     0.16666   0.53822   0.18453   0.00000  Uiso   1.00
O323   O     0.16667   0.46178   0.31547   0.00000  Uiso   1.00
O324   O     0.16667   0.53822   0.31547   0.00000  Uiso   1.00
O325   O     0.16666   0.46178   0.18453   0.00000  Uiso   1.00
O326   O     0.25070   0.40269   0.30572   0.00000  Uiso   1.00
Zn327  Zn    0.16667   0.55104   0.25000   0.00000  Uiso   1.00
Zn328  Zn    0.16667   0.44896   0.25000   0.00000  Uiso   1.00
C329   C     0.42011   0.50003   0.25330   0.00000  Uiso   1.00
C330   C     0.64561   0.54109   0.24091   0.00000  Uiso   1.00
C331   C     0.64481   0.45924   0.23872   0.00000  Uiso   1.00
C332   C     0.35410   0.54142   0.25324   0.00000  Uiso   1.00
C333   C     0.51566   0.53581   0.04810   0.00000  Uiso   1.00
C334   C     0.48269   0.46424   0.45038   0.00000  Uiso   1.00
C335   C     0.48636   0.54521   0.45357   0.00000  Uiso   1.00
C336   C     0.47190   0.46957   0.04521   0.00000  Uiso   1.00
C337   C     0.52241   0.53269   0.09383   0.00000  Uiso   1.00
C338   C     0.47745   0.46376   0.40459   0.00000  Uiso   1.00
C339   C     0.48578   0.54539   0.40744   0.00000  Uiso   1.00
C340   C     0.57944   0.50000   0.24511   0.00000  Uiso   1.00
C341   C     0.48266   0.46236   0.08926   0.00000  Uiso   1.00
C342   C     0.50389   0.49684   0.11532   0.00000  Uiso   1.00
C343   C     0.48533   0.50367   0.38259   0.00000  Uiso   1.00
C344   C     0.49006   0.50461   0.02375   0.00000  Uiso   1.00
C345   C     0.48667   0.50481   0.47520   0.00000  Uiso   1.00
C346   C     0.62356   0.50013   0.23888   0.00000  Uiso   1.00
C347   C     0.37533   0.50027   0.25541   0.00000  Uiso   1.00
C348   C     0.55148   0.38451   0.31359   0.00000  Uiso   1.00
C349   C     0.45408   0.61575   0.18222   0.00000  Uiso   1.00
C350   C     0.43556   0.37521   0.19854   0.00000  Uiso   1.00
C351   C     0.50169   0.49898   0.16386   0.00000  Uiso   1.00
C352   C     0.56249   0.62361   0.30361   0.00000  Uiso   1.00
C353   C     0.55267   0.56429   0.11705   0.00000  Uiso   1.00
C354   C     0.45799   0.42295   0.38223   0.00000  Uiso   1.00
C355   C     0.48262   0.58975   0.38719   0.00000  Uiso   1.00
C356   C     0.47601   0.41614   0.10352   0.00000  Uiso   1.00
C357   C     0.37033   0.41792   0.26807   0.00000  Uiso   1.00
C358   C     0.62702   0.58230   0.22581   0.00000  Uiso   1.00
C359   C     0.62519   0.41745   0.22180   0.00000  Uiso   1.00
C360   C     0.37351   0.58423   0.26709   0.00000  Uiso   1.00
C361   C     0.49541   0.50100   0.33552   0.00000  Uiso   1.00
C362   C     0.52682   0.35898   0.27815   0.00000  Uiso   1.00
C363   C     0.47433   0.64093   0.22084   0.00000  Uiso   1.00
C364   C     0.47194   0.35529   0.22292   0.00000  Uiso   1.00
C365   C     0.52778   0.64447   0.27745   0.00000  Uiso   1.00
C366   C     0.35305   0.45929   0.25206   0.00000  Uiso   1.00
H367   H     0.53193   0.56145   0.03126   0.00000  Uiso   1.00
H368   H     0.44478   0.35709   0.38523   0.00000  Uiso   1.00
H369   H     0.45535   0.62725   0.33999   0.00000  Uiso   1.00
H370   H     0.43911   0.36096   0.09953   0.00000  Uiso   1.00
H371   H     0.48218   0.43259   0.46654   0.00000  Uiso   1.00
H372   H     0.48608   0.57676   0.47266   0.00000  Uiso   1.00
H373   H     0.45175   0.44538   0.02682   0.00000  Uiso   1.00
H374   H     0.55913   0.40114   0.37896   0.00000  Uiso   1.00
H375   H     0.45274   0.60266   0.11609   0.00000  Uiso   1.00
H376   H     0.37576   0.36783   0.17563   0.00000  Uiso   1.00
H377   H     0.62346   0.62546   0.32257   0.00000  Uiso   1.00
H378   H     0.57772   0.62662   0.12182   0.00000  Uiso   1.00
N379   N     0.50000   0.61907   0.25000   0.00000  Uiso   1.00
N380   N     0.50000   0.38093   0.25000   0.00000  Uiso   1.00
N381   N     0.38332   0.38478   0.28142   0.00000  Uiso   1.00
N382   N     0.61266   0.61512   0.21317   0.00000  Uiso   1.00
N383   N     0.60963   0.38426   0.20805   0.00000  Uiso   1.00
N384   N     0.38865   0.61841   0.27823   0.00000  Uiso   1.00
O385   O     0.43892   0.53821   0.24999   0.00000  Uiso   1.00
O386   O     0.53945   0.38360   0.35722   0.00000  Uiso   1.00
O387   O     0.42344   0.59247   0.18632   0.00000  Uiso   1.00
O388   O     0.46916   0.62089   0.14025   0.00000  Uiso   1.00
O389   O     0.43766   0.41183   0.18279   0.00000  Uiso   1.00
O390   O     0.39811   0.35116   0.19298   0.00000  Uiso   1.00
O391   O     0.55640   0.59297   0.32780   0.00000  Uiso   1.00
O392   O     0.60252   0.64166   0.30289   0.00000  Uiso   1.00
O393   O     0.57623   0.55113   0.14666   0.00000  Uiso   1.00
O394   O     0.55561   0.60849   0.10368   0.00000  Uiso   1.00
O395   O     0.43537   0.42618   0.34876   0.00000  Uiso   1.00
O396   O     0.56108   0.46179   0.25000   0.00000  Uiso   1.00
O397   O     0.46235   0.38138   0.40165   0.00000  Uiso   1.00
O398   O     0.50482   0.62093   0.40192   0.00000  Uiso   1.00
O399   O     0.45296   0.59647   0.35265   0.00000  Uiso   1.00
O400   O     0.50377   0.39687   0.12406   0.00000  Uiso   1.00
O401   O     0.43937   0.39303   0.08971   0.00000  Uiso   1.00
O402   O     0.56108   0.53821   0.25000   0.00000  Uiso   1.00
O403   O     0.43892   0.46179   0.24999   0.00000  Uiso   1.00
O404   O     0.50000   0.53822   0.18453   0.00000  Uiso   1.00
O405   O     0.50000   0.46178   0.31547   0.00000  Uiso   1.00
O406   O     0.50000   0.53822   0.31547   0.00000  Uiso   1.00
O407   O     0.50000   0.46178   0.18453   0.00000  Uiso   1.00
O408   O     0.58403   0.40269   0.30572   0.00000  Uiso   1.00
Zn409  Zn    0.50000   0.55104   0.25000   0.00000  Uiso   1.00
Zn410  Zn    0.50000   0.44896   0.25000   0.00000  Uiso   1.00
C411   C     0.75345   0.50003   0.25330   0.00000  Uiso   1.00
C412   C     0.97894   0.54109   0.24091   0.00000  Uiso   1.00
C413   C     0.97814   0.45924   0.23872   0.00000  Uiso   1.00
C414   C     0.68743   0.54142   0.25324   0.00000  Uiso   1.00
C415   C     0.84900   0.53581   0.04810   0.00000  Uiso   1.00
C416   C     0.81603   0.46424   0.45038   0.00000  Uiso   1.00
C417   C     0.81969   0.54521   0.45357   0.00000  Uiso   1.00
C418   C     0.80523   0.46957   0.04521   0.00000  Uiso   1.00
C419   C     0.85574   0.53269   0.09383   0.00000  Uiso   1.00
C420   C     0.81079   0.46376   0.40459   0.00000  Uiso   1.00
C421   C     0.81911   0.54539   0.40744   0.00000  Uiso   1.00
C422   C     0.91277   0.50000   0.24511   0.00000  Uiso   1.00
C423   C     0.81599   0.46236   0.08926   0.00000  Uiso   1.00
C424   C     0.83722   0.49684   0.11532   0.00000  Uiso   1.00
C425   C     0.81866   0.50367   0.38259   0.00000  Uiso   1.00
C426   C     0.82339   0.50461   0.02375   0.00000  Uiso   1.00
C427   C     0.82000   0.50481   0.47520   0.00000  Uiso   1.00
C428   C     0.95690   0.50013   0.23888   0.00000  Uiso   1.00
C429   C     0.70866   0.50027   0.25541   0.00000  Uiso   1.00
C430   C     0.88481   0.38451   0.31359   0.00000  Uiso   1.00
C431   C     0.78741   0.61575   0.18222   0.00000  Uiso   1.00
C432   C     0.76890   0.37521   0.19854   0.00000  Uiso   1.00
C433   C     0.83503   0.49898   0.16386   0.00000  Uiso   1.00
C434   C     0.89582   0.62361   0.30361   0.00000  Uiso   1.00
C435   C     0.88600   0.56429   0.11705   0.00000  Uiso   1.00
C436   C     0.79132   0.42295   0.38223   0.00000  Uiso   1.00
C437   C     0.81595   0.58975   0.38719   0.00000  Uiso   1.00
C438   C     0.80935   0.41614   0.10352   0.00000  Uiso   1.00
C439   C     0.70367   0.41792   0.26807   0.00000  Uiso   1.00
C440   C     0.96035   0.58230   0.22581   0.00000  Uiso   1.00
C441   C     0.95852   0.41745   0.22180   0.00000  Uiso   1.00
C442   C     0.70684   0.58423   0.26709   0.00000  Uiso   1.00
C443   C     0.82874   0.50100   0.33552   0.00000  Uiso   1.00
C444   C     0.86015   0.35898   0.27815   0.00000  Uiso   1.00
C445   C     0.80766   0.64093   0.22084   0.00000  Uiso   1.00
C446   C     0.80528   0.35529   0.22292   0.00000  Uiso   1.00
C447   C     0.86111   0.64447   0.27745   0.00000  Uiso   1.00
C448   C     0.68639   0.45929   0.25206   0.00000  Uiso   1.00
H449   H     0.86526   0.56145   0.03126   0.00000  Uiso   1.00
H450   H     0.77811   0.35709   0.38523   0.00000  Uiso   1.00
H451   H     0.78868   0.62725   0.33999   0.00000  Uiso   1.00
H452   H     0.77245   0.36096   0.09953   0.00000  Uiso   1.00
H453   H     0.81551   0.43259   0.46654   0.00000  Uiso   1.00
H454   H     0.81942   0.57676   0.47266   0.00000  Uiso   1.00
H455   H     0.78509   0.44538   0.02682   0.00000  Uiso   1.00
H456   H     0.89246   0.40114   0.37896   0.00000  Uiso   1.00
H457   H     0.78607   0.60266   0.11609   0.00000  Uiso   1.00
H458   H     0.70910   0.36783   0.17563   0.00000  Uiso   1.00
H459   H     0.95679   0.62546   0.32257   0.00000  Uiso   1.00
H460   H     0.91105   0.62662   0.12182   0.00000  Uiso   1.00
N461   N     0.83333   0.61907   0.25000   0.00000  Uiso   1.00
N462   N     0.83333   0.38093   0.25000   0.00000  Uiso   1.00
N463   N     0.71665   0.38478   0.28142   0.00000  Uiso   1.00
N464   N     0.94599   0.61512   0.21317   0.00000  Uiso   1.00
N465   N     0.94296   0.38426   0.20805   0.00000  Uiso   1.00
N466   N     0.72199   0.61841   0.27823   0.00000  Uiso   1.00
O467   O     0.77226   0.53821   0.24999   0.00000  Uiso   1.00
O468   O     0.87278   0.38360   0.35722   0.00000  Uiso   1.00
O469   O     0.75678   0.59247   0.18632   0.00000  Uiso   1.00
O470   O     0.80250   0.62089   0.14025   0.00000  Uiso   1.00
O471   O     0.77099   0.41183   0.18279   0.00000  Uiso   1.00
O472   O     0.73144   0.35116   0.19298   0.00000  Uiso   1.00
O473   O     0.88973   0.59297   0.32780   0.00000  Uiso   1.00
O474   O     0.93585   0.64166   0.30289   0.00000  Uiso   1.00
O475   O     0.90956   0.55113   0.14666   0.00000  Uiso   1.00
O476   O     0.88894   0.60849   0.10368   0.00000  Uiso   1.00
O477   O     0.76870   0.42618   0.34876   0.00000  Uiso   1.00
O478   O     0.89441   0.46179   0.25000   0.00000  Uiso   1.00
O479   O     0.79568   0.38138   0.40165   0.00000  Uiso   1.00
O480   O     0.83816   0.62093   0.40192   0.00000  Uiso   1.00
O481   O     0.78629   0.59647   0.35265   0.00000  Uiso   1.00
O482   O     0.83711   0.39687   0.12406   0.00000  Uiso   1.00
O483   O     0.77271   0.39303   0.08971   0.00000  Uiso   1.00
O484   O     0.89441   0.53821   0.25000   0.00000  Uiso   1.00
O485   O     0.77226   0.46179   0.24999   0.00000  Uiso   1.00
O486   O     0.83333   0.53822   0.18453   0.00000  Uiso   1.00
O487   O     0.83334   0.46178   0.31547   0.00000  Uiso   1.00
O488   O     0.83334   0.53822   0.31547   0.00000  Uiso   1.00
O489   O     0.83333   0.46178   0.18453   0.00000  Uiso   1.00
O490   O     0.91736   0.40269   0.30572   0.00000  Uiso   1.00
Zn491  Zn    0.83333   0.55104   0.25000   0.00000  Uiso   1.00
Zn492  Zn    0.83333   0.44896   0.25000   0.00000  Uiso   1.00
C493   C     0.08678   0.83337   0.25330   0.00000  Uiso   1.00
C494   C     0.31227   0.87442   0.24091   0.00000  Uiso   1.00
C495   C     0.31148   0.79257   0.23872   0.00000  Uiso   1.00
C496   C     0.02077   0.87475   0.25324   0.00000  Uiso   1.00
C497   C     0.18233   0.86915   0.04810   0.00000  Uiso   1.00
C498   C     0.14936   0.79758   0.45038   0.00000  Uiso   1.00
C499   C     0.15303   0.87854   0.45357   0.00000  Uiso   1.00
C500   C     0.13857   0.80290   0.04521   0.00000  Uiso   1.00
C501   C     0.18908   0.86602   0.09383   0.00000  Uiso   1.00
C502   C     0.14412   0.79709   0.40459   0.00000  Uiso   1.00
C503   C     0.15245   0.87873   0.40744   0.00000  Uiso   1.00
C504   C     0.24610   0.83334   0.24511   0.00000  Uiso   1.00
C505   C     0.14933   0.79570   0.08926   0.00000  Uiso   1.00
C506   C     0.17055   0.83018   0.11532   0.00000  Uiso   1.00
C507   C     0.15200   0.83700   0.38259   0.00000  Uiso   1.00
C508   C     0.15673   0.83794   0.02375   0.00000  Uiso   1.00
C509   C     0.15333   0.83814   0.47520   0.00000  Uiso   1.00
C510   C     0.29023   0.83346   0.23888   0.00000  Uiso   1.00
C511   C     0.04200   0.83360   0.25541   0.00000  Uiso   1.00
C512   C     0.21814   0.71785   0.31359   0.00000  Uiso   1.00
C513   C     0.12075   0.94909   0.18222   0.00000  Uiso   1.00
C514   C     0.10223   0.70854   0.19854   0.00000  Uiso   1.00
C515   C     0.16836   0.83232   0.16386   0.00000  Uiso   1.00
C516   C     0.22915   0.95695   0.30361   0.00000  Uiso   1.00
C517   C     0.21934   0.89762   0.11705   0.00000  Uiso   1.00
C518   C     0.12465   0.75628   0.38223   0.00000  Uiso   1.00
C519   C     0.14928   0.92309   0.38719   0.00000  Uiso   1.00
C520   C     0.14268   0.74947   0.10352   0.00000  Uiso   1.00
C521   C     0.03700   0.75125   0.26807   0.00000  Uiso   1.00
C522   C     0.29368   0.91563   0.22581   0.00000  Uiso   1.00
C523   C     0.29186   0.75078   0.22180   0.00000  Uiso   1.00
C524   C     0.04017   0.91756   0.26709   0.00000  Uiso   1.00
C525   C     0.16207   0.83434   0.33552   0.00000  Uiso   1.00
C526   C     0.19348   0.69232   0.27815   0.00000  Uiso   1.00
C527   C     0.14100   0.97426   0.22084   0.00000  Uiso   1.00
C528   C     0.13861   0.68862   0.22292   0.00000  Uiso   1.00
C529   C     0.19445   0.97780   0.27745   0.00000  Uiso   1.00
C530   C     0.01972   0.79263   0.25206   0.00000  Uiso   1.00
H531   H     0.19860   0.89478   0.03126   0.00000  Uiso   1.00
H532   H     0.11144   0.69042   0.38523   0.00000  Uiso   1.00
H533   H     0.12202   0.96059   0.33999   0.00000  Uiso   1.00
H534   H     0.10578   0.69429   0.09953   0.00000  Uiso   1.00
H535   H     0.14885   0.76592   0.46654   0.00000  Uiso   1.00
H536   H     0.15275   0.91010   0.47266   0.00000  Uiso   1.00
H537   H     0.11842   0.77871   0.02682   0.00000  Uiso   1.00
H538   H     0.22580   0.73448   0.37896   0.00000  Uiso   1.00
H539   H     0.11941   0.93600   0.11609   0.00000  Uiso   1.00
H540   H     0.04243   0.70116   0.17563   0.00000  Uiso   1.00
H541   H     0.29013   0.95880   0.32257   0.00000  Uiso   1.00
H542   H     0.24439   0.95995   0.12182   0.00000  Uiso   1.00
N543   N     0.16667   0.95240   0.25000   0.00000  Uiso   1.00
N544   N     0.16667   0.71427   0.25000   0.00000  Uiso   1.00
N545   N     0.04998   0.71811   0.28142   0.00000  Uiso   1.00
N546   N     0.27933   0.94845   0.21317   0.00000  Uiso   1.00
N547   N     0.27629   0.71760   0.20805   0.00000  Uiso   1.00
N548   N     0.05532   0.95175   0.27823   0.00000  Uiso   1.00
O549   O     0.10559   0.87154   0.24999   0.00000  Uiso   1.00
O550   O     0.20612   0.71694   0.35722   0.00000  Uiso   1.00
O551   O     0.09011   0.92580   0.18632   0.00000  Uiso   1.00
O552   O     0.13583   0.95422   0.14025   0.00000  Uiso   1.00
O553   O     0.10433   0.74516   0.18279   0.00000  Uiso   1.00
O554   O     0.06477   0.68450   0.19298   0.00000  Uiso   1.00
O555   O     0.22306   0.92630   0.32780   0.00000  Uiso   1.00
O556   O     0.26918   0.97499   0.30289   0.00000  Uiso   1.00
O557   O     0.24289   0.88446   0.14666   0.00000  Uiso   1.00
O558   O     0.22227   0.94182   0.10368   0.00000  Uiso   1.00
O559   O     0.10204   0.75951   0.34876   0.00000  Uiso   1.00
O560   O     0.22774   0.79513   0.25000   0.00000  Uiso   1.00
O561   O     0.12902   0.71471   0.40165   0.00000  Uiso   1.00
O562   O     0.17149   0.95426   0.40192   0.00000  Uiso   1.00
O563   O     0.11962   0.92980   0.35265   0.00000  Uiso   1.00
O564   O     0.17044   0.73020   0.12406   0.00000  Uiso   1.00
O565   O     0.10604   0.72636   0.08971   0.00000  Uiso   1.00
O566   O     0.22774   0.87154   0.25000   0.00000  Uiso   1.00
O567   O     0.10559   0.79513   0.24999   0.00000  Uiso   1.00
O568   O     0.16666   0.87155   0.18453   0.00000  Uiso   1.00
O569   O     0.16667   0.79511   0.31547   0.00000  Uiso   1.00
O570   O     0.16667   0.87155   0.31547   0.00000  Uiso   1.00
O571   O     0.16666   0.79511   0.18453   0.00000  Uiso   1.00
O572   O     0.25070   0.73603   0.30572   0.00000  Uiso   1.00
Zn573  Zn    0.16667   0.88437   0.25000   0.00000  Uiso   1.00
Zn574  Zn    0.16667   0.78229   0.25000   0.00000  Uiso   1.00
C575   C     0.42011   0.83337   0.25330   0.00000  Uiso   1.00
C576   C     0.64561   0.87442   0.24091   0.00000  Uiso   1.00
C577   C     0.64481   0.79257   0.23872   0.00000  Uiso   1.00
C578   C     0.35410   0.87475   0.25324   0.00000  Uiso   1.00
C579   C     0.51566   0.86915   0.04810   0.00000  Uiso   1.00
C580   C     0.48269   0.79758   0.45038   0.00000  Uiso   1.00
C581   C     0.48636   0.87854   0.45357   0.00000  Uiso   1.00
C582   C     0.47190   0.80290   0.04521   0.00000  Uiso   1.00
C583   C     0.52241   0.86602   0.09383   0.00000  Uiso   1.00
C584   C     0.47745   0.79709   0.40459   0.00000  Uiso   1.00
C585   C     0.48578   0.87873   0.40744   0.00000  Uiso   1.00
C586   C     0.57944   0.83334   0.24511   0.00000  Uiso   1.00
C587   C     0.48266   0.79570   0.08926   0.00000  Uiso   1.00
C588   C     0.50389   0.83018   0.11532   0.00000  Uiso   1.00
C589   C     0.48533   0.83700   0.38259   0.00000  Uiso   1.00
C590   C     0.49006   0.83794   0.02375   0.00000  Uiso   1.00
C591   C     0.48667   0.83814   0.47520   0.00000  Uiso   1.00
C592   C     0.62356   0.83346   0.23888   0.00000  Uiso   1.00
C593   C     0.37533   0.83360   0.25541   0.00000  Uiso   1.00
C594   C     0.55148   0.71785   0.31359   0.00000  Uiso   1.00
C595   C     0.45408   0.94909   0.18222   0.00000  Uiso   1.00
C596   C     0.43556   0.70854   0.19854   0.00000  Uiso   1.00
C597   C     0.50169   0.83232   0.16386   0.00000  Uiso   1.00
C598   C     0.56249   0.95695   0.30361   0.00000  Uiso   1.00
C599   C     0.55267   0.89762   0.11705   0.00000  Uiso   1.00
C600   C     0.45799   0.75628   0.38223   0.00000  Uiso   1.00
C601   C     0.48262   0.92309   0.38719   0.00000  Uiso   1.00
C602   C     0.47601   0.74947   0.10352   0.00000  Uiso   1.00
C603   C     0.37033   0.75125   0.26807   0.00000  Uiso   1.00
C604   C     0.62702   0.91563   0.22581   0.00000  Uiso   1.00
C605   C     0.62519   0.75078   0.22180   0.00000  Uiso   1.00
C606   C     0.37351   0.91756   0.26709   0.00000  Uiso   1.00
C607   C     0.49541   0.83434   0.33552   0.00000  Uiso   1.00
C608   C     0.52682   0.69232   0.27815   0.00000  Uiso   1.00
C609   C     0.47433   0.97426   0.22084   0.00000  Uiso   1.00
C610   C     0.47194   0.68862   0.22292   0.00000  Uiso   1.00
C611   C     0.52778   0.97780   0.27745   0.00000  Uiso   1.00
C612   C     0.35305   0.79263   0.25206   0.00000  Uiso   1.00
H613   H     0.53193   0.89478   0.03126   0.00000  Uiso   1.00
H614   H     0.44478   0.69042   0.38523   0.00000  Uiso   1.00
H615   H     0.45535   0.96059   0.33999   0.00000  Uiso   1.00
H616   H     0.43911   0.69429   0.09953   0.00000  Uiso   1.00
H617   H     0.48218   0.76592   0.46654   0.00000  Uiso   1.00
H618   H     0.48608   0.91010   0.47266   0.00000  Uiso   1.00
H619   H     0.45175   0.77871   0.02682   0.00000  Uiso   1.00
H620   H     0.55913   0.73448   0.37896   0.00000  Uiso   1.00
H621   H     0.45274   0.93600   0.11609   0.00000  Uiso   1.00
H622   H     0.37576   0.70116   0.17563   0.00000  Uiso   1.00
H623   H     0.62346   0.95880   0.32257   0.00000  Uiso   1.00
H624   H     0.57772   0.95995   0.12182   0.00000  Uiso   1.00
N625   N     0.50000   0.95240   0.25000   0.00000  Uiso   1.00
N626   N     0.50000   0.71427   0.25000   0.00000  Uiso   1.00
N627   N     0.38332   0.71811   0.28142   0.00000  Uiso   1.00
N628   N     0.61266   0.94845   0.21317   0.00000  Uiso   1.00
N629   N     0.60963   0.71760   0.20805   0.00000  Uiso   1.00
N630   N     0.38865   0.95175   0.27823   0.00000  Uiso   1.00
O631   O     0.43892   0.87154   0.24999   0.00000  Uiso   1.00
O632   O     0.53945   0.71694   0.35722   0.00000  Uiso   1.00
O633   O     0.42344   0.92580   0.18632   0.00000  Uiso   1.00
O634   O     0.46916   0.95422   0.14025   0.00000  Uiso   1.00
O635   O     0.43766   0.74516   0.18279   0.00000  Uiso   1.00
O636   O     0.39811   0.68450   0.19298   0.00000  Uiso   1.00
O637   O     0.55640   0.92630   0.32780   0.00000  Uiso   1.00
O638   O     0.60252   0.97499   0.30289   0.00000  Uiso   1.00
O639   O     0.57623   0.88446   0.14666   0.00000  Uiso   1.00
O640   O     0.55561   0.94182   0.10368   0.00000  Uiso   1.00
O641   O     0.43537   0.75951   0.34876   0.00000  Uiso   1.00
O642   O     0.56108   0.79513   0.25000   0.00000  Uiso   1.00
O643   O     0.46235   0.71471   0.40165   0.00000  Uiso   1.00
O644   O     0.50482   0.95426   0.40192   0.00000  Uiso   1.00
O645   O     0.45296   0.92980   0.35265   0.00000  Uiso   1.00
O646   O     0.50377   0.73020   0.12406   0.00000  Uiso   1.00
O647   O     0.43937   0.72636   0.08971   0.00000  Uiso   1.00
O648   O     0.56108   0.87154   0.25000   0.00000  Uiso   1.00
O649   O     0.43892   0.79513   0.24999   0.00000  Uiso   1.00
O650   O     0.50000   0.87155   0.18453   0.00000  Uiso   1.00
O651   O     0.50000   0.79511   0.31547   0.00000  Uiso   1.00
O652   O     0.50000   0.87155   0.31547   0.00000  Uiso   1.00
O653   O     0.50000   0.79511   0.18453   0.00000  Uiso   1.00
O654   O     0.58403   0.73603   0.30572   0.00000  Uiso   1.00
Zn655  Zn    0.50000   0.88437   0.25000   0.00000  Uiso   1.00
Zn656  Zn    0.50000   0.78229   0.25000   0.00000  Uiso   1.00
C657   C     0.75345   0.83337   0.25330   0.00000  Uiso   1.00
C658   C     0.97894   0.87442   0.24091   0.00000  Uiso   1.00
C659   C     0.97814   0.79257   0.23872   0.00000  Uiso   1.00
C660   C     0.68743   0.87475   0.25324   0.00000  Uiso   1.00
C661   C     0.84900   0.86915   0.04810   0.00000  Uiso   1.00
C662   C     0.81603   0.79758   0.45038   0.00000  Uiso   1.00
C663   C     0.81969   0.87854   0.45357   0.00000  Uiso   1.00
C664   C     0.80523   0.80290   0.04521   0.00000  Uiso   1.00
C665   C     0.85574   0.86602   0.09383   0.00000  Uiso   1.00
C666   C     0.81079   0.79709   0.40459   0.00000  Uiso   1.00
C667   C     0.81911   0.87873   0.40744   0.00000  Uiso   1.00
C668   C     0.91277   0.83334   0.24511   0.00000  Uiso   1.00
C669   C     0.81599   0.79570   0.08926   0.00000  Uiso   1.00
C670   C     0.83722   0.83018   0.11532   0.00000  Uiso   1.00
C671   C     0.81866   0.83700   0.38259   0.00000  Uiso   1.00
C672   C     0.82339   0.83794   0.02375   0.00000  Uiso   1.00
C673   C     0.82000   0.83814   0.47520   0.00000  Uiso   1.00
C674   C     0.95690   0.83346   0.23888   0.00000  Uiso   1.00
C675   C     0.70866   0.83360   0.25541   0.00000  Uiso   1.00
C676   C     0.88481   0.71785   0.31359   0.00000  Uiso   1.00
C677   C     0.78741   0.94909   0.18222   0.00000  Uiso   1.00
C678   C     0.76890   0.70854   0.19854   0.00000  Uiso   1.00
C679   C     0.83503   0.83232   0.16386   0.00000  Uiso   1.00
C680   C     0.89582   0.95695   0.30361   0.00000  Uiso   1.00
C681   C     0.88600   0.89762   0.11705   0.00000  Uiso   1.00
C682   C     0.79132   0.75628   0.38223   0.00000  Uiso   1.00
C683   C     0.81595   0.92309   0.38719   0.00000  Uiso   1.00
C684   C     0.80935   0.74947   0.10352   0.00000  Uiso   1.00
C685   C     0.70367   0.75125   0.26807   0.00000  Uiso   1.00
C686   C     0.96035   0.91563   0.22581   0.00000  Uiso   1.00
C687   C     0.95852   0.75078   0.22180   0.00000  Uiso   1.00
C688   C     0.70684   0.91756   0.26709   0.00000  Uiso   1.00
C689   C     0.82874   0.83434   0.33552   0.00000  Uiso   1.00
C690   C     0.86015   0.69232   0.27815   0.00000  Uiso   1.00
C691   C     0.80766   0.97426   0.22084   0.00000  Uiso   1.00
C692   C     0.80528   0.68862   0.22292   0.00000  Uiso   1.00
C693   C     0.86111   0.97780   0.27745   0.00000  Uiso   1.00
C694   C     0.68639   0.79263   0.25206   0.00000  Uiso   1.00
H695   H     0.86526   0.89478   0.03126   0.00000  Uiso   1.00
H696   H     0.77811   0.69042   0.38523   0.00000  Uiso   1.00
H697   H     0.78868   0.96059   0.33999   0.00000  Uiso   1.00
H698   H     0.77245   0.69429   0.09953   0.00000  Uiso   1.00
H699   H     0.81551   0.76592   0.46654   0.00000  Uiso   1.00
H700   H     0.81942   0.91010   0.47266   0.00000  Uiso   1.00
H701   H     0.78509   0.77871   0.02682   0.00000  Uiso   1.00
H702   H     0.89246   0.73448   0.37896   0.00000  Uiso   1.00
H703   H     0.78607   0.93600   0.11609   0.00000  Uiso   1.00
H704   H     0.70910   0.70116   0.17563   0.00000  Uiso   1.00
H705   H     0.95679   0.95880   0.32257   0.00000  Uiso   1.00
H706   H     0.91105   0.95995   0.12182   0.00000  Uiso   1.00
N707   N     0.83333   0.95240   0.25000   0.00000  Uiso   1.00
N708   N     0.83333   0.71427   0.25000   0.00000  Uiso   1.00
N709   N     0.71665   0.71811   0.28142   0.00000  Uiso   1.00
N710   N     0.94599   0.94845   0.21317   0.00000  Uiso   1.00
N711   N     0.94296   0.71760   0.20805   0.00000  Uiso   1.00
N712   N     0.72199   0.95175   0.27823   0.00000  Uiso   1.00
O713   O     0.77226   0.87154   0.24999   0.00000  Uiso   1.00
O714   O     0.87278   0.71694   0.35722   0.00000  Uiso   1.00
O715   O     0.75678   0.92580   0.18632   0.00000  Uiso   1.00
O716   O     0.80250   0.95422   0.14025   0.00000  Uiso   1.00
O717   O     0.77099   0.74516   0.18279   0.00000  Uiso   1.00
O718   O     0.73144   0.68450   0.19298   0.00000  Uiso   1.00
O719   O     0.88973   0.92630   0.32780   0.00000  Uiso   1.00
O720   O     0.93585   0.97499   0.30289   0.00000  Uiso   1.00
O721   O     0.90956   0.88446   0.14666   0.00000  Uiso   1.00
O722   O     0.88894   0.94182   0.10368   0.00000  Uiso   1.00
O723   O     0.76870   0.75951   0.34876   0.00000  Uiso   1.00
O724   O     0.89441   0.79513   0.25000   0.00000  Uiso   1.00
O725   O     0.79568   0.71471   0.40165   0.00000  Uiso   1.00
O726   O     0.83816   0.95426   0.40192   0.00000  Uiso   1.00
O727   O     0.78629   0.92980   0.35265   0.00000  Uiso   1.00
O728   O     0.83711   0.73020   0.12406   0.00000  Uiso   1.00
O729   O     0.77271   0.72636   0.08971   0.00000  Uiso   1.00
O730   O     0.89441   0.87154   0.25000   0.00000  Uiso   1.00
O731   O     0.77226   0.79513   0.24999   0.00000  Uiso   1.00
O732   O     0.83333   0.87155   0.18453   0.00000  Uiso   1.00
O733   O     0.83334   0.79511   0.31547   0.00000  Uiso   1.00
O734   O     0.83334   0.87155   0.31547   0.00000  Uiso   1.00
O735   O     0.83333   0.79511   0.18453   0.00000  Uiso   1.00
O736   O     0.91736   0.73603   0.30572   0.00000  Uiso   1.00
Zn737  Zn    0.83333   0.88437   0.25000   0.00000  Uiso   1.00
Zn738  Zn    0.83333   0.78229   0.25000   0.00000  Uiso   1.00
C739   C     0.08678   0.16670   0.75330   0.00000  Uiso   1.00
C740   C     0.31227   0.20775   0.74091   0.00000  Uiso   1.00
C741   C     0.31148   0.12590   0.73872   0.00000  Uiso   1.00
C742   C     0.02077   0.20809   0.75324   0.00000  Uiso   1.00
C743   C     0.18233   0.20248   0.54810   0.00000  Uiso   1.00
C744   C     0.14936   0.13091   0.95038   0.00000  Uiso   1.00
C745   C     0.15303   0.21188   0.95357   0.00000  Uiso   1.00
C746   C     0.13857   0.13624   0.54521   0.00000  Uiso   1.00
C747   C     0.18908   0.19936   0.59383   0.00000  Uiso   1.00
C748   C     0.14412   0.13042   0.90459   0.00000  Uiso   1.00
C749   C     0.15245   0.21206   0.90744   0.00000  Uiso   1.00
C750   C     0.24610   0.16667   0.74511   0.00000  Uiso   1.00
C751   C     0.14933   0.12903   0.58926   0.00000  Uiso   1.00
C752   C     0.17055   0.16351   0.61532   0.00000  Uiso   1.00
C753   C     0.15200   0.17034   0.88259   0.00000  Uiso   1.00
C754   C     0.15673   0.17128   0.52375   0.00000  Uiso   1.00
C755   C     0.15333   0.17148   0.97520   0.00000  Uiso   1.00
C756   C     0.29023   0.16679   0.73888   0.00000  Uiso   1.00
C757   C     0.04200   0.16693   0.75541   0.00000  Uiso   1.00
C758   C     0.21814   0.05118   0.81359   0.00000  Uiso   1.00
C759   C     0.12075   0.28242   0.68222   0.00000  Uiso   1.00
C760   C     0.10223   0.04188   0.69854   0.00000  Uiso   1.00
C761   C     0.16836   0.16565   0.66386   0.00000  Uiso   1.00
C762   C     0.22915   0.29028   0.80361   0.00000  Uiso   1.00
C763   C     0.21934   0.23095   0.61705   0.00000  Uiso   1.00
C764   C     0.12465   0.08962   0.88223   0.00000  Uiso   1.00
C765   C     0.14928   0.25642   0.88719   0.00000  Uiso   1.00
C766   C     0.14268   0.08280   0.60352   0.00000  Uiso   1.00
C767   C     0.03700   0.08459   0.76807   0.00000  Uiso   1.00
C768   C     0.29368   0.24896   0.72581   0.00000  Uiso   1.00
C769   C     0.29186   0.08411   0.72180   0.00000  Uiso   1.00
C770   C     0.04017   0.25089   0.76709   0.00000  Uiso   1.00
C771   C     0.16207   0.16767   0.83552   0.00000  Uiso   1.00
C772   C     0.19348   0.02565   0.77815   0.00000  Uiso   1.00
C773   C     0.14100   0.30759   0.72084   0.00000  Uiso   1.00
C774   C     0.13861   0.02195   0.72292   0.00000  Uiso   1.00
C775   C     0.19445   0.31114   0.77745   0.00000  Uiso   1.00
C776   C     0.01972   0.12596   0.75206   0.00000  Uiso   1.00
H777   H     0.19860   0.22811   0.53126   0.00000  Uiso   1.00
H778   H     0.11144   0.02376   0.88523   0.00000  Uiso   1.00
H779   H     0.12202   0.29392   0.83999   0.00000  Uiso   1.00
H780   H     0.10578   0.02762   0.59953   0.00000  Uiso   1.00
H781   H     0.14885   0.09925   0.96654   0.00000  Uiso   1.00
H782   H     0.15275   0.24343   0.97266   0.00000  Uiso   1.00
H783   H     0.11842   0.11204   0.52682   0.00000  Uiso   1.00
H784   H     0.22580   0.06781   0.87896   0.00000  Uiso   1.00
H785   H     0.11941   0.26933   0.61609   0.00000  Uiso   1.00
H786   H     0.04243   0.03450   0.67563   0.00000  Uiso   1.00
H787   H     0.29013   0.29213   0.82257   0.00000  Uiso   1.00
H788   H     0.24439   0.29328   0.62182   0.00000  Uiso   1.00
N789   N     0.16667   0.28573   0.75000   0.00000  Uiso   1.00
N790   N     0.16667   0.04760   0.75000   0.00000  Uiso   1.00
N791   N     0.04998   0.05145   0.78142   0.00000  Uiso   1.00
N792   N     0.27933   0.28179   0.71317   0.00000  Uiso   1.00
N793   N     0.27629   0.05093   0.70805   0.00000  Uiso   1.00
N794   N     0.05532   0.28508   0.77823   0.00000  Uiso   1.00
O795   O     0.10559   0.20487   0.74999   0.00000  Uiso   1.00
O796   O     0.20612   0.05027   0.85722   0.00000  Uiso   1.00
O797   O     0.09011   0.25913   0.68632   0.00000  Uiso   1.00
O798   O     0.13583   0.28756   0.64025   0.00000  Uiso   1.00
O799   O     0.10433   0.07849   0.68279   0.00000  Uiso   1.00
O800   O     0.06477   0.01783   0.69298   0.00000  Uiso   1.00
O801   O     0.22306   0.25963   0.82780   0.00000  Uiso   1.00
O802   O     0.26918   0.30832   0.80289   0.00000  Uiso   1.00
O803   O     0.24289   0.21780   0.64666   0.00000  Uiso   1.00
O804   O     0.22227   0.27515   0.60368   0.00000  Uiso   1.00
O805   O     0.10204   0.09285   0.84876   0.00000  Uiso   1.00
O806   O     0.22774   0.12846   0.75000   0.00000  Uiso   1.00
O807   O     0.12902   0.04804   0.90165   0.00000  Uiso   1.00
O808   O     0.17149   0.28760   0.90192   0.00000  Uiso   1.00
O809   O     0.11962   0.26314   0.85265   0.00000  Uiso   1.00
O810   O     0.17044   0.06353   0.62406   0.00000  Uiso   1.00
O811   O     0.10604   0.05969   0.58971   0.00000  Uiso   1.00
O812   O     0.22774   0.20487   0.75000   0.00000  Uiso   1.00
O813   O     0.10559   0.12846   0.74999   0.00000  Uiso   1.00
O814   O     0.16666   0.20489   0.68453   0.00000  Uiso   1.00
O815   O     0.16667   0.12845   0.81547   0.00000  Uiso   1.00
O816   O     0.16667   0.20489   0.81547   0.00000  Uiso   1.00
O817   O     0.16666   0.12845   0.68453   0.00000  Uiso   1.00
O818   O     0.25070   0.06936   0.80572   0.00000  Uiso   1.00
Zn819  Zn    0.16667   0.21771   0.75000   0.00000  Uiso   1.00
Zn820  Zn    0.16667   0.11563   0.75000   0.00000  Uiso   1.00
C821   C     0.42011   0.16670   0.75330   0.00000  Uiso   1.00
C822   C     0.64561   0.20775   0.74091   0.00000  Uiso   1.00
C823   C     0.64481   0.12590   0.73872   0.00000  Uiso   1.00
C824   C     0.35410   0.20809   0.75324   0.00000  Uiso   1.00
C825   C     0.51566   0.20248   0.54810   0.00000  Uiso   1.00
C826   C     0.48269   0.13091   0.95038   0.00000  Uiso   1.00
C827   C     0.48636   0.21188   0.95357   0.00000  Uiso   1.00
C828   C     0.47190   0.13624   0.54521   0.00000  Uiso   1.00
C829   C     0.52241   0.19936   0.59383   0.00000  Uiso   1.00
C830   C     0.47745   0.13042   0.90459   0.00000  Uiso   1.00
C831   C     0.48578   0.21206   0.90744   0.00000  Uiso   1.00
C832   C     0.57944   0.16667   0.74511   0.00000  Uiso   1.00
C833   C     0.48266   0.12903   0.58926   0.00000  Uiso   1.00
C834   C     0.50389   0.16351   0.61532   0.00000  Uiso   1.00
C835   C     0.48533   0.17034   0.88259   0.00000  Uiso   1.00
C836   C     0.49006   0.17128   0.52375   0.00000  Uiso   1.00
C837   C     0.48667   0.17148   0.97520   0.00000  Uiso   1.00
C838   C     0.62356   0.16679   0.73888   0.00000  Uiso   1.00
C839   C     0.37533   0.16693   0.75541   0.00000  Uiso   1.00
C840   C     0.55148   0.05118   0.81359   0.00000  Uiso   1.00
C841   C     0.45408   0.28242   0.68222   0.00000  Uiso   1.00
C842   C     0.43556   0.04188   0.69854   0.00000  Uiso   1.00
C843   C     0.50169   0.16565   0.66386   0.00000  Uiso   1.00
C844   C     0.56249   0.29028   0.80361   0.00000  Uiso   1.00
C845   C     0.55267   0.23095   0.61705   0.00000  Uiso   1.00
C846   C     0.45799   0.08962   0.88223   0.00000  Uiso   1.00
C847   C     0.48262   0.25642   0.88719   0.00000  Uiso   1.00
C848   C     0.47601   0.08280   0.60352   0.00000  Uiso   1.00
C849   C     0.37033   0.08459   0.76807   0.00000  Uiso   1.00
C850   C     0.62702   0.24896   0.72581   0.00000  Uiso   1.00
C851   C     0.62519   0.08411   0.72180   0.00000  Uiso   1.00
C852   C     0.37351   0.25089   0.76709   0.00000  Uiso   1.00
C853   C     0.49541   0.16767   0.83552   0.00000  Uiso   1.00
C854   C     0.52682   0.02565   0.77815   0.00000  Uiso   1.00
C855   C     0.47433   0.30759   0.72084   0.00000  Uiso   1.00
C856   C     0.47194   0.02195   0.72292   0.00000  Uiso   1.00
C857   C     0.52778   0.31114   0.77745   0.00000  Uiso   1.00
C858   C     0.35305   0.12596   0.75206   0.00000  Uiso   1.00
H859   H     0.53193   0.22811   0.53126   0.00000  Uiso   1.00
H860   H     0.44478   0.02376   0.88523   0.00000  Uiso   1.00
H861   H     0.45535   0.29392   0.83999   0.00000  Uiso   1.00
H862   H     0.43911   0.02762   0.59953   0.00000  Uiso   1.00
H863   H     0.48218   0.09925   0.96654   0.00000  Uiso   1.00
H864   H     0.48608   0.24343   0.97266   0.00000  Uiso   1.00
H865   H     0.45175   0.11204   0.52682   0.00000  Uiso   1.00
H866   H     0.55913   0.06781   0.87896   0.00000  Uiso   1.00
H867   H     0.45274   0.26933   0.61609   0.00000  Uiso   1.00
H868   H     0.37576   0.03450   0.67563   0.00000  Uiso   1.00
H869   H     0.62346   0.29213   0.82257   0.00000  Uiso   1.00
H870   H     0.57772   0.29328   0.62182   0.00000  Uiso   1.00
N871   N     0.50000   0.28573   0.75000   0.00000  Uiso   1.00
N872   N     0.50000   0.04760   0.75000   0.00000  Uiso   1.00
N873   N     0.38332   0.05145   0.78142   0.00000  Uiso   1.00
N874   N     0.61266   0.28179   0.71317   0.00000  Uiso   1.00
N875   N     0.60963   0.05093   0.70805   0.00000  Uiso   1.00
N876   N     0.38865   0.28508   0.77823   0.00000  Uiso   1.00
O877   O     0.43892   0.20487   0.74999   0.00000  Uiso   1.00
O878   O     0.53945   0.05027   0.85722   0.00000  Uiso   1.00
O879   O     0.42344   0.25913   0.68632   0.00000  Uiso   1.00
O880   O     0.46916   0.28756   0.64025   0.00000  Uiso   1.00
O881   O     0.43766   0.07849   0.68279   0.00000  Uiso   1.00
O882   O     0.39811   0.01783   0.69298   0.00000  Uiso   1.00
O883   O     0.55640   0.25963   0.82780   0.00000  Uiso   1.00
O884   O     0.60252   0.30832   0.80289   0.00000  Uiso   1.00
O885   O     0.57623   0.21780   0.64666   0.00000  Uiso   1.00
O886   O     0.55561   0.27515   0.60368   0.00000  Uiso   1.00
O887   O     0.43537   0.09285   0.84876   0.00000  Uiso   1.00
O888   O     0.56108   0.12846   0.75000   0.00000  Uiso   1.00
O889   O     0.46235   0.04804   0.90165   0.00000  Uiso   1.00
O890   O     0.50482   0.28760   0.90192   0.00000  Uiso   1.00
O891   O     0.45296   0.26314   0.85265   0.00000  Uiso   1.00
O892   O     0.50377   0.06353   0.62406   0.00000  Uiso   1.00
O893   O     0.43937   0.05969   0.58971   0.00000  Uiso   1.00
O894   O     0.56108   0.20487   0.75000   0.00000  Uiso   1.00
O895   O     0.43892   0.12846   0.74999   0.00000  Uiso   1.00
O896   O     0.50000   0.20489   0.68453   0.00000  Uiso   1.00
O897   O     0.50000   0.12845   0.81547   0.00000  Uiso   1.00
O898   O     0.50000   0.20489   0.81547   0.00000  Uiso   1.00
O899   O     0.50000   0.12845   0.68453   0.00000  Uiso   1.00
O900   O     0.58403   0.06936   0.80572   0.00000  Uiso   1.00
Zn901  Zn    0.50000   0.21771   0.75000   0.00000  Uiso   1.00
Zn902  Zn    0.50000   0.11563   0.75000   0.00000  Uiso   1.00
C903   C     0.75345   0.16670   0.75330   0.00000  Uiso   1.00
C904   C     0.97894   0.20775   0.74091   0.00000  Uiso   1.00
C905   C     0.97814   0.12590   0.73872   0.00000  Uiso   1.00
C906   C     0.68743   0.20809   0.75324   0.00000  Uiso   1.00
C907   C     0.84900   0.20248   0.54810   0.00000  Uiso   1.00
C908   C     0.81603   0.13091   0.95038   0.00000  Uiso   1.00
C909   C     0.81969   0.21188   0.95357   0.00000  Uiso   1.00
C910   C     0.80523   0.13624   0.54521   0.00000  Uiso   1.00
C911   C     0.85574   0.19936   0.59383   0.00000  Uiso   1.00
C912   C     0.81079   0.13042   0.90459   0.00000  Uiso   1.00
C913   C     0.81911   0.21206   0.90744   0.00000  Uiso   1.00
C914   C     0.91277   0.16667   0.74511   0.00000  Uiso   1.00
C915   C     0.81599   0.12903   0.58926   0.00000  Uiso   1.00
C916   C     0.83722   0.16351   0.61532   0.00000  Uiso   1.00
C917   C     0.81866   0.17034   0.88259   0.00000  Uiso   1.00
C918   C     0.82339   0.17128   0.52375   0.00000  Uiso   1.00
C919   C     0.82000   0.17148   0.97520   0.00000  Uiso   1.00
C920   C     0.95690   0.16679   0.73888   0.00000  Uiso   1.00
C921   C     0.70866   0.16693   0.75541   0.00000  Uiso   1.00
C922   C     0.88481   0.05118   0.81359   0.00000  Uiso   1.00
C923   C     0.78741   0.28242   0.68222   0.00000  Uiso   1.00
C924   C     0.76890   0.04188   0.69854   0.00000  Uiso   1.00
C925   C     0.83503   0.16565   0.66386   0.00000  Uiso   1.00
C926   C     0.89582   0.29028   0.80361   0.00000  Uiso   1.00
C927   C     0.88600   0.23095   0.61705   0.00000  Uiso   1.00
C928   C     0.79132   0.08962   0.88223   0.00000  Uiso   1.00
C929   C     0.81595   0.25642   0.88719   0.00000  Uiso   1.00
C930   C     0.80935   0.08280   0.60352   0.00000  Uiso   1.00
C931   C     0.70367   0.08459   0.76807   0.00000  Uiso   1.00
C932   C     0.96035   0.24896   0.72581   0.00000  Uiso   1.00
C933   C     0.95852   0.08411   0.72180   0.00000  Uiso   1.00
C934   C     0.70684   0.25089   0.76709   0.00000  Uiso   1.00
C935   C     0.82874   0.16767   0.83552   0.00000  Uiso   1.00
C936   C     0.86015   0.02565   0.77815   0.00000  Uiso   1.00
C937   C     0.80766   0.30759   0.72084   0.00000  Uiso   1.00
C938   C     0.80528   0.02195   0.72292   0.00000  Uiso   1.00
C939   C     0.86111   0.31114   0.77745   0.00000  Uiso   1.00
C940   C     0.68639   0.12596   0.75206   0.00000  Uiso   1.00
H941   H     0.86526   0.22811   0.53126   0.00000  Uiso   1.00
H942   H     0.77811   0.02376   0.88523   0.00000  Uiso   1.00
H943   H     0.78868   0.29392   0.83999   0.00000  Uiso   1.00
H944   H     0.77245   0.02762   0.59953   0.00000  Uiso   1.00
H945   H     0.81551   0.09925   0.96654   0.00000  Uiso   1.00
H946   H     0.81942   0.24343   0.97266   0.00000  Uiso   1.00
H947   H     0.78509   0.11204   0.52682   0.00000  Uiso   1.00
H948   H     0.89246   0.06781   0.87896   0.00000  Uiso   1.00
H949   H     0.78607   0.26933   0.61609   0.00000  Uiso   1.00
H950   H     0.70910   0.03450   0.67563   0.00000  Uiso   1.00
H951   H     0.95679   0.29213   0.82257   0.00000  Uiso   1.00
H952   H     0.91105   0.29328   0.62182   0.00000  Uiso   1.00
N953   N     0.83333   0.28573   0.75000   0.00000  Uiso   1.00
N954   N     0.83333   0.04760   0.75000   0.00000  Uiso   1.00
N955   N     0.71665   0.05145   0.78142   0.00000  Uiso   1.00
N956   N     0.94599   0.28179   0.71317   0.00000  Uiso   1.00
N957   N     0.94296   0.05093   0.70805   0.00000  Uiso   1.00
N958   N     0.72199   0.28508   0.77823   0.00000  Uiso   1.00
O959   O     0.77226   0.20487   0.74999   0.00000  Uiso   1.00
O960   O     0.87278   0.05027   0.85722   0.00000  Uiso   1.00
O961   O     0.75678   0.25913   0.68632   0.00000  Uiso   1.00
O962   O     0.80250   0.28756   0.64025   0.00000  Uiso   1.00
O963   O     0.77099   0.07849   0.68279   0.00000  Uiso   1.00
O964   O     0.73144   0.01783   0.69298   0.00000  Uiso   1.00
O965   O     0.88973   0.25963   0.82780   0.00000  Uiso   1.00
O966   O     0.93585   0.30832   0.80289   0.00000  Uiso   1.00
O967   O     0.90956   0.21780   0.64666   0.00000  Uiso   1.00
O968   O     0.88894   0.27515   0.60368   0.00000  Uiso   1.00
O969   O     0.76870   0.09285   0.84876   0.00000  Uiso   1.00
O970   O     0.89441   0.12846   0.75000   0.00000  Uiso   1.00
O971   O     0.79568   0.04804   0.90165   0.00000  Uiso   1.00
O972   O     0.83816   0.28760   0.90192   0.00000  Uiso   1.00
O973   O     0.78629   0.26314   0.85265   0.00000  Uiso   1.00
O974   O     0.83711   0.06353   0.62406   0.00000  Uiso   1.00
O975   O     0.77271   0.05969   0.58971   0.00000  Uiso   1.00
O976   O     0.89441   0.20487   0.75000   0.00000  Uiso   1.00
O977   O     0.77226   0.12846   0.74999   0.00000  Uiso   1.00
O978   O     0.83333   0.20489   0.68453   0.00000  Uiso   1.00
O979   O     0.83334   0.12845   0.81547   0.00000  Uiso   1.00
O980   O     0.83334   0.20489   0.81547   0.00000  Uiso   1.00
O981   O     0.83333   0.12845   0.68453   0.00000  Uiso   1.00
O982   O     0.91736   0.06936   0.80572   0.00000  Uiso   1.00
Zn983  Zn    0.83333   0.21771   0.75000   0.00000  Uiso   1.00
Zn984  Zn    0.83333   0.11563   0.75000   0.00000  Uiso   1.00
C985   C     0.08678   0.50003   0.75330   0.00000  Uiso   1.00
C986   C     0.31227   0.54109   0.74091   0.00000  Uiso   1.00
C987   C     0.31148   0.45924   0.73872   0.00000  Uiso   1.00
C988   C     0.02077   0.54142   0.75324   0.00000  Uiso   1.00
C989   C     0.18233   0.53581   0.54810   0.00000  Uiso   1.00
C990   C     0.14936   0.46424   0.95038   0.00000  Uiso   1.00
C991   C     0.15303   0.54521   0.95357   0.00000  Uiso   1.00
C992   C     0.13857   0.46957   0.54521   0.00000  Uiso   1.00
C993   C     0.18908   0.53269   0.59383   0.00000  Uiso   1.00
C994   C     0.14412   0.46376   0.90459   0.00000  Uiso   1.00
C995   C     0.15245   0.54539   0.90744   0.00000  Uiso   1.00
C996   C     0.24610   0.50000   0.74511   0.00000  Uiso   1.00
C997   C     0.14933   0.46236   0.58926   0.00000  Uiso   1.00
C998   C     0.17055   0.49684   0.61532   0.00000  Uiso   1.00
C999   C     0.15200   0.50367   0.88259   0.00000  Uiso   1.00
C1000  C     0.15673   0.50461   0.52375   0.00000  Uiso   1.00
C1001  C     0.15333   0.50481   0.97520   0.00000  Uiso   1.00
C1002  C     0.29023   0.50013   0.73888   0.00000  Uiso   1.00
C1003  C     0.04200   0.50027   0.75541   0.00000  Uiso   1.00
C1004  C     0.21814   0.38451   0.81359   0.00000  Uiso   1.00
C1005  C     0.12075   0.61575   0.68222   0.00000  Uiso   1.00
C1006  C     0.10223   0.37521   0.69854   0.00000  Uiso   1.00
C1007  C     0.16836   0.49898   0.66386   0.00000  Uiso   1.00
C1008  C     0.22915   0.62361   0.80361   0.00000  Uiso   1.00
C1009  C     0.21934   0.56429   0.61705   0.00000  Uiso   1.00
C1010  C     0.12465   0.42295   0.88223   0.00000  Uiso   1.00
C1011  C     0.14928   0.58975   0.88719   0.00000  Uiso   1.00
C1012  C     0.14268   0.41614   0.60352   0.00000  Uiso   1.00
C1013  C     0.03700   0.41792   0.76807   0.00000  Uiso   1.00
C1014  C     0.29368   0.58230   0.72581   0.00000  Uiso   1.00
C1015  C     0.29186   0.41745   0.72180   0.00000  Uiso   1.00
C1016  C     0.04017   0.58423   0.76709   0.00000  Uiso   1.00
C1017  C     0.16207   0.50100   0.83552   0.00000  Uiso   1.00
C1018  C     0.19348   0.35898   0.77815   0.00000  Uiso   1.00
C1019  C     0.14100   0.64093   0.72084   0.00000  Uiso   1.00
C1020  C     0.13861   0.35529   0.72292   0.00000  Uiso   1.00
C1021  C     0.19445   0.64447   0.77745   0.00000  Uiso   1.00
C1022  C     0.01972   0.45929   0.75206   0.00000  Uiso   1.00
H1023  H     0.19860   0.56145   0.53126   0.00000  Uiso   1.00
H1024  H     0.11144   0.35709   0.88523   0.00000  Uiso   1.00
H1025  H     0.12202   0.62725   0.83999   0.00000  Uiso   1.00
H1026  H     0.10578   0.36096   0.59953   0.00000  Uiso   1.00
H1027  H     0.14885   0.43259   0.96654   0.00000  Uiso   1.00
H1028  H     0.15275   0.57676   0.97266   0.00000  Uiso   1.00
H1029  H     0.11842   0.44538   0.52682   0.00000  Uiso   1.00
H1030  H     0.22580   0.40114   0.87896   0.00000  Uiso   1.00
H1031  H     0.11941   0.60266   0.61609   0.00000  Uiso   1.00
H1032  H     0.04243   0.36783   0.67563   0.00000  Uiso   1.00
H1033  H     0.29013   0.62546   0.82257   0.00000  Uiso   1.00
H1034  H     0.24439   0.62662   0.62182   0.00000  Uiso   1.00
N1035  N     0.16667   0.61907   0.75000   0.00000  Uiso   1.00
N1036  N     0.16667   0.38093   0.75000   0.00000  Uiso   1.00
N1037  N     0.04998   0.38478   0.78142   0.00000  Uiso   1.00
N1038  N     0.27933   0.61512   0.71317   0.00000  Uiso   1.00
N1039  N     0.27629   0.38426   0.70805   0.00000  Uiso   1.00
N1040  N     0.05532   0.61841   0.77823   0.00000  Uiso   1.00
O1041  O     0.10559   0.53821   0.74999   0.00000  Uiso   1.00
O1042  O     0.20612   0.38360   0.85722   0.00000  Uiso   1.00
O1043  O     0.09011   0.59247   0.68632   0.00000  Uiso   1.00
O1044  O     0.13583   0.62089   0.64025   0.00000  Uiso   1.00
O1045  O     0.10433   0.41183   0.68279   0.00000  Uiso   1.00
O1046  O     0.06477   0.35116   0.69298   0.00000  Uiso   1.00
O1047  O     0.22306   0.59297   0.82780   0.00000  Uiso   1.00
O1048  O     0.26918   0.64166   0.80289   0.00000  Uiso   1.00
O1049  O     0.24289   0.55113   0.64666   0.00000  Uiso   1.00
O1050  O     0.22227   0.60849   0.60368   0.00000  Uiso   1.00
O1051  O     0.10204   0.42618   0.84876   0.00000  Uiso   1.00
O1052  O     0.22774   0.46179   0.75000   0.00000  Uiso   1.00
O1053  O     0.12902   0.38138   0.90165   0.00000  Uiso   1.00
O1054  O     0.17149   0.62093   0.90192   0.00000  Uiso   1.00
O1055  O     0.11962   0.59647   0.85265   0.00000  Uiso   1.00
O1056  O     0.17044   0.39687   0.62406   0.00000  Uiso   1.00
O1057  O     0.10604   0.39303   0.58971   0.00000  Uiso   1.00
O1058  O     0.22774   0.53821   0.75000   0.00000  Uiso   1.00
O1059  O     0.10559   0.46179   0.74999   0.00000  Uiso   1.00
O1060  O     0.16666   0.53822   0.68453   0.00000  Uiso   1.00
O1061  O     0.16667   0.46178   0.81547   0.00000  Uiso   1.00
O1062  O     0.16667   0.53822   0.81547   0.00000  Uiso   1.00
O1063  O     0.16666   0.46178   0.68453   0.00000  Uiso   1.00
O1064  O     0.25070   0.40269   0.80572   0.00000  Uiso   1.00
Zn1065 Zn    0.16667   0.55104   0.75000   0.00000  Uiso   1.00
Zn1066 Zn    0.16667   0.44896   0.75000   0.00000  Uiso   1.00
C1067  C     0.42011   0.50003   0.75330   0.00000  Uiso   1.00
C1068  C     0.64561   0.54109   0.74091   0.00000  Uiso   1.00
C1069  C     0.64481   0.45924   0.73872   0.00000  Uiso   1.00
C1070  C     0.35410   0.54142   0.75324   0.00000  Uiso   1.00
C1071  C     0.51566   0.53581   0.54810   0.00000  Uiso   1.00
C1072  C     0.48269   0.46424   0.95038   0.00000  Uiso   1.00
C1073  C     0.48636   0.54521   0.95357   0.00000  Uiso   1.00
C1074  C     0.47190   0.46957   0.54521   0.00000  Uiso   1.00
C1075  C     0.52241   0.53269   0.59383   0.00000  Uiso   1.00
C1076  C     0.47745   0.46376   0.90459   0.00000  Uiso   1.00
C1077  C     0.48578   0.54539   0.90744   0.00000  Uiso   1.00
C1078  C     0.57944   0.50000   0.74511   0.00000  Uiso   1.00
C1079  C     0.48266   0.46236   0.58926   0.00000  Uiso   1.00
C1080  C     0.50389   0.49684   0.61532   0.00000  Uiso   1.00
C1081  C     0.48533   0.50367   0.88259   0.00000  Uiso   1.00
C1082  C     0.49006   0.50461   0.52375   0.00000  Uiso   1.00
C1083  C     0.48667   0.50481   0.97520   0.00000  Uiso   1.00
C1084  C     0.62356   0.50013   0.73888   0.00000  Uiso   1.00
C1085  C     0.37533   0.50027   0.75541   0.00000  Uiso   1.00
C1086  C     0.55148   0.38451   0.81359   0.00000  Uiso   1.00
C1087  C     0.45408   0.61575   0.68222   0.00000  Uiso   1.00
C1088  C     0.43556   0.37521   0.69854   0.00000  Uiso   1.00
C1089  C     0.50169   0.49898   0.66386   0.00000  Uiso   1.00
C1090  C     0.56249   0.62361   0.80361   0.00000  Uiso   1.00
C1091  C     0.55267   0.56429   0.61705   0.00000  Uiso   1.00
C1092  C     0.45799   0.42295   0.88223   0.00000  Uiso   1.00
C1093  C     0.48262   0.58975   0.88719   0.00000  Uiso   1.00
C1094  C     0.47601   0.41614   0.60352   0.00000  Uiso   1.00
C1095  C     0.37033   0.41792   0.76807   0.00000  Uiso   1.00
C1096  C     0.62702   0.58230   0.72581   0.00000  Uiso   1.00
C1097  C     0.62519   0.41745   0.72180   0.00000  Uiso   1.00
C1098  C     0.37351   0.58423   0.76709   0.00000  Uiso   1.00
C1099  C     0.49541   0.50100   0.83552   0.00000  Uiso   1.00
C1100  C     0.52682   0.35898   0.77815   0.00000  Uiso   1.00
C1101  C     0.47433   0.64093   0.72084   0.00000  Uiso   1.00
C1102  C     0.47194   0.35529   0.72292   0.00000  Uiso   1.00
C1103  C     0.52778   0.64447   0.77745   0.00000  Uiso   1.00
C1104  C     0.35305   0.45929   0.75206   0.00000  Uiso   1.00
H1105  H     0.53193   0.56145   0.53126   0.00000  Uiso   1.00
H1106  H     0.44478   0.35709   0.88523   0.00000  Uiso   1.00
H1107  H     0.45535   0.62725   0.83999   0.00000  Uiso   1.00
H1108  H     0.43911   0.36096   0.59953   0.00000  Uiso   1.00
H1109  H     0.48218   0.43259   0.96654   0.00000  Uiso   1.00
H1110  H     0.48608   0.57676   0.97266   0.00000  Uiso   1.00
H1111  H     0.45175   0.44538   0.52682   0.00000  Uiso   1.00
H1112  H     0.55913   0.40114   0.87896   0.00000  Uiso   1.00
H1113  H     0.45274   0.60266   0.61609   0.00000  Uiso   1.00
H1114  H     0.37576   0.36783   0.67563   0.00000  Uiso   1.00
H1115  H     0.62346   0.62546   0.82257   0.00000  Uiso   1.00
H1116  H     0.57772   0.62662   0.62182   0.00000  Uiso   1.00
N1117  N     0.50000   0.61907   0.75000   0.00000  Uiso   1.00
N1118  N     0.50000   0.38093   0.75000   0.00000  Uiso   1.00
N1119  N     0.38332   0.38478   0.78142   0.00000  Uiso   1.00
N1120  N     0.61266   0.61512   0.71317   0.00000  Uiso   1.00
N1121  N     0.60963   0.38426   0.70805   0.00000  Uiso   1.00
N1122  N     0.38865   0.61841   0.77823   0.00000  Uiso   1.00
O1123  O     0.43892   0.53821   0.74999   0.00000  Uiso   1.00
O1124  O     0.53945   0.38360   0.85722   0.00000  Uiso   1.00
O1125  O     0.42344   0.59247   0.68632   0.00000  Uiso   1.00
O1126  O     0.46916   0.62089   0.64025   0.00000  Uiso   1.00
O1127  O     0.43766   0.41183   0.68279   0.00000  Uiso   1.00
O1128  O     0.39811   0.35116   0.69298   0.00000  Uiso   1.00
O1129  O     0.55640   0.59297   0.82780   0.00000  Uiso   1.00
O1130  O     0.60252   0.64166   0.80289   0.00000  Uiso   1.00
O1131  O     0.57623   0.55113   0.64666   0.00000  Uiso   1.00
O1132  O     0.55561   0.60849   0.60368   0.00000  Uiso   1.00
O1133  O     0.43537   0.42618   0.84876   0.00000  Uiso   1.00
O1134  O     0.56108   0.46179   0.75000   0.00000  Uiso   1.00
O1135  O     0.46235   0.38138   0.90165   0.00000  Uiso   1.00
O1136  O     0.50482   0.62093   0.90192   0.00000  Uiso   1.00
O1137  O     0.45296   0.59647   0.85265   0.00000  Uiso   1.00
O1138  O     0.50377   0.39687   0.62406   0.00000  Uiso   1.00
O1139  O     0.43937   0.39303   0.58971   0.00000  Uiso   1.00
O1140  O     0.56108   0.53821   0.75000   0.00000  Uiso   1.00
O1141  O     0.43892   0.46179   0.74999   0.00000  Uiso   1.00
O1142  O     0.50000   0.53822   0.68453   0.00000  Uiso   1.00
O1143  O     0.50000   0.46178   0.81547   0.00000  Uiso   1.00
O1144  O     0.50000   0.53822   0.81547   0.00000  Uiso   1.00
O1145  O     0.50000   0.46178   0.68453   0.00000  Uiso   1.00
O1146  O     0.58403   0.40269   0.80572   0.00000  Uiso   1.00
Zn1147 Zn    0.50000   0.55104   0.75000   0.00000  Uiso   1.00
Zn1148 Zn    0.50000   0.44896   0.75000   0.00000  Uiso   1.00
C1149  C     0.75345   0.50003   0.75330   0.00000  Uiso   1.00
C1150  C     0.97894   0.54109   0.74091   0.00000  Uiso   1.00
C1151  C     0.97814   0.45924   0.73872   0.00000  Uiso   1.00
C1152  C     0.68743   0.54142   0.75324   0.00000  Uiso   1.00
C1153  C     0.84900   0.53581   0.54810   0.00000  Uiso   1.00
C1154  C     0.81603   0.46424   0.95038   0.00000  Uiso   1.00
C1155  C     0.81969   0.54521   0.95357   0.00000  Uiso   1.00
C1156  C     0.80523   0.46957   0.54521   0.00000  Uiso   1.00
C1157  C     0.85574   0.53269   0.59383   0.00000  Uiso   1.00
C1158  C     0.81079   0.46376   0.90459   0.00000  Uiso   1.00
C1159  C     0.81911   0.54539   0.90744   0.00000  Uiso   1.00
C1160  C     0.91277   0.50000   0.74511   0.00000  Uiso   1.00
C1161  C     0.81599   0.46236   0.58926   0.00000  Uiso   1.00
C1162  C     0.83722   0.49684   0.61532   0.00000  Uiso   1.00
C1163  C     0.81866   0.50367   0.88259   0.00000  Uiso   1.00
C1164  C     0.82339   0.50461   0.52375   0.00000  Uiso   1.00
C1165  C     0.82000   0.50481   0.97520   0.00000  Uiso   1.00
C1166  C     0.95690   0.50013   0.73888   0.00000  Uiso   1.00
C1167  C     0.70866   0.50027   0.75541   0.00000  Uiso   1.00
C1168  C     0.88481   0.38451   0.81359   0.00000  Uiso   1.00
C1169  C     0.78741   0.61575   0.68222   0.00000  Uiso   1.00
C1170  C     0.76890   0.37521   0.69854   0.00000  Uiso   1.00
C1171  C     0.83503   0.49898   0.66386   0.00000  Uiso   1.00
C1172  C     0.89582   0.62361   0.80361   0.00000  Uiso   1.00
C1173  C     0.88600   0.56429   0.61705   0.00000  Uiso   1.00
C1174  C     0.79132   0.42295   0.88223   0.00000  Uiso   1.00
C1175  C     0.81595   0.58975   0.88719   0.00000  Uiso   1.00
C1176  C     0.80935   0.41614   0.60352   0.00000  Uiso   1.00
C1177  C     0.70367   0.41792   0.76807   0.00000  Uiso   1.00
C1178  C     0.96035   0.58230   0.72581   0.00000  Uiso   1.00
C1179  C     0.95852   0.41745   0.72180   0.00000  Uiso   1.00
C1180  C     0.70684   0.58423   0.76709   0.00000  Uiso   1.00
C1181  C     0.82874   0.50100   0.83552   0.00000  Uiso   1.00
C1182  C     0.86015   0.35898   0.77815   0.00000  Uiso   1.00
C1183  C     0.80766   0.64093   0.72084   0.00000  Uiso   1.00
C1184  C     0.80528   0.35529   0.72292   0.00000  Uiso   1.00
C1185  C     0.86111   0.64447   0.77745   0.00000  Uiso   1.00
C1186  C     0.68639   0.45929   0.75206   0.00000  Uiso   1.00
H1187  H     0.86526   0.56145   0.53126   0.00000  Uiso   1.00
H1188  H     0.77811   0.35709   0.88523   0.00000  Uiso   1.00
H1189  H     0.78868   0.62725   0.83999   0.00000  Uiso   1.00
H1190  H     0.77245   0.36096   0.59953   0.00000  Uiso   1.00
H1191  H     0.81551   0.43259   0.96654   0.00000  Uiso   1.00
H1192  H     0.81942   0.57676   0.97266   0.00000  Uiso   1.00
H1193  H     0.78509   0.44538   0.52682   0.00000  Uiso   1.00
H1194  H     0.89246   0.40114   0.87896   0.00000  Uiso   1.00
H1195  H     0.78607   0.60266   0.61609   0.00000  Uiso   1.00
H1196  H     0.70910   0.36783   0.67563   0.00000  Uiso   1.00
H1197  H     0.95679   0.62546   0.82257   0.00000  Uiso   1.00
H1198  H     0.91105   0.62662   0.62182   0.00000  Uiso   1.00
N1199  N     0.83333   0.61907   0.75000   0.00000  Uiso   1.00
N1200  N     0.83333   0.38093   0.75000   0.00000  Uiso   1.00
N1201  N     0.71665   0.38478   0.78142   0.00000  Uiso   1.00
N1202  N     0.94599   0.61512   0.71317   0.00000  Uiso   1.00
N1203  N     0.94296   0.38426   0.70805   0.00000  Uiso   1.00
N1204  N     0.72199   0.61841   0.77823   0.00000  Uiso   1.00
O1205  O     0.77226   0.53821   0.74999   0.00000  Uiso   1.00
O1206  O     0.87278   0.38360   0.85722   0.00000  Uiso   1.00
O1207  O     0.75678   0.59247   0.68632   0.00000  Uiso   1.00
O1208  O     0.80250   0.62089   0.64025   0.00000  Uiso   1.00
O1209  O     0.77099   0.41183   0.68279   0.00000  Uiso   1.00
O1210  O     0.73144   0.35116   0.69298   0.00000  Uiso   1.00
O1211  O     0.88973   0.59297   0.82780   0.00000  Uiso   1.00
O1212  O     0.93585   0.64166   0.80289   0.00000  Uiso   1.00
O1213  O     0.90956   0.55113   0.64666   0.00000  Uiso   1.00
O1214  O     0.88894   0.60849   0.60368   0.00000  Uiso   1.00
O1215  O     0.76870   0.42618   0.84876   0.00000  Uiso   1.00
O1216  O     0.89441   0.46179   0.75000   0.00000  Uiso   1.00
O1217  O     0.79568   0.38138   0.90165   0.00000  Uiso   1.00
O1218  O     0.83816   0.62093   0.90192   0.00000  Uiso   1.00
O1219  O     0.78629   0.59647   0.85265   0.00000  Uiso   1.00
O1220  O     0.83711   0.39687   0.62406   0.00000  Uiso   1.00
O1221  O     0.77271   0.39303   0.58971   0.00000  Uiso   1.00
O1222  O     0.89441   0.53821   0.75000   0.00000  Uiso   1.00
O1223  O     0.77226   0.46179   0.74999   0.00000  Uiso   1.00
O1224  O     0.83333   0.53822   0.68453   0.00000  Uiso   1.00
O1225  O     0.83334   0.46178   0.81547   0.00000  Uiso   1.00
O1226  O     0.83334   0.53822   0.81547   0.00000  Uiso   1.00
O1227  O     0.83333   0.46178   0.68453   0.00000  Uiso   1.00
O1228  O     0.91736   0.40269   0.80572   0.00000  Uiso   1.00
Zn1229 Zn    0.83333   0.55104   0.75000   0.00000  Uiso   1.00
Zn1230 Zn    0.83333   0.44896   0.75000   0.00000  Uiso   1.00
C1231  C     0.08678   0.83337   0.75330   0.00000  Uiso   1.00
C1232  C     0.31227   0.87442   0.74091   0.00000  Uiso   1.00
C1233  C     0.31148   0.79257   0.73872   0.00000  Uiso   1.00
C1234  C     0.02077   0.87475   0.75324   0.00000  Uiso   1.00
C1235  C     0.18233   0.86915   0.54810   0.00000  Uiso   1.00
C1236  C     0.14936   0.79758   0.95038   0.00000  Uiso   1.00
C1237  C     0.15303   0.87854   0.95357   0.00000  Uiso   1.00
C1238  C     0.13857   0.80290   0.54521   0.00000  Uiso   1.00
C1239  C     0.18908   0.86602   0.59383   0.00000  Uiso   1.00
C1240  C     0.14412   0.79709   0.90459   0.00000  Uiso   1.00
C1241  C     0.15245   0.87873   0.90744   0.00000  Uiso   1.00
C1242  C     0.24610   0.83334   0.74511   0.00000  Uiso   1.00
C1243  C     0.14933   0.79570   0.58926   0.00000  Uiso   1.00
C1244  C     0.17055   0.83018   0.61532   0.00000  Uiso   1.00
C1245  C     0.15200   0.83700   0.88259   0.00000  Uiso   1.00
C1246  C     0.15673   0.83794   0.52375   0.00000  Uiso   1.00
C1247  C     0.15333   0.83814   0.97520   0.00000  Uiso   1.00
C1248  C     0.29023   0.83346   0.73888   0.00000  Uiso   1.00
C1249  C     0.04200   0.83360   0.75541   0.00000  Uiso   1.00
C1250  C     0.21814   0.71785   0.81359   0.00000  Uiso   1.00
C1251  C     0.12075   0.94909   0.68222   0.00000  Uiso   1.00
C1252  C     0.10223   0.70854   0.69854   0.00000  Uiso   1.00
C1253  C     0.16836   0.83232   0.66386   0.00000  Uiso   1.00
C1254  C     0.22915   0.95695   0.80361   0.00000  Uiso   1.00
C1255  C     0.21934   0.89762   0.61705   0.00000  Uiso   1.00
C1256  C     0.12465   0.75628   0.88223   0.00000  Uiso   1.00
C1257  C     0.14928   0.92309   0.88719   0.00000  Uiso   1.00
C1258  C     0.14268   0.74947   0.60352   0.00000  Uiso   1.00
C1259  C     0.03700   0.75125   0.76807   0.00000  Uiso   1.00
C1260  C     0.29368   0.91563   0.72581   0.00000  Uiso   1.00
C1261  C     0.29186   0.75078   0.72180   0.00000  Uiso   1.00
C1262  C     0.04017   0.91756   0.76709   0.00000  Uiso   1.00
C1263  C     0.16207   0.83434   0.83552   0.00000  Uiso   1.00
C1264  C     0.19348   0.69232   0.77815   0.00000  Uiso   1.00
C1265  C     0.14100   0.97426   0.72084   0.00000  Uiso   1.00
C1266  C     0.13861   0.68862   0.72292   0.00000  Uiso   1.00
C1267  C     0.19445   0.97780   0.77745   0.00000  Uiso   1.00
C1268  C     0.01972   0.79263   0.75206   0.00000  Uiso   1.00
H1269  H     0.19860   0.89478   0.53126   0.00000  Uiso   1.00
H1270  H     0.11144   0.69042   0.88523   0.00000  Uiso   1.00
H1271  H     0.12202   0.96059   0.83999   0.00000  Uiso   1.00
H1272  H     0.10578   0.69429   0.59953   0.00000  Uiso   1.00
H1273  H     0.14885   0.76592   0.96654   0.00000  Uiso   1.00
H1274  H     0.15275   0.91010   0.97266   0.00000  Uiso   1.00
H1275  H     0.11842   0.77871   0.52682   0.00000  Uiso   1.00
H1276  H     0.22580   0.73448   0.87896   0.00000  Uiso   1.00
H1277  H     0.11941   0.93600   0.61609   0.00000  Uiso   1.00
H1278  H     0.04243   0.70116   0.67563   0.00000  Uiso   1.00
H1279  H     0.29013   0.95880   0.82257   0.00000  Uiso   1.00
H1280  H     0.24439   0.95995   0.62182   0.00000  Uiso   1.00
N1281  N     0.16667   0.95240   0.75000   0.00000  Uiso   1.00
N1282  N     0.16667   0.71427   0.75000   0.00000  Uiso   1.00
N1283  N     0.04998   0.71811   0.78142   0.00000  Uiso   1.00
N1284  N     0.27933   0.94845   0.71317   0.00000  Uiso   1.00
N1285  N     0.27629   0.71760   0.70805   0.00000  Uiso   1.00
N1286  N     0.05532   0.95175   0.77823   0.00000  Uiso   1.00
O1287  O     0.10559   0.87154   0.74999   0.00000  Uiso   1.00
O1288  O     0.20612   0.71694   0.85722   0.00000  Uiso   1.00
O1289  O     0.09011   0.92580   0.68632   0.00000  Uiso   1.00
O1290  O     0.13583   0.95422   0.64025   0.00000  Uiso   1.00
O1291  O     0.10433   0.74516   0.68279   0.00000  Uiso   1.00
O1292  O     0.06477   0.68450   0.69298   0.00000  Uiso   1.00
O1293  O     0.22306   0.92630   0.82780   0.00000  Uiso   1.00
O1294  O     0.26918   0.97499   0.80289   0.00000  Uiso   1.00
O1295  O     0.24289   0.88446   0.64666   0.00000  Uiso   1.00
O1296  O     0.22227   0.94182   0.60368   0.00000  Uiso   1.00
O1297  O     0.10204   0.75951   0.84876   0.00000  Uiso   1.00
O1298  O     0.22774   0.79513   0.75000   0.00000  Uiso   1.00
O1299  O     0.12902   0.71471   0.90165   0.00000  Uiso   1.00
O1300  O     0.17149   0.95426   0.90192   0.00000  Uiso   1.00
O1301  O     0.11962   0.92980   0.85265   0.00000  Uiso   1.00
O1302  O     0.17044   0.73020   0.62406   0.00000  Uiso   1.00
O1303  O     0.10604   0.72636   0.58971   0.00000  Uiso   1.00
O1304  O     0.22774   0.87154   0.75000   0.00000  Uiso   1.00
O1305  O     0.10559   0.79513   0.74999   0.00000  Uiso   1.00
O1306  O     0.16666   0.87155   0.68453   0.00000  Uiso   1.00
O1307  O     0.16667   0.79511   0.81547   0.00000  Uiso   1.00
O1308  O     0.16667   0.87155   0.81547   0.00000  Uiso   1.00
O1309  O     0.16666   0.79511   0.68453   0.00000  Uiso   1.00
O1310  O     0.25070   0.73603   0.80572   0.00000  Uiso   1.00
Zn1311 Zn    0.16667   0.88437   0.75000   0.00000  Uiso   1.00
Zn1312 Zn    0.16667   0.78229   0.75000   0.00000  Uiso   1.00
C1313  C     0.42011   0.83337   0.75330   0.00000  Uiso   1.00
C1314  C     0.64561   0.87442   0.74091   0.00000  Uiso   1.00
C1315  C     0.64481   0.79257   0.73872   0.00000  Uiso   1.00
C1316  C     0.35410   0.87475   0.75324   0.00000  Uiso   1.00
C1317  C     0.51566   0.86915   0.54810   0.00000  Uiso   1.00
C1318  C     0.48269   0.79758   0.95038   0.00000  Uiso   1.00
C1319  C     0.48636   0.87854   0.95357   0.00000  Uiso   1.00
C1320  C     0.47190   0.80290   0.54521   0.00000  Uiso   1.00
C1321  C     0.52241   0.86602   0.59383   0.00000  Uiso   1.00
C1322  C     0.47745   0.79709   0.90459   0.00000  Uiso   1.00
C1323  C     0.48578   0.87873   0.90744   0.00000  Uiso   1.00
C1324  C     0.57944   0.83334   0.74511   0.00000  Uiso   1.00
C1325  C     0.48266   0.79570   0.58926   0.00000  Uiso   1.00
C1326  C     0.50389   0.83018   0.61532   0.00000  Uiso   1.00
C1327  C     0.48533   0.83700   0.88259   0.00000  Uiso   1.00
C1328  C     0.49006   0.83794   0.52375   0.00000  Uiso   1.00
C1329  C     0.48667   0.83814   0.97520   0.00000  Uiso   1.00
C1330  C     0.62356   0.83346   0.73888   0.00000  Uiso   1.00
C1331  C     0.37533   0.83360   0.75541   0.00000  Uiso   1.00
C1332  C     0.55148   0.71785   0.81359   0.00000  Uiso   1.00
C1333  C     0.45408   0.94909   0.68222   0.00000  Uiso   1.00
C1334  C     0.43556   0.70854   0.69854   0.00000  Uiso   1.00
C1335  C     0.50169   0.83232   0.66386   0.00000  Uiso   1.00
C1336  C     0.56249   0.95695   0.80361   0.00000  Uiso   1.00
C1337  C     0.55267   0.89762   0.61705   0.00000  Uiso   1.00
C1338  C     0.45799   0.75628   0.88223   0.00000  Uiso   1.00
C1339  C     0.48262   0.92309   0.88719   0.00000  Uiso   1.00
C1340  C     0.47601   0.74947   0.60352   0.00000  Uiso   1.00
C1341  C     0.37033   0.75125   0.76807   0.00000  Uiso   1.00
C1342  C     0.62702   0.91563   0.72581   0.00000  Uiso   1.00
C1343  C     0.62519   0.75078   0.72180   0.00000  Uiso   1.00
C1344  C     0.37351   0.91756   0.76709   0.00000  Uiso   1.00
C1345  C     0.49541   0.83434   0.83552   0.00000  Uiso   1.00
C1346  C     0.52682   0.69232   0.77815   0.00000  Uiso   1.00
C1347  C     0.47433   0.97426   0.72084   0.00000  Uiso   1.00
C1348  C     0.47194   0.68862   0.72292   0.00000  Uiso   1.00
C1349  C     0.52778   0.97780   0.77745   0.00000  Uiso   1.00
C1350  C     0.35305   0.79263   0.75206   0.00000  Uiso   1.00
H1351  H     0.53193   0.89478   0.53126   0.00000  Uiso   1.00
H1352  H     0.44478   0.69042   0.88523   0.00000  Uiso   1.00
H1353  H     0.45535   0.96059   0.83999   0.00000  Uiso   1.00
H1354  H     0.43911   0.69429   0.59953   0.00000  Uiso   1.00
H1355  H     0.48218   0.76592   0.96654   0.00000  Uiso   1.00
H1356  H     0.48608   0.91010   0.97266   0.00000  Uiso   1.00
H1357  H     0.45175   0.77871   0.52682   0.00000  Uiso   1.00
H1358  H     0.55913   0.73448   0.87896   0.00000  Uiso   1.00
H1359  H     0.45274   0.93600   0.61609   0.00000  Uiso   1.00
H1360  H     0.37576   0.70116   0.67563   0.00000  Uiso   1.00
H1361  H     0.62346   0.95880   0.82257   0.00000  Uiso   1.00
H1362  H     0.57772   0.95995   0.62182   0.00000  Uiso   1.00
N1363  N     0.50000   0.95240   0.75000   0.00000  Uiso   1.00
N1364  N     0.50000   0.71427   0.75000   0.00000  Uiso   1.00
N1365  N     0.38332   0.71811   0.78142   0.00000  Uiso   1.00
N1366  N     0.61266   0.94845   0.71317   0.00000  Uiso   1.00
N1367  N     0.60963   0.71760   0.70805   0.00000  Uiso   1.00
N1368  N     0.38865   0.95175   0.77823   0.00000  Uiso   1.00
O1369  O     0.43892   0.87154   0.74999   0.00000  Uiso   1.00
O1370  O     0.53945   0.71694   0.85722   0.00000  Uiso   1.00
O1371  O     0.42344   0.92580   0.68632   0.00000  Uiso   1.00
O1372  O     0.46916   0.95422   0.64025   0.00000  Uiso   1.00
O1373  O     0.43766   0.74516   0.68279   0.00000  Uiso   1.00
O1374  O     0.39811   0.68450   0.69298   0.00000  Uiso   1.00
O1375  O     0.55640   0.92630   0.82780   0.00000  Uiso   1.00
O1376  O     0.60252   0.97499   0.80289   0.00000  Uiso   1.00
O1377  O     0.57623   0.88446   0.64666   0.00000  Uiso   1.00
O1378  O     0.55561   0.94182   0.60368   0.00000  Uiso   1.00
O1379  O     0.43537   0.75951   0.84876   0.00000  Uiso   1.00
O1380  O     0.56108   0.79513   0.75000   0.00000  Uiso   1.00
O1381  O     0.46235   0.71471   0.90165   0.00000  Uiso   1.00
O1382  O     0.50482   0.95426   0.90192   0.00000  Uiso   1.00
O1383  O     0.45296   0.92980   0.85265   0.00000  Uiso   1.00
O1384  O     0.50377   0.73020   0.62406   0.00000  Uiso   1.00
O1385  O     0.43937   0.72636   0.58971   0.00000  Uiso   1.00
O1386  O     0.56108   0.87154   0.75000   0.00000  Uiso   1.00
O1387  O     0.43892   0.79513   0.74999   0.00000  Uiso   1.00
O1388  O     0.50000   0.87155   0.68453   0.00000  Uiso   1.00
O1389  O     0.50000   0.79511   0.81547   0.00000  Uiso   1.00
O1390  O     0.50000   0.87155   0.81547   0.00000  Uiso   1.00
O1391  O     0.50000   0.79511   0.68453   0.00000  Uiso   1.00
O1392  O     0.58403   0.73603   0.80572   0.00000  Uiso   1.00
Zn1393 Zn    0.50000   0.88437   0.75000   0.00000  Uiso   1.00
Zn1394 Zn    0.50000   0.78229   0.75000   0.00000  Uiso   1.00
C1395  C     0.75345   0.83337   0.75330   0.00000  Uiso   1.00
C1396  C     0.97894   0.87442   0.74091   0.00000  Uiso   1.00
C1397  C     0.97814   0.79257   0.73872   0.00000  Uiso   1.00
C1398  C     0.68743   0.87475   0.75324   0.00000  Uiso   1.00
C1399  C     0.84900   0.86915   0.54810   0.00000  Uiso   1.00
C1400  C     0.81603   0.79758   0.95038   0.00000  Uiso   1.00
C1401  C     0.81969   0.87854   0.95357   0.00000  Uiso   1.00
C1402  C     0.80523   0.80290   0.54521   0.00000  Uiso   1.00
C1403  C     0.85574   0.86602   0.59383   0.00000  Uiso   1.00
C1404  C     0.81079   0.79709   0.90459   0.00000  Uiso   1.00
C1405  C     0.81911   0.87873   0.90744   0.00000  Uiso   1.00
C1406  C     0.91277   0.83334   0.74511   0.00000  Uiso   1.00
C1407  C     0.81599   0.79570   0.58926   0.00000  Uiso   1.00
C1408  C     0.83722   0.83018   0.61532   0.00000  Uiso   1.00
C1409  C     0.81866   0.83700   0.88259   0.00000  Uiso   1.00
C1410  C     0.82339   0.83794   0.52375   0.00000  Uiso   1.00
C1411  C     0.82000   0.83814   0.97520   0.00000  Uiso   1.00
C1412  C     0.95690   0.83346   0.73888   0.00000  Uiso   1.00
C1413  C     0.70866   0.83360   0.75541   0.00000  Uiso   1.00
C1414  C     0.88481   0.71785   0.81359   0.00000  Uiso   1.00
C1415  C     0.78741   0.94909   0.68222   0.00000  Uiso   1.00
C1416  C     0.76890   0.70854   0.69854   0.00000  Uiso   1.00
C1417  C     0.83503   0.83232   0.66386   0.00000  Uiso   1.00
C1418  C     0.89582   0.95695   0.80361   0.00000  Uiso   1.00
C1419  C     0.88600   0.89762   0.61705   0.00000  Uiso   1.00
C1420  C     0.79132   0.75628   0.88223   0.00000  Uiso   1.00
C1421  C     0.81595   0.92309   0.88719   0.00000  Uiso   1.00
C1422  C     0.80935   0.74947   0.60352   0.00000  Uiso   1.00
C1423  C     0.70367   0.75125   0.76807   0.00000  Uiso   1.00
C1424  C     0.96035   0.91563   0.72581   0.00000  Uiso   1.00
C1425  C     0.95852   0.75078   0.72180   0.00000  Uiso   1.00
C1426  C     0.70684   0.91756   0.76709   0.00000  Uiso   1.00
C1427  C     0.82874   0.83434   0.83552   0.00000  Uiso   1.00
C1428  C     0.86015   0.69232   0.77815   0.00000  Uiso   1.00
C1429  C     0.80766   0.97426   0.72084   0.00000  Uiso   1.00
C1430  C     0.80528   0.68862   0.72292   0.00000  Uiso   1.00
C1431  C     0.86111   0.97780   0.77745   0.00000  Uiso   1.00
C1432  C     0.68639   0.79263   0.75206   0.00000  Uiso   1.00
H1433  H     0.86526   0.89478   0.53126   0.00000  Uiso   1.00
H1434  H     0.77811   0.69042   0.88523   0.00000  Uiso   1.00
H1435  H     0.78868   0.96059   0.83999   0.00000  Uiso   1.00
H1436  H     0.77245   0.69429   0.59953   0.00000  Uiso   1.00
H1437  H     0.81551   0.76592   0.96654   0.00000  Uiso   1.00
H1438  H     0.81942   0.91010   0.97266   0.00000  Uiso   1.00
H1439  H     0.78509   0.77871   0.52682   0.00000  Uiso   1.00
H1440  H     0.89246   0.73448   0.87896   0.00000  Uiso   1.00
H1441  H     0.78607   0.93600   0.61609   0.00000  Uiso   1.00
H1442  H     0.70910   0.70116   0.67563   0.00000  Uiso   1.00
H1443  H     0.95679   0.95880   0.82257   0.00000  Uiso   1.00
H1444  H     0.91105   0.95995   0.62182   0.00000  Uiso   1.00
N1445  N     0.83333   0.95240   0.75000   0.00000  Uiso   1.00
N1446  N     0.83333   0.71427   0.75000   0.00000  Uiso   1.00
N1447  N     0.71665   0.71811   0.78142   0.00000  Uiso   1.00
N1448  N     0.94599   0.94845   0.71317   0.00000  Uiso   1.00
N1449  N     0.94296   0.71760   0.70805   0.00000  Uiso   1.00
N1450  N     0.72199   0.95175   0.77823   0.00000  Uiso   1.00
O1451  O     0.77226   0.87154   0.74999   0.00000  Uiso   1.00
O1452  O     0.87278   0.71694   0.85722   0.00000  Uiso   1.00
O1453  O     0.75678   0.92580   0.68632   0.00000  Uiso   1.00
O1454  O     0.80250   0.95422   0.64025   0.00000  Uiso   1.00
O1455  O     0.77099   0.74516   0.68279   0.00000  Uiso   1.00
O1456  O     0.73144   0.68450   0.69298   0.00000  Uiso   1.00
O1457  O     0.88973   0.92630   0.82780   0.00000  Uiso   1.00
O1458  O     0.93585   0.97499   0.80289   0.00000  Uiso   1.00
O1459  O     0.90956   0.88446   0.64666   0.00000  Uiso   1.00
O1460  O     0.88894   0.94182   0.60368   0.00000  Uiso   1.00
O1461  O     0.76870   0.75951   0.84876   0.00000  Uiso   1.00
O1462  O     0.89441   0.79513   0.75000   0.00000  Uiso   1.00
O1463  O     0.79568   0.71471   0.90165   0.00000  Uiso   1.00
O1464  O     0.83816   0.95426   0.90192   0.00000  Uiso   1.00
O1465  O     0.78629   0.92980   0.85265   0.00000  Uiso   1.00
O1466  O     0.83711   0.73020   0.62406   0.00000  Uiso   1.00
O1467  O     0.77271   0.72636   0.58971   0.00000  Uiso   1.00
O1468  O     0.89441   0.87154   0.75000   0.00000  Uiso   1.00
O1469  O     0.77226   0.79513   0.74999   0.00000  Uiso   1.00
O1470  O     0.83333   0.87155   0.68453   0.00000  Uiso   1.00
O1471  O     0.83334   0.79511   0.81547   0.00000  Uiso   1.00
O1472  O     0.83334   0.87155   0.81547   0.00000  Uiso   1.00
O1473  O     0.83333   0.79511   0.68453   0.00000  Uiso   1.00
O1474  O     0.91736   0.73603   0.80572   0.00000  Uiso   1.00
Zn1475 Zn    0.83333   0.88437   0.75000   0.00000  Uiso   1.00
Zn1476 Zn    0.83333   0.78229   0.75000   0.00000  Uiso   1.00
loop_
_geom_bond_atom_site_label_1
_geom_bond_atom_site_label_2
_geom_bond_distance
_geom_bond_site_symmetry_2
_ccdc_geom_bond_type
C1     C19     1.454   .     S
C1     O75     1.301   .     A
C1     O57     1.296   .     A
C2     C18     1.406   .     A
C2     C30     1.452   .     S
C2     C86     1.382   .     S
C3     C18     1.406   .     A
C3     C31     1.454   .     S
C3     C120    1.382   .     S
C4     C19     1.415   .     A
C4     C32     1.453   .     S
C4     C166    1.382   1_455 S
C5     C16     1.398   .     A
C5     C9      1.392   .     A
C5     H39     1.084   .     S
C6     H43     1.081   .     S
C6     C17     1.399   .     A
C6     C10     1.382   .     A
C7     C11     1.392   .     A
C7     C17     1.394   .     A
C7     H44     1.084   .     S
C8     C13     1.381   .     A
C8     H45     1.082   .     S
C8     C16     1.394   .     A
C9     C25     1.479   .     S
C9     C14     1.418   .     A
C10    C15     1.415   .     A
C10    C26     1.485   .     S
C11    C15     1.427   .     A
C11    C27     1.482   .     S
C12    O74     1.298   .     A
C12    O68     1.298   .     A
C12    C18     1.450   .     S
C13    C28     1.479   .     S
C13    C14     1.417   .     A
C14    C23     1.470   .     S
C15    C33     1.475   .     S
C16    C755    1.463   1_554 S
C17    C754    1.463   .     S
C19    C38     1.410   .     A
C20    C34     1.478   .     S
C20    O80     1.219   .     D
C20    O58     1.395   .     S
C21    O59     1.220   .     D
C21    O60     1.397   .     S
C21    C35     1.478   .     S
C22    O62     1.400   .     S
C22    C36     1.493   .     S
C22    O61     1.212   .     D
C23    O76     1.307   .     A
C23    O79     1.297   .     A
C24    O64     1.399   .     S
C24    C37     1.491   .     S
C24    O63     1.214   .     D
C25    O65     1.221   .     D
C25    O66     1.399   .     S
C26    O67     1.221   .     D
C26    O69     1.398   .     S
C27    O70     1.223   .     D
C27    O71     1.398   .     S
C28    O72     1.223   .     D
C28    O73     1.400   .     S
C29    C38     1.449   .     S
C29    N53     1.156   .     T
C30    N54     1.157   .     T
C31    N55     1.157   .     T
C32    N56     1.156   .     T
C33    O78     1.297   .     A
C33    O77     1.309   .     A
C34    N52     1.369   .     A
C34    C529    1.428   1_545 S
C35    N51     1.365   .     A
C35    C282    1.425   .     S
C36    N52     1.389   .     A
C36    C527    1.425   1_545 S
C37    N51     1.385   .     A
C37    C280    1.428   .     S
C38    C167    1.382   1_455 S
H40    O69     1.012   .     S
H41    O71     1.013   .     S
H42    O73     1.013   .     S
H46    O58     1.014   .     S
H47    O60     1.014   .     S
H48    O62     1.014   .     S
H49    O64     1.014   .     S
H50    O66     1.014   .     S
N51    Zn81    2.030   .     S
N52    Zn82    2.030   .     S
O57    Zn81    2.009   .     S
O68    Zn82    2.009   .     S
O74    Zn81    2.016   .     S
O75    Zn82    2.016   .     S
O76    Zn81    1.998   .     S
O77    Zn82    1.998   .     S
O78    Zn81    2.028   .     S
O79    Zn82    2.028   .     S
C83    C101    1.454   .     S
C83    O157    1.301   .     A
C83    O139    1.296   .     A
C84    C100    1.406   .     A
C84    C112    1.452   .     S
C84    C168    1.382   .     S
C85    C100    1.406   .     A
C85    C113    1.454   .     S
C85    C202    1.382   .     S
C86    C101    1.415   .     A
C86    C114    1.453   .     S
C87    C98     1.398   .     A
C87    C91     1.392   .     A
C87    H121    1.084   .     S
C88    H125    1.081   .     S
C88    C99     1.399   .     A
C88    C92     1.382   .     A
C89    C93     1.392   .     A
C89    C99     1.394   .     A
C89    H126    1.084   .     S
C90    C95     1.381   .     A
C90    H127    1.082   .     S
C90    C98     1.394   .     A
C91    C107    1.479   .     S
C91    C96     1.418   .     A
C92    C97     1.415   .     A
C92    C108    1.485   .     S
C93    C97     1.427   .     A
C93    C109    1.482   .     S
C94    O156    1.298   .     A
C94    O150    1.298   .     A
C94    C100    1.450   .     S
C95    C110    1.479   .     S
C95    C96     1.417   .     A
C96    C105    1.470   .     S
C97    C115    1.475   .     S
C98    C837    1.463   1_554 S
C99    C836    1.463   .     S
C101   C120    1.410   .     A
C102   C116    1.478   .     S
C102   O162    1.219   .     D
C102   O140    1.395   .     S
C103   O141    1.220   .     D
C103   O142    1.397   .     S
C103   C117    1.478   .     S
C104   O144    1.400   .     S
C104   C118    1.493   .     S
C104   O143    1.212   .     D
C105   O158    1.307   .     A
C105   O161    1.297   .     A
C106   O146    1.399   .     S
C106   C119    1.491   .     S
C106   O145    1.214   .     D
C107   O147    1.221   .     D
C107   O148    1.399   .     S
C108   O149    1.221   .     D
C108   O151    1.398   .     S
C109   O152    1.223   .     D
C109   O153    1.398   .     S
C110   O154    1.223   .     D
C110   O155    1.400   .     S
C111   C120    1.449   .     S
C111   N135    1.156   .     T
C112   N136    1.157   .     T
C113   N137    1.157   .     T
C114   N138    1.156   .     T
C115   O160    1.297   .     A
C115   O159    1.309   .     A
C116   N134    1.369   .     A
C116   C611    1.428   1_545 S
C117   N133    1.365   .     A
C117   C364    1.425   .     S
C118   N134    1.389   .     A
C118   C609    1.425   1_545 S
C119   N133    1.385   .     A
C119   C362    1.428   .     S
H122   O151    1.012   .     S
H123   O153    1.013   .     S
H124   O155    1.013   .     S
H128   O140    1.014   .     S
H129   O142    1.014   .     S
H130   O144    1.014   .     S
H131   O146    1.014   .     S
H132   O148    1.014   .     S
N133   Zn163   2.030   .     S
N134   Zn164   2.030   .     S
O139   Zn163   2.009   .     S
O150   Zn164   2.009   .     S
O156   Zn163   2.016   .     S
O157   Zn164   2.016   .     S
O158   Zn163   1.998   .     S
O159   Zn164   1.998   .     S
O160   Zn163   2.028   .     S
O161   Zn164   2.028   .     S
C165   C183    1.454   .     S
C165   O239    1.301   .     A
C165   O221    1.296   .     A
C166   C182    1.406   .     A
C166   C194    1.452   .     S
C166   C4      1.382   1_655 S
C167   C182    1.406   .     A
C167   C195    1.454   .     S
C167   C38     1.382   1_655 S
C168   C183    1.415   .     A
C168   C196    1.453   .     S
C169   C180    1.398   .     A
C169   C173    1.392   .     A
C169   H203    1.084   .     S
C170   H207    1.081   .     S
C170   C181    1.399   .     A
C170   C174    1.382   .     A
C171   C175    1.392   .     A
C171   C181    1.394   .     A
C171   H208    1.084   .     S
C172   C177    1.381   .     A
C172   H209    1.082   .     S
C172   C180    1.394   .     A
C173   C189    1.479   .     S
C173   C178    1.418   .     A
C174   C179    1.415   .     A
C174   C190    1.485   .     S
C175   C179    1.427   .     A
C175   C191    1.482   .     S
C176   O238    1.298   .     A
C176   O232    1.298   .     A
C176   C182    1.450   .     S
C177   C192    1.479   .     S
C177   C178    1.417   .     A
C178   C187    1.470   .     S
C179   C197    1.475   .     S
C180   C919    1.463   1_554 S
C181   C918    1.463   .     S
C183   C202    1.410   .     A
C184   C198    1.478   .     S
C184   O244    1.219   .     D
C184   O222    1.395   .     S
C185   O223    1.220   .     D
C185   O224    1.397   .     S
C185   C199    1.478   .     S
C186   O226    1.400   .     S
C186   C200    1.493   .     S
C186   O225    1.212   .     D
C187   O240    1.307   .     A
C187   O243    1.297   .     A
C188   O228    1.399   .     S
C188   C201    1.491   .     S
C188   O227    1.214   .     D
C189   O229    1.221   .     D
C189   O230    1.399   .     S
C190   O231    1.221   .     D
C190   O233    1.398   .     S
C191   O234    1.223   .     D
C191   O235    1.398   .     S
C192   O236    1.223   .     D
C192   O237    1.400   .     S
C193   C202    1.449   .     S
C193   N217    1.156   .     T
C194   N218    1.157   .     T
C195   N219    1.157   .     T
C196   N220    1.156   .     T
C197   O242    1.297   .     A
C197   O241    1.309   .     A
C198   N216    1.369   .     A
C198   C693    1.428   1_545 S
C199   N215    1.365   .     A
C199   C446    1.425   .     S
C200   N216    1.389   .     A
C200   C691    1.425   1_545 S
C201   N215    1.385   .     A
C201   C444    1.428   .     S
H204   O233    1.012   .     S
H205   O235    1.013   .     S
H206   O237    1.013   .     S
H210   O222    1.014   .     S
H211   O224    1.014   .     S
H212   O226    1.014   .     S
H213   O228    1.014   .     S
H214   O230    1.014   .     S
N215   Zn245   2.030   .     S
N216   Zn246   2.030   .     S
O221   Zn245   2.009   .     S
O232   Zn246   2.009   .     S
O238   Zn245   2.016   .     S
O239   Zn246   2.016   .     S
O240   Zn245   1.998   .     S
O241   Zn246   1.998   .     S
O242   Zn245   2.028   .     S
O243   Zn246   2.028   .     S
C247   C265    1.454   .     S
C247   O321    1.301   .     A
C247   O303    1.296   .     A
C248   C264    1.406   .     A
C248   C276    1.452   .     S
C248   C332    1.382   .     S
C249   C264    1.406   .     A
C249   C277    1.454   .     S
C249   C366    1.382   .     S
C250   C265    1.415   .     A
C250   C278    1.453   .     S
C250   C412    1.382   1_455 S
C251   C262    1.398   .     A
C251   C255    1.392   .     A
C251   H285    1.084   .     S
C252   H289    1.081   .     S
C252   C263    1.399   .     A
C252   C256    1.382   .     A
C253   C257    1.392   .     A
C253   C263    1.394   .     A
C253   H290    1.084   .     S
C254   C259    1.381   .     A
C254   H291    1.082   .     S
C254   C262    1.394   .     A
C255   C271    1.479   .     S
C255   C260    1.418   .     A
C256   C261    1.415   .     A
C256   C272    1.485   .     S
C257   C261    1.427   .     A
C257   C273    1.482   .     S
C258   O320    1.298   .     A
C258   O314    1.298   .     A
C258   C264    1.450   .     S
C259   C274    1.479   .     S
C259   C260    1.417   .     A
C260   C269    1.470   .     S
C261   C279    1.475   .     S
C262   C1001   1.463   1_554 S
C263   C1000   1.463   .     S
C265   C284    1.410   .     A
C266   C280    1.478   .     S
C266   O326    1.219   .     D
C266   O304    1.395   .     S
C267   O305    1.220   .     D
C267   O306    1.397   .     S
C267   C281    1.478   .     S
C268   O308    1.400   .     S
C268   C282    1.493   .     S
C268   O307    1.212   .     D
C269   O322    1.307   .     A
C269   O325    1.297   .     A
C270   O310    1.399   .     S
C270   C283    1.491   .     S
C270   O309    1.214   .     D
C271   O311    1.221   .     D
C271   O312    1.399   .     S
C272   O313    1.221   .     D
C272   O315    1.398   .     S
C273   O316    1.223   .     D
C273   O317    1.398   .     S
C274   O318    1.223   .     D
C274   O319    1.400   .     S
C275   C284    1.449   .     S
C275   N299    1.156   .     T
C276   N300    1.157   .     T
C277   N301    1.157   .     T
C278   N302    1.156   .     T
C279   O324    1.297   .     A
C279   O323    1.309   .     A
C280   N298    1.369   .     A
C281   N297    1.365   .     A
C281   C528    1.425   .     S
C282   N298    1.389   .     A
C283   N297    1.385   .     A
C283   C526    1.428   .     S
C284   C413    1.382   1_455 S
H286   O315    1.012   .     S
H287   O317    1.013   .     S
H288   O319    1.013   .     S
H292   O304    1.014   .     S
H293   O306    1.014   .     S
H294   O308    1.014   .     S
H295   O310    1.014   .     S
H296   O312    1.014   .     S
N297   Zn327   2.030   .     S
N298   Zn328   2.030   .     S
O303   Zn327   2.009   .     S
O314   Zn328   2.009   .     S
O320   Zn327   2.016   .     S
O321   Zn328   2.016   .     S
O322   Zn327   1.998   .     S
O323   Zn328   1.998   .     S
O324   Zn327   2.028   .     S
O325   Zn328   2.028   .     S
C329   C347    1.454   .     S
C329   O403    1.301   .     A
C329   O385    1.296   .     A
C330   C346    1.406   .     A
C330   C358    1.452   .     S
C330   C414    1.382   .     S
C331   C346    1.406   .     A
C331   C359    1.454   .     S
C331   C448    1.382   .     S
C332   C347    1.415   .     A
C332   C360    1.453   .     S
C333   C344    1.398   .     A
C333   C337    1.392   .     A
C333   H367    1.084   .     S
C334   H371    1.081   .     S
C334   C345    1.399   .     A
C334   C338    1.382   .     A
C335   C339    1.392   .     A
C335   C345    1.394   .     A
C335   H372    1.084   .     S
C336   C341    1.381   .     A
C336   H373    1.082   .     S
C336   C344    1.394   .     A
C337   C353    1.479   .     S
C337   C342    1.418   .     A
C338   C343    1.415   .     A
C338   C354    1.485   .     S
C339   C343    1.427   .     A
C339   C355    1.482   .     S
C340   O402    1.298   .     A
C340   O396    1.298   .     A
C340   C346    1.450   .     S
C341   C356    1.479   .     S
C341   C342    1.417   .     A
C342   C351    1.470   .     S
C343   C361    1.475   .     S
C344   C1083   1.463   1_554 S
C345   C1082   1.463   .     S
C347   C366    1.410   .     A
C348   C362    1.478   .     S
C348   O408    1.219   .     D
C348   O386    1.395   .     S
C349   O387    1.220   .     D
C349   O388    1.397   .     S
C349   C363    1.478   .     S
C350   O390    1.400   .     S
C350   C364    1.493   .     S
C350   O389    1.212   .     D
C351   O404    1.307   .     A
C351   O407    1.297   .     A
C352   O392    1.399   .     S
C352   C365    1.491   .     S
C352   O391    1.214   .     D
C353   O393    1.221   .     D
C353   O394    1.399   .     S
C354   O395    1.221   .     D
C354   O397    1.398   .     S
C355   O398    1.223   .     D
C355   O399    1.398   .     S
C356   O400    1.223   .     D
C356   O401    1.400   .     S
C357   C366    1.449   .     S
C357   N381    1.156   .     T
C358   N382    1.157   .     T
C359   N383    1.157   .     T
C360   N384    1.156   .     T
C361   O406    1.297   .     A
C361   O405    1.309   .     A
C362   N380    1.369   .     A
C363   N379    1.365   .     A
C363   C610    1.425   .     S
C364   N380    1.389   .     A
C365   N379    1.385   .     A
C365   C608    1.428   .     S
H368   O397    1.012   .     S
H369   O399    1.013   .     S
H370   O401    1.013   .     S
H374   O386    1.014   .     S
H375   O388    1.014   .     S
H376   O390    1.014   .     S
H377   O392    1.014   .     S
H378   O394    1.014   .     S
N379   Zn409   2.030   .     S
N380   Zn410   2.030   .     S
O385   Zn409   2.009   .     S
O396   Zn410   2.009   .     S
O402   Zn409   2.016   .     S
O403   Zn410   2.016   .     S
O404   Zn409   1.998   .     S
O405   Zn410   1.998   .     S
O406   Zn409   2.028   .     S
O407   Zn410   2.028   .     S
C411   C429    1.454   .     S
C411   O485    1.301   .     A
C411   O467    1.296   .     A
C412   C428    1.406   .     A
C412   C440    1.452   .     S
C412   C250    1.382   1_655 S
C413   C428    1.406   .     A
C413   C441    1.454   .     S
C413   C284    1.382   1_655 S
C414   C429    1.415   .     A
C414   C442    1.453   .     S
C415   C426    1.398   .     A
C415   C419    1.392   .     A
C415   H449    1.084   .     S
C416   H453    1.081   .     S
C416   C427    1.399   .     A
C416   C420    1.382   .     A
C417   C421    1.392   .     A
C417   C427    1.394   .     A
C417   H454    1.084   .     S
C418   C423    1.381   .     A
C418   H455    1.082   .     S
C418   C426    1.394   .     A
C419   C435    1.479   .     S
C419   C424    1.418   .     A
C420   C425    1.415   .     A
C420   C436    1.485   .     S
C421   C425    1.427   .     A
C421   C437    1.482   .     S
C422   O484    1.298   .     A
C422   O478    1.298   .     A
C422   C428    1.450   .     S
C423   C438    1.479   .     S
C423   C424    1.417   .     A
C424   C433    1.470   .     S
C425   C443    1.475   .     S
C426   C1165   1.463   1_554 S
C427   C1164   1.463   .     S
C429   C448    1.410   .     A
C430   C444    1.478   .     S
C430   O490    1.219   .     D
C430   O468    1.395   .     S
C431   O469    1.220   .     D
C431   O470    1.397   .     S
C431   C445    1.478   .     S
C432   O472    1.400   .     S
C432   C446    1.493   .     S
C432   O471    1.212   .     D
C433   O486    1.307   .     A
C433   O489    1.297   .     A
C434   O474    1.399   .     S
C434   C447    1.491   .     S
C434   O473    1.214   .     D
C435   O475    1.221   .     D
C435   O476    1.399   .     S
C436   O477    1.221   .     D
C436   O479    1.398   .     S
C437   O480    1.223   .     D
C437   O481    1.398   .     S
C438   O482    1.223   .     D
C438   O483    1.400   .     S
C439   C448    1.449   .     S
C439   N463    1.156   .     T
C440   N464    1.157   .     T
C441   N465    1.157   .     T
C442   N466    1.156   .     T
C443   O488    1.297   .     A
C443   O487    1.309   .     A
C444   N462    1.369   .     A
C445   N461    1.365   .     A
C445   C692    1.425   .     S
C446   N462    1.389   .     A
C447   N461    1.385   .     A
C447   C690    1.428   .     S
H450   O479    1.012   .     S
H451   O481    1.013   .     S
H452   O483    1.013   .     S
H456   O468    1.014   .     S
H457   O470    1.014   .     S
H458   O472    1.014   .     S
H459   O474    1.014   .     S
H460   O476    1.014   .     S
N461   Zn491   2.030   .     S
N462   Zn492   2.030   .     S
O467   Zn491   2.009   .     S
O478   Zn492   2.009   .     S
O484   Zn491   2.016   .     S
O485   Zn492   2.016   .     S
O486   Zn491   1.998   .     S
O487   Zn492   1.998   .     S
O488   Zn491   2.028   .     S
O489   Zn492   2.028   .     S
C493   C511    1.454   .     S
C493   O567    1.301   .     A
C493   O549    1.296   .     A
C494   C510    1.406   .     A
C494   C522    1.452   .     S
C494   C578    1.382   .     S
C495   C510    1.406   .     A
C495   C523    1.454   .     S
C495   C612    1.382   .     S
C496   C511    1.415   .     A
C496   C524    1.453   .     S
C496   C658    1.382   1_455 S
C497   C508    1.398   .     A
C497   C501    1.392   .     A
C497   H531    1.084   .     S
C498   H535    1.081   .     S
C498   C509    1.399   .     A
C498   C502    1.382   .     A
C499   C503    1.392   .     A
C499   C509    1.394   .     A
C499   H536    1.084   .     S
C500   C505    1.381   .     A
C500   H537    1.082   .     S
C500   C508    1.394   .     A
C501   C517    1.479   .     S
C501   C506    1.418   .     A
C502   C507    1.415   .     A
C502   C518    1.485   .     S
C503   C507    1.427   .     A
C503   C519    1.482   .     S
C504   O566    1.298   .     A
C504   O560    1.298   .     A
C504   C510    1.450   .     S
C505   C520    1.479   .     S
C505   C506    1.417   .     A
C506   C515    1.470   .     S
C507   C525    1.475   .     S
C508   C1247   1.463   1_554 S
C509   C1246   1.463   .     S
C511   C530    1.410   .     A
C512   C526    1.478   .     S
C512   O572    1.219   .     D
C512   O550    1.395   .     S
C513   O551    1.220   .     D
C513   O552    1.397   .     S
C513   C527    1.478   .     S
C514   O554    1.400   .     S
C514   C528    1.493   .     S
C514   O553    1.212   .     D
C515   O568    1.307   .     A
C515   O571    1.297   .     A
C516   O556    1.399   .     S
C516   C529    1.491   .     S
C516   O555    1.214   .     D
C517   O557    1.221   .     D
C517   O558    1.399   .     S
C518   O559    1.221   .     D
C518   O561    1.398   .     S
C519   O562    1.223   .     D
C519   O563    1.398   .     S
C520   O564    1.223   .     D
C520   O565    1.400   .     S
C521   C530    1.449   .     S
C521   N545    1.156   .     T
C522   N546    1.157   .     T
C523   N547    1.157   .     T
C524   N548    1.156   .     T
C525   O570    1.297   .     A
C525   O569    1.309   .     A
C526   N544    1.369   .     A
C527   N543    1.365   .     A
C527   C36     1.425   1_565 S
C528   N544    1.389   .     A
C529   N543    1.385   .     A
C529   C34     1.428   1_565 S
C530   C659    1.382   1_455 S
H532   O561    1.012   .     S
H533   O563    1.013   .     S
H534   O565    1.013   .     S
H538   O550    1.014   .     S
H539   O552    1.014   .     S
H540   O554    1.014   .     S
H541   O556    1.014   .     S
H542   O558    1.014   .     S
N543   Zn573   2.030   .     S
N544   Zn574   2.030   .     S
O549   Zn573   2.009   .     S
O560   Zn574   2.009   .     S
O566   Zn573   2.016   .     S
O567   Zn574   2.016   .     S
O568   Zn573   1.998   .     S
O569   Zn574   1.998   .     S
O570   Zn573   2.028   .     S
O571   Zn574   2.028   .     S
C575   C593    1.454   .     S
C575   O649    1.301   .     A
C575   O631    1.296   .     A
C576   C592    1.406   .     A
C576   C604    1.452   .     S
C576   C660    1.382   .     S
C577   C592    1.406   .     A
C577   C605    1.454   .     S
C577   C694    1.382   .     S
C578   C593    1.415   .     A
C578   C606    1.453   .     S
C579   C590    1.398   .     A
C579   C583    1.392   .     A
C579   H613    1.084   .     S
C580   H617    1.081   .     S
C580   C591    1.399   .     A
C580   C584    1.382   .     A
C581   C585    1.392   .     A
C581   C591    1.394   .     A
C581   H618    1.084   .     S
C582   C587    1.381   .     A
C582   H619    1.082   .     S
C582   C590    1.394   .     A
C583   C599    1.479   .     S
C583   C588    1.418   .     A
C584   C589    1.415   .     A
C584   C600    1.485   .     S
C585   C589    1.427   .     A
C585   C601    1.482   .     S
C586   O648    1.298   .     A
C586   O642    1.298   .     A
C586   C592    1.450   .     S
C587   C602    1.479   .     S
C587   C588    1.417   .     A
C588   C597    1.470   .     S
C589   C607    1.475   .     S
C590   C1329   1.463   1_554 S
C591   C1328   1.463   .     S
C593   C612    1.410   .     A
C594   C608    1.478   .     S
C594   O654    1.219   .     D
C594   O632    1.395   .     S
C595   O633    1.220   .     D
C595   O634    1.397   .     S
C595   C609    1.478   .     S
C596   O636    1.400   .     S
C596   C610    1.493   .     S
C596   O635    1.212   .     D
C597   O650    1.307   .     A
C597   O653    1.297   .     A
C598   O638    1.399   .     S
C598   C611    1.491   .     S
C598   O637    1.214   .     D
C599   O639    1.221   .     D
C599   O640    1.399   .     S
C600   O641    1.221   .     D
C600   O643    1.398   .     S
C601   O644    1.223   .     D
C601   O645    1.398   .     S
C602   O646    1.223   .     D
C602   O647    1.400   .     S
C603   C612    1.449   .     S
C603   N627    1.156   .     T
C604   N628    1.157   .     T
C605   N629    1.157   .     T
C606   N630    1.156   .     T
C607   O652    1.297   .     A
C607   O651    1.309   .     A
C608   N626    1.369   .     A
C609   N625    1.365   .     A
C609   C118    1.425   1_565 S
C610   N626    1.389   .     A
C611   N625    1.385   .     A
C611   C116    1.428   1_565 S
H614   O643    1.012   .     S
H615   O645    1.013   .     S
H616   O647    1.013   .     S
H620   O632    1.014   .     S
H621   O634    1.014   .     S
H622   O636    1.014   .     S
H623   O638    1.014   .     S
H624   O640    1.014   .     S
N625   Zn655   2.030   .     S
N626   Zn656   2.030   .     S
O631   Zn655   2.009   .     S
O642   Zn656   2.009   .     S
O648   Zn655   2.016   .     S
O649   Zn656   2.016   .     S
O650   Zn655   1.998   .     S
O651   Zn656   1.998   .     S
O652   Zn655   2.028   .     S
O653   Zn656   2.028   .     S
C657   C675    1.454   .     S
C657   O731    1.301   .     A
C657   O713    1.296   .     A
C658   C674    1.406   .     A
C658   C686    1.452   .     S
C658   C496    1.382   1_655 S
C659   C674    1.406   .     A
C659   C687    1.454   .     S
C659   C530    1.382   1_655 S
C660   C675    1.415   .     A
C660   C688    1.453   .     S
C661   C672    1.398   .     A
C661   C665    1.392   .     A
C661   H695    1.084   .     S
C662   H699    1.081   .     S
C662   C673    1.399   .     A
C662   C666    1.382   .     A
C663   C667    1.392   .     A
C663   C673    1.394   .     A
C663   H700    1.084   .     S
C664   C669    1.381   .     A
C664   H701    1.082   .     S
C664   C672    1.394   .     A
C665   C681    1.479   .     S
C665   C670    1.418   .     A
C666   C671    1.415   .     A
C666   C682    1.485   .     S
C667   C671    1.427   .     A
C667   C683    1.482   .     S
C668   O730    1.298   .     A
C668   O724    1.298   .     A
C668   C674    1.450   .     S
C669   C684    1.479   .     S
C669   C670    1.417   .     A
C670   C679    1.470   .     S
C671   C689    1.475   .     S
C672   C1411   1.463   1_554 S
C673   C1410   1.463   .     S
C675   C694    1.410   .     A
C676   C690    1.478   .     S
C676   O736    1.219   .     D
C676   O714    1.395   .     S
C677   O715    1.220   .     D
C677   O716    1.397   .     S
C677   C691    1.478   .     S
C678   O718    1.400   .     S
C678   C692    1.493   .     S
C678   O717    1.212   .     D
C679   O732    1.307   .     A
C679   O735    1.297   .     A
C680   O720    1.399   .     S
C680   C693    1.491   .     S
C680   O719    1.214   .     D
C681   O721    1.221   .     D
C681   O722    1.399   .     S
C682   O723    1.221   .     D
C682   O725    1.398   .     S
C683   O726    1.223   .     D
C683   O727    1.398   .     S
C684   O728    1.223   .     D
C684   O729    1.400   .     S
C685   C694    1.449   .     S
C685   N709    1.156   .     T
C686   N710    1.157   .     T
C687   N711    1.157   .     T
C688   N712    1.156   .     T
C689   O734    1.297   .     A
C689   O733    1.309   .     A
C690   N708    1.369   .     A
C691   N707    1.365   .     A
C691   C200    1.425   1_565 S
C692   N708    1.389   .     A
C693   N707    1.385   .     A
C693   C198    1.428   1_565 S
H696   O725    1.012   .     S
H697   O727    1.013   .     S
H698   O729    1.013   .     S
H702   O714    1.014   .     S
H703   O716    1.014   .     S
H704   O718    1.014   .     S
H705   O720    1.014   .     S
H706   O722    1.014   .     S
N707   Zn737   2.030   .     S
N708   Zn738   2.030   .     S
O713   Zn737   2.009   .     S
O724   Zn738   2.009   .     S
O730   Zn737   2.016   .     S
O731   Zn738   2.016   .     S
O732   Zn737   1.998   .     S
O733   Zn738   1.998   .     S
O734   Zn737   2.028   .     S
O735   Zn738   2.028   .     S
C739   C757    1.454   .     S
C739   O813    1.301   .     A
C739   O795    1.296   .     A
C740   C756    1.406   .     A
C740   C768    1.452   .     S
C740   C824    1.382   .     S
C741   C756    1.406   .     A
C741   C769    1.454   .     S
C741   C858    1.382   .     S
C742   C757    1.415   .     A
C742   C770    1.453   .     S
C742   C904    1.382   1_455 S
C743   C754    1.398   .     A
C743   C747    1.392   .     A
C743   H777    1.084   .     S
C744   H781    1.081   .     S
C744   C755    1.399   .     A
C744   C748    1.382   .     A
C745   C749    1.392   .     A
C745   C755    1.394   .     A
C745   H782    1.084   .     S
C746   C751    1.381   .     A
C746   H783    1.082   .     S
C746   C754    1.394   .     A
C747   C763    1.479   .     S
C747   C752    1.418   .     A
C748   C753    1.415   .     A
C748   C764    1.485   .     S
C749   C753    1.427   .     A
C749   C765    1.482   .     S
C750   O812    1.298   .     A
C750   O806    1.298   .     A
C750   C756    1.450   .     S
C751   C766    1.479   .     S
C751   C752    1.417   .     A
C752   C761    1.470   .     S
C753   C771    1.475   .     S
C755   C16     1.463   1_556 S
C757   C776    1.410   .     A
C758   C772    1.478   .     S
C758   O818    1.219   .     D
C758   O796    1.395   .     S
C759   O797    1.220   .     D
C759   O798    1.397   .     S
C759   C773    1.478   .     S
C760   O800    1.400   .     S
C760   C774    1.493   .     S
C760   O799    1.212   .     D
C761   O814    1.307   .     A
C761   O817    1.297   .     A
C762   O802    1.399   .     S
C762   C775    1.491   .     S
C762   O801    1.214   .     D
C763   O803    1.221   .     D
C763   O804    1.399   .     S
C764   O805    1.221   .     D
C764   O807    1.398   .     S
C765   O808    1.223   .     D
C765   O809    1.398   .     S
C766   O810    1.223   .     D
C766   O811    1.400   .     S
C767   C776    1.449   .     S
C767   N791    1.156   .     T
C768   N792    1.157   .     T
C769   N793    1.157   .     T
C770   N794    1.156   .     T
C771   O816    1.297   .     A
C771   O815    1.309   .     A
C772   N790    1.369   .     A
C772   C1267   1.428   1_545 S
C773   N789    1.365   .     A
C773   C1020   1.425   .     S
C774   N790    1.389   .     A
C774   C1265   1.425   1_545 S
C775   N789    1.385   .     A
C775   C1018   1.428   .     S
C776   C905    1.382   1_455 S
H778   O807    1.012   .     S
H779   O809    1.013   .     S
H780   O811    1.013   .     S
H784   O796    1.014   .     S
H785   O798    1.014   .     S
H786   O800    1.014   .     S
H787   O802    1.014   .     S
H788   O804    1.014   .     S
N789   Zn819   2.030   .     S
N790   Zn820   2.030   .     S
O795   Zn819   2.009   .     S
O806   Zn820   2.009   .     S
O812   Zn819   2.016   .     S
O813   Zn820   2.016   .     S
O814   Zn819   1.998   .     S
O815   Zn820   1.998   .     S
O816   Zn819   2.028   .     S
O817   Zn820   2.028   .     S
C821   C839    1.454   .     S
C821   O895    1.301   .     A
C821   O877    1.296   .     A
C822   C838    1.406   .     A
C822   C850    1.452   .     S
C822   C906    1.382   .     S
C823   C838    1.406   .     A
C823   C851    1.454   .     S
C823   C940    1.382   .     S
C824   C839    1.415   .     A
C824   C852    1.453   .     S
C825   C836    1.398   .     A
C825   C829    1.392   .     A
C825   H859    1.084   .     S
C826   H863    1.081   .     S
C826   C837    1.399   .     A
C826   C830    1.382   .     A
C827   C831    1.392   .     A
C827   C837    1.394   .     A
C827   H864    1.084   .     S
C828   C833    1.381   .     A
C828   H865    1.082   .     S
C828   C836    1.394   .     A
C829   C845    1.479   .     S
C829   C834    1.418   .     A
C830   C835    1.415   .     A
C830   C846    1.485   .     S
C831   C835    1.427   .     A
C831   C847    1.482   .     S
C832   O894    1.298   .     A
C832   O888    1.298   .     A
C832   C838    1.450   .     S
C833   C848    1.479   .     S
C833   C834    1.417   .     A
C834   C843    1.470   .     S
C835   C853    1.475   .     S
C837   C98     1.463   1_556 S
C839   C858    1.410   .     A
C840   C854    1.478   .     S
C840   O900    1.219   .     D
C840   O878    1.395   .     S
C841   O879    1.220   .     D
C841   O880    1.397   .     S
C841   C855    1.478   .     S
C842   O882    1.400   .     S
C842   C856    1.493   .     S
C842   O881    1.212   .     D
C843   O896    1.307   .     A
C843   O899    1.297   .     A
C844   O884    1.399   .     S
C844   C857    1.491   .     S
C844   O883    1.214   .     D
C845   O885    1.221   .     D
C845   O886    1.399   .     S
C846   O887    1.221   .     D
C846   O889    1.398   .     S
C847   O890    1.223   .     D
C847   O891    1.398   .     S
C848   O892    1.223   .     D
C848   O893    1.400   .     S
C849   C858    1.449   .     S
C849   N873    1.156   .     T
C850   N874    1.157   .     T
C851   N875    1.157   .     T
C852   N876    1.156   .     T
C853   O898    1.297   .     A
C853   O897    1.309   .     A
C854   N872    1.369   .     A
C854   C1349   1.428   1_545 S
C855   N871    1.365   .     A
C855   C1102   1.425   .     S
C856   N872    1.389   .     A
C856   C1347   1.425   1_545 S
C857   N871    1.385   .     A
C857   C1100   1.428   .     S
H860   O889    1.012   .     S
H861   O891    1.013   .     S
H862   O893    1.013   .     S
H866   O878    1.014   .     S
H867   O880    1.014   .     S
H868   O882    1.014   .     S
H869   O884    1.014   .     S
H870   O886    1.014   .     S
N871   Zn901   2.030   .     S
N872   Zn902   2.030   .     S
O877   Zn901   2.009   .     S
O888   Zn902   2.009   .     S
O894   Zn901   2.016   .     S
O895   Zn902   2.016   .     S
O896   Zn901   1.998   .     S
O897   Zn902   1.998   .     S
O898   Zn901   2.028   .     S
O899   Zn902   2.028   .     S
C903   C921    1.454   .     S
C903   O977    1.301   .     A
C903   O959    1.296   .     A
C904   C920    1.406   .     A
C904   C932    1.452   .     S
C904   C742    1.382   1_655 S
C905   C920    1.406   .     A
C905   C933    1.454   .     S
C905   C776    1.382   1_655 S
C906   C921    1.415   .     A
C906   C934    1.453   .     S
C907   C918    1.398   .     A
C907   C911    1.392   .     A
C907   H941    1.084   .     S
C908   H945    1.081   .     S
C908   C919    1.399   .     A
C908   C912    1.382   .     A
C909   C913    1.392   .     A
C909   C919    1.394   .     A
C909   H946    1.084   .     S
C910   C915    1.381   .     A
C910   H947    1.082   .     S
C910   C918    1.394   .     A
C911   C927    1.479   .     S
C911   C916    1.418   .     A
C912   C917    1.415   .     A
C912   C928    1.485   .     S
C913   C917    1.427   .     A
C913   C929    1.482   .     S
C914   O976    1.298   .     A
C914   O970    1.298   .     A
C914   C920    1.450   .     S
C915   C930    1.479   .     S
C915   C916    1.417   .     A
C916   C925    1.470   .     S
C917   C935    1.475   .     S
C919   C180    1.463   1_556 S
C921   C940    1.410   .     A
C922   C936    1.478   .     S
C922   O982    1.219   .     D
C922   O960    1.395   .     S
C923   O961    1.220   .     D
C923   O962    1.397   .     S
C923   C937    1.478   .     S
C924   O964    1.400   .     S
C924   C938    1.493   .     S
C924   O963    1.212   .     D
C925   O978    1.307   .     A
C925   O981    1.297   .     A
C926   O966    1.399   .     S
C926   C939    1.491   .     S
C926   O965    1.214   .     D
C927   O967    1.221   .     D
C927   O968    1.399   .     S
C928   O969    1.221   .     D
C928   O971    1.398   .     S
C929   O972    1.223   .     D
C929   O973    1.398   .     S
C930   O974    1.223   .     D
C930   O975    1.400   .     S
C931   C940    1.449   .     S
C931   N955    1.156   .     T
C932   N956    1.157   .     T
C933   N957    1.157   .     T
C934   N958    1.156   .     T
C935   O980    1.297   .     A
C935   O979    1.309   .     A
C936   N954    1.369   .     A
C936   C1431   1.428   1_545 S
C937   N953    1.365   .     A
C937   C1184   1.425   .     S
C938   N954    1.389   .     A
C938   C1429   1.425   1_545 S
C939   N953    1.385   .     A
C939   C1182   1.428   .     S
H942   O971    1.012   .     S
H943   O973    1.013   .     S
H944   O975    1.013   .     S
H948   O960    1.014   .     S
H949   O962    1.014   .     S
H950   O964    1.014   .     S
H951   O966    1.014   .     S
H952   O968    1.014   .     S
N953   Zn983   2.030   .     S
N954   Zn984   2.030   .     S
O959   Zn983   2.009   .     S
O970   Zn984   2.009   .     S
O976   Zn983   2.016   .     S
O977   Zn984   2.016   .     S
O978   Zn983   1.998   .     S
O979   Zn984   1.998   .     S
O980   Zn983   2.028   .     S
O981   Zn984   2.028   .     S
C985   C1003   1.454   .     S
C985   O1059   1.301   .     A
C985   O1041   1.296   .     A
C986   C1002   1.406   .     A
C986   C1014   1.452   .     S
C986   C1070   1.382   .     S
C987   C1002   1.406   .     A
C987   C1015   1.454   .     S
C987   C1104   1.382   .     S
C988   C1003   1.415   .     A
C988   C1016   1.453   .     S
C988   C1150   1.382   1_455 S
C989   C1000   1.398   .     A
C989   C993    1.392   .     A
C989   H1023   1.084   .     S
C990   H1027   1.081   .     S
C990   C1001   1.399   .     A
C990   C994    1.382   .     A
C991   C995    1.392   .     A
C991   C1001   1.394   .     A
C991   H1028   1.084   .     S
C992   C997    1.381   .     A
C992   H1029   1.082   .     S
C992   C1000   1.394   .     A
C993   C1009   1.479   .     S
C993   C998    1.418   .     A
C994   C999    1.415   .     A
C994   C1010   1.485   .     S
C995   C999    1.427   .     A
C995   C1011   1.482   .     S
C996   O1058   1.298   .     A
C996   O1052   1.298   .     A
C996   C1002   1.450   .     S
C997   C1012   1.479   .     S
C997   C998    1.417   .     A
C998   C1007   1.470   .     S
C999   C1017   1.475   .     S
C1001  C262    1.463   1_556 S
C1003  C1022   1.410   .     A
C1004  C1018   1.478   .     S
C1004  O1064   1.219   .     D
C1004  O1042   1.395   .     S
C1005  O1043   1.220   .     D
C1005  O1044   1.397   .     S
C1005  C1019   1.478   .     S
C1006  O1046   1.400   .     S
C1006  C1020   1.493   .     S
C1006  O1045   1.212   .     D
C1007  O1060   1.307   .     A
C1007  O1063   1.297   .     A
C1008  O1048   1.399   .     S
C1008  C1021   1.491   .     S
C1008  O1047   1.214   .     D
C1009  O1049   1.221   .     D
C1009  O1050   1.399   .     S
C1010  O1051   1.221   .     D
C1010  O1053   1.398   .     S
C1011  O1054   1.223   .     D
C1011  O1055   1.398   .     S
C1012  O1056   1.223   .     D
C1012  O1057   1.400   .     S
C1013  C1022   1.449   .     S
C1013  N1037   1.156   .     T
C1014  N1038   1.157   .     T
C1015  N1039   1.157   .     T
C1016  N1040   1.156   .     T
C1017  O1062   1.297   .     A
C1017  O1061   1.309   .     A
C1018  N1036   1.369   .     A
C1019  N1035   1.365   .     A
C1019  C1266   1.425   .     S
C1020  N1036   1.389   .     A
C1021  N1035   1.385   .     A
C1021  C1264   1.428   .     S
C1022  C1151   1.382   1_455 S
H1024  O1053   1.012   .     S
H1025  O1055   1.013   .     S
H1026  O1057   1.013   .     S
H1030  O1042   1.014   .     S
H1031  O1044   1.014   .     S
H1032  O1046   1.014   .     S
H1033  O1048   1.014   .     S
H1034  O1050   1.014   .     S
N1035  Zn1065  2.030   .     S
N1036  Zn1066  2.030   .     S
O1041  Zn1065  2.009   .     S
O1052  Zn1066  2.009   .     S
O1058  Zn1065  2.016   .     S
O1059  Zn1066  2.016   .     S
O1060  Zn1065  1.998   .     S
O1061  Zn1066  1.998   .     S
O1062  Zn1065  2.028   .     S
O1063  Zn1066  2.028   .     S
C1067  C1085   1.454   .     S
C1067  O1141   1.301   .     A
C1067  O1123   1.296   .     A
C1068  C1084   1.406   .     A
C1068  C1096   1.452   .     S
C1068  C1152   1.382   .     S
C1069  C1084   1.406   .     A
C1069  C1097   1.454   .     S
C1069  C1186   1.382   .     S
C1070  C1085   1.415   .     A
C1070  C1098   1.453   .     S
C1071  C1082   1.398   .     A
C1071  C1075   1.392   .     A
C1071  H1105   1.084   .     S
C1072  H1109   1.081   .     S
C1072  C1083   1.399   .     A
C1072  C1076   1.382   .     A
C1073  C1077   1.392   .     A
C1073  C1083   1.394   .     A
C1073  H1110   1.084   .     S
C1074  C1079   1.381   .     A
C1074  H1111   1.082   .     S
C1074  C1082   1.394   .     A
C1075  C1091   1.479   .     S
C1075  C1080   1.418   .     A
C1076  C1081   1.415   .     A
C1076  C1092   1.485   .     S
C1077  C1081   1.427   .     A
C1077  C1093   1.482   .     S
C1078  O1140   1.298   .     A
C1078  O1134   1.298   .     A
C1078  C1084   1.450   .     S
C1079  C1094   1.479   .     S
C1079  C1080   1.417   .     A
C1080  C1089   1.470   .     S
C1081  C1099   1.475   .     S
C1083  C344    1.463   1_556 S
C1085  C1104   1.410   .     A
C1086  C1100   1.478   .     S
C1086  O1146   1.219   .     D
C1086  O1124   1.395   .     S
C1087  O1125   1.220   .     D
C1087  O1126   1.397   .     S
C1087  C1101   1.478   .     S
C1088  O1128   1.400   .     S
C1088  C1102   1.493   .     S
C1088  O1127   1.212   .     D
C1089  O1142   1.307   .     A
C1089  O1145   1.297   .     A
C1090  O1130   1.399   .     S
C1090  C1103   1.491   .     S
C1090  O1129   1.214   .     D
C1091  O1131   1.221   .     D
C1091  O1132   1.399   .     S
C1092  O1133   1.221   .     D
C1092  O1135   1.398   .     S
C1093  O1136   1.223   .     D
C1093  O1137   1.398   .     S
C1094  O1138   1.223   .     D
C1094  O1139   1.400   .     S
C1095  C1104   1.449   .     S
C1095  N1119   1.156   .     T
C1096  N1120   1.157   .     T
C1097  N1121   1.157   .     T
C1098  N1122   1.156   .     T
C1099  O1144   1.297   .     A
C1099  O1143   1.309   .     A
C1100  N1118   1.369   .     A
C1101  N1117   1.365   .     A
C1101  C1348   1.425   .     S
C1102  N1118   1.389   .     A
C1103  N1117   1.385   .     A
C1103  C1346   1.428   .     S
H1106  O1135   1.012   .     S
H1107  O1137   1.013   .     S
H1108  O1139   1.013   .     S
H1112  O1124   1.014   .     S
H1113  O1126   1.014   .     S
H1114  O1128   1.014   .     S
H1115  O1130   1.014   .     S
H1116  O1132   1.014   .     S
N1117  Zn1147  2.030   .     S
N1118  Zn1148  2.030   .     S
O1123  Zn1147  2.009   .     S
O1134  Zn1148  2.009   .     S
O1140  Zn1147  2.016   .     S
O1141  Zn1148  2.016   .     S
O1142  Zn1147  1.998   .     S
O1143  Zn1148  1.998   .     S
O1144  Zn1147  2.028   .     S
O1145  Zn1148  2.028   .     S
C1149  C1167   1.454   .     S
C1149  O1223   1.301   .     A
C1149  O1205   1.296   .     A
C1150  C1166   1.406   .     A
C1150  C1178   1.452   .     S
C1150  C988    1.382   1_655 S
C1151  C1166   1.406   .     A
C1151  C1179   1.454   .     S
C1151  C1022   1.382   1_655 S
C1152  C1167   1.415   .     A
C1152  C1180   1.453   .     S
C1153  C1164   1.398   .     A
C1153  C1157   1.392   .     A
C1153  H1187   1.084   .     S
C1154  H1191   1.081   .     S
C1154  C1165   1.399   .     A
C1154  C1158   1.382   .     A
C1155  C1159   1.392   .     A
C1155  C1165   1.394   .     A
C1155  H1192   1.084   .     S
C1156  C1161   1.381   .     A
C1156  H1193   1.082   .     S
C1156  C1164   1.394   .     A
C1157  C1173   1.479   .     S
C1157  C1162   1.418   .     A
C1158  C1163   1.415   .     A
C1158  C1174   1.485   .     S
C1159  C1163   1.427   .     A
C1159  C1175   1.482   .     S
C1160  O1222   1.298   .     A
C1160  O1216   1.298   .     A
C1160  C1166   1.450   .     S
C1161  C1176   1.479   .     S
C1161  C1162   1.417   .     A
C1162  C1171   1.470   .     S
C1163  C1181   1.475   .     S
C1165  C426    1.463   1_556 S
C1167  C1186   1.410   .     A
C1168  C1182   1.478   .     S
C1168  O1228   1.219   .     D
C1168  O1206   1.395   .     S
C1169  O1207   1.220   .     D
C1169  O1208   1.397   .     S
C1169  C1183   1.478   .     S
C1170  O1210   1.400   .     S
C1170  C1184   1.493   .     S
C1170  O1209   1.212   .     D
C1171  O1224   1.307   .     A
C1171  O1227   1.297   .     A
C1172  O1212   1.399   .     S
C1172  C1185   1.491   .     S
C1172  O1211   1.214   .     D
C1173  O1213   1.221   .     D
C1173  O1214   1.399   .     S
C1174  O1215   1.221   .     D
C1174  O1217   1.398   .     S
C1175  O1218   1.223   .     D
C1175  O1219   1.398   .     S
C1176  O1220   1.223   .     D
C1176  O1221   1.400   .     S
C1177  C1186   1.449   .     S
C1177  N1201   1.156   .     T
C1178  N1202   1.157   .     T
C1179  N1203   1.157   .     T
C1180  N1204   1.156   .     T
C1181  O1226   1.297   .     A
C1181  O1225   1.309   .     A
C1182  N1200   1.369   .     A
C1183  N1199   1.365   .     A
C1183  C1430   1.425   .     S
C1184  N1200   1.389   .     A
C1185  N1199   1.385   .     A
C1185  C1428   1.428   .     S
H1188  O1217   1.012   .     S
H1189  O1219   1.013   .     S
H1190  O1221   1.013   .     S
H1194  O1206   1.014   .     S
H1195  O1208   1.014   .     S
H1196  O1210   1.014   .     S
H1197  O1212   1.014   .     S
H1198  O1214   1.014   .     S
N1199  Zn1229  2.030   .     S
N1200  Zn1230  2.030   .     S
O1205  Zn1229  2.009   .     S
O1216  Zn1230  2.009   .     S
O1222  Zn1229  2.016   .     S
O1223  Zn1230  2.016   .     S
O1224  Zn1229  1.998   .     S
O1225  Zn1230  1.998   .     S
O1226  Zn1229  2.028   .     S
O1227  Zn1230  2.028   .     S
C1231  C1249   1.454   .     S
C1231  O1305   1.301   .     A
C1231  O1287   1.296   .     A
C1232  C1248   1.406   .     A
C1232  C1260   1.452   .     S
C1232  C1316   1.382   .     S
C1233  C1248   1.406   .     A
C1233  C1261   1.454   .     S
C1233  C1350   1.382   .     S
C1234  C1249   1.415   .     A
C1234  C1262   1.453   .     S
C1234  C1396   1.382   1_455 S
C1235  C1246   1.398   .     A
C1235  C1239   1.392   .     A
C1235  H1269   1.084   .     S
C1236  H1273   1.081   .     S
C1236  C1247   1.399   .     A
C1236  C1240   1.382   .     A
C1237  C1241   1.392   .     A
C1237  C1247   1.394   .     A
C1237  H1274   1.084   .     S
C1238  C1243   1.381   .     A
C1238  H1275   1.082   .     S
C1238  C1246   1.394   .     A
C1239  C1255   1.479   .     S
C1239  C1244   1.418   .     A
C1240  C1245   1.415   .     A
C1240  C1256   1.485   .     S
C1241  C1245   1.427   .     A
C1241  C1257   1.482   .     S
C1242  O1304   1.298   .     A
C1242  O1298   1.298   .     A
C1242  C1248   1.450   .     S
C1243  C1258   1.479   .     S
C1243  C1244   1.417   .     A
C1244  C1253   1.470   .     S
C1245  C1263   1.475   .     S
C1247  C508    1.463   1_556 S
C1249  C1268   1.410   .     A
C1250  C1264   1.478   .     S
C1250  O1310   1.219   .     D
C1250  O1288   1.395   .     S
C1251  O1289   1.220   .     D
C1251  O1290   1.397   .     S
C1251  C1265   1.478   .     S
C1252  O1292   1.400   .     S
C1252  C1266   1.493   .     S
C1252  O1291   1.212   .     D
C1253  O1306   1.307   .     A
C1253  O1309   1.297   .     A
C1254  O1294   1.399   .     S
C1254  C1267   1.491   .     S
C1254  O1293   1.214   .     D
C1255  O1295   1.221   .     D
C1255  O1296   1.399   .     S
C1256  O1297   1.221   .     D
C1256  O1299   1.398   .     S
C1257  O1300   1.223   .     D
C1257  O1301   1.398   .     S
C1258  O1302   1.223   .     D
C1258  O1303   1.400   .     S
C1259  C1268   1.449   .     S
C1259  N1283   1.156   .     T
C1260  N1284   1.157   .     T
C1261  N1285   1.157   .     T
C1262  N1286   1.156   .     T
C1263  O1308   1.297   .     A
C1263  O1307   1.309   .     A
C1264  N1282   1.369   .     A
C1265  N1281   1.365   .     A
C1265  C774    1.425   1_565 S
C1266  N1282   1.389   .     A
C1267  N1281   1.385   .     A
C1267  C772    1.428   1_565 S
C1268  C1397   1.382   1_455 S
H1270  O1299   1.012   .     S
H1271  O1301   1.013   .     S
H1272  O1303   1.013   .     S
H1276  O1288   1.014   .     S
H1277  O1290   1.014   .     S
H1278  O1292   1.014   .     S
H1279  O1294   1.014   .     S
H1280  O1296   1.014   .     S
N1281  Zn1311  2.030   .     S
N1282  Zn1312  2.030   .     S
O1287  Zn1311  2.009   .     S
O1298  Zn1312  2.009   .     S
O1304  Zn1311  2.016   .     S
O1305  Zn1312  2.016   .     S
O1306  Zn1311  1.998   .     S
O1307  Zn1312  1.998   .     S
O1308  Zn1311  2.028   .     S
O1309  Zn1312  2.028   .     S
C1313  C1331   1.454   .     S
C1313  O1387   1.301   .     A
C1313  O1369   1.296   .     A
C1314  C1330   1.406   .     A
C1314  C1342   1.452   .     S
C1314  C1398   1.382   .     S
C1315  C1330   1.406   .     A
C1315  C1343   1.454   .     S
C1315  C1432   1.382   .     S
C1316  C1331   1.415   .     A
C1316  C1344   1.453   .     S
C1317  C1328   1.398   .     A
C1317  C1321   1.392   .     A
C1317  H1351   1.084   .     S
C1318  H1355   1.081   .     S
C1318  C1329   1.399   .     A
C1318  C1322   1.382   .     A
C1319  C1323   1.392   .     A
C1319  C1329   1.394   .     A
C1319  H1356   1.084   .     S
C1320  C1325   1.381   .     A
C1320  H1357   1.082   .     S
C1320  C1328   1.394   .     A
C1321  C1337   1.479   .     S
C1321  C1326   1.418   .     A
C1322  C1327   1.415   .     A
C1322  C1338   1.485   .     S
C1323  C1327   1.427   .     A
C1323  C1339   1.482   .     S
C1324  O1386   1.298   .     A
C1324  O1380   1.298   .     A
C1324  C1330   1.450   .     S
C1325  C1340   1.479   .     S
C1325  C1326   1.417   .     A
C1326  C1335   1.470   .     S
C1327  C1345   1.475   .     S
C1329  C590    1.463   1_556 S
C1331  C1350   1.410   .     A
C1332  C1346   1.478   .     S
C1332  O1392   1.219   .     D
C1332  O1370   1.395   .     S
C1333  O1371   1.220   .     D
C1333  O1372   1.397   .     S
C1333  C1347   1.478   .     S
C1334  O1374   1.400   .     S
C1334  C1348   1.493   .     S
C1334  O1373   1.212   .     D
C1335  O1388   1.307   .     A
C1335  O1391   1.297   .     A
C1336  O1376   1.399   .     S
C1336  C1349   1.491   .     S
C1336  O1375   1.214   .     D
C1337  O1377   1.221   .     D
C1337  O1378   1.399   .     S
C1338  O1379   1.221   .     D
C1338  O1381   1.398   .     S
C1339  O1382   1.223   .     D
C1339  O1383   1.398   .     S
C1340  O1384   1.223   .     D
C1340  O1385   1.400   .     S
C1341  C1350   1.449   .     S
C1341  N1365   1.156   .     T
C1342  N1366   1.157   .     T
C1343  N1367   1.157   .     T
C1344  N1368   1.156   .     T
C1345  O1390   1.297   .     A
C1345  O1389   1.309   .     A
C1346  N1364   1.369   .     A
C1347  N1363   1.365   .     A
C1347  C856    1.425   1_565 S
C1348  N1364   1.389   .     A
C1349  N1363   1.385   .     A
C1349  C854    1.428   1_565 S
H1352  O1381   1.012   .     S
H1353  O1383   1.013   .     S
H1354  O1385   1.013   .     S
H1358  O1370   1.014   .     S
H1359  O1372   1.014   .     S
H1360  O1374   1.014   .     S
H1361  O1376   1.014   .     S
H1362  O1378   1.014   .     S
N1363  Zn1393  2.030   .     S
N1364  Zn1394  2.030   .     S
O1369  Zn1393  2.009   .     S
O1380  Zn1394  2.009   .     S
O1386  Zn1393  2.016   .     S
O1387  Zn1394  2.016   .     S
O1388  Zn1393  1.998   .     S
O1389  Zn1394  1.998   .     S
O1390  Zn1393  2.028   .     S
O1391  Zn1394  2.028   .     S
C1395  C1413   1.454   .     S
C1395  O1469   1.301   .     A
C1395  O1451   1.296   .     A
C1396  C1412   1.406   .     A
C1396  C1424   1.452   .     S
C1396  C1234   1.382   1_655 S
C1397  C1412   1.406   .     A
C1397  C1425   1.454   .     S
C1397  C1268   1.382   1_655 S
C1398  C1413   1.415   .     A
C1398  C1426   1.453   .     S
C1399  C1410   1.398   .     A
C1399  C1403   1.392   .     A
C1399  H1433   1.084   .     S
C1400  H1437   1.081   .     S
C1400  C1411   1.399   .     A
C1400  C1404   1.382   .     A
C1401  C1405   1.392   .     A
C1401  C1411   1.394   .     A
C1401  H1438   1.084   .     S
C1402  C1407   1.381   .     A
C1402  H1439   1.082   .     S
C1402  C1410   1.394   .     A
C1403  C1419   1.479   .     S
C1403  C1408   1.418   .     A
C1404  C1409   1.415   .     A
C1404  C1420   1.485   .     S
C1405  C1409   1.427   .     A
C1405  C1421   1.482   .     S
C1406  O1468   1.298   .     A
C1406  O1462   1.298   .     A
C1406  C1412   1.450   .     S
C1407  C1422   1.479   .     S
C1407  C1408   1.417   .     A
C1408  C1417   1.470   .     S
C1409  C1427   1.475   .     S
C1411  C672    1.463   1_556 S
C1413  C1432   1.410   .     A
C1414  C1428   1.478   .     S
C1414  O1474   1.219   .     D
C1414  O1452   1.395   .     S
C1415  O1453   1.220   .     D
C1415  O1454   1.397   .     S
C1415  C1429   1.478   .     S
C1416  O1456   1.400   .     S
C1416  C1430   1.493   .     S
C1416  O1455   1.212   .     D
C1417  O1470   1.307   .     A
C1417  O1473   1.297   .     A
C1418  O1458   1.399   .     S
C1418  C1431   1.491   .     S
C1418  O1457   1.214   .     D
C1419  O1459   1.221   .     D
C1419  O1460   1.399   .     S
C1420  O1461   1.221   .     D
C1420  O1463   1.398   .     S
C1421  O1464   1.223   .     D
C1421  O1465   1.398   .     S
C1422  O1466   1.223   .     D
C1422  O1467   1.400   .     S
C1423  C1432   1.449   .     S
C1423  N1447   1.156   .     T
C1424  N1448   1.157   .     T
C1425  N1449   1.157   .     T
C1426  N1450   1.156   .     T
C1427  O1472   1.297   .     A
C1427  O1471   1.309   .     A
C1428  N1446   1.369   .     A
C1429  N1445   1.365   .     A
C1429  C938    1.425   1_565 S
C1430  N1446   1.389   .     A
C1431  N1445   1.385   .     A
C1431  C936    1.428   1_565 S
H1434  O1463   1.012   .     S
H1435  O1465   1.013   .     S
H1436  O1467   1.013   .     S
H1440  O1452   1.014   .     S
H1441  O1454   1.014   .     S
H1442  O1456   1.014   .     S
H1443  O1458   1.014   .     S
H1444  O1460   1.014   .     S
N1445  Zn1475  2.030   .     S
N1446  Zn1476  2.030   .     S
O1451  Zn1475  2.009   .     S
O1462  Zn1476  2.009   .     S
O1468  Zn1475  2.016   .     S
O1469  Zn1476  2.016   .     S
O1470  Zn1475  1.998   .     S
O1471  Zn1476  1.998   .     S
O1472  Zn1475  2.028   .     S
O1473  Zn1476  2.028   .     S
