data_str_m3_o1_o16_pcu_sym.90
_audit_creation_date              2020-01-03
_audit_creation_method            'Materials Studio'
_symmetry_space_group_name_H-M    'P1'
_symmetry_Int_Tables_number       1
_symmetry_cell_setting            triclinic
loop_
_symmetry_equiv_pos_as_xyz
  x,y,z
_cell_length_a                    29.5089
_cell_length_b                    32.1410
_cell_length_c                    26.2608
_cell_angle_alpha                 90.0998
_cell_angle_beta                  69.6255
_cell_angle_gamma                 90.0094
loop_
_atom_site_label
_atom_site_type_symbol
_atom_site_fract_x
_atom_site_fract_y
_atom_site_fract_z
_atom_site_U_iso_or_equiv
_atom_site_adp_type
_atom_site_occupancy
C1     C     0.16665   0.24671   0.25011   0.00000  Uiso   1.00
C2     C     0.14385   0.15841   0.49259   0.00000  Uiso   1.00
C3     C     0.15334   0.14708   0.43810   0.00000  Uiso   1.00
C4     C     0.18123   0.15389   0.01425   0.00000  Uiso   1.00
C5     C     0.22410   0.13185   0.48509   0.00000  Uiso   1.00
C6     C     0.22964   0.11524   0.43428   0.00000  Uiso   1.00
C7     C     0.19464   0.12255   0.41112   0.00000  Uiso   1.00
C8     C     0.17720   0.17125   0.06413   0.00000  Uiso   1.00
C9     C     0.25266   0.13982   0.06066   0.00000  Uiso   1.00
C10    C     0.12151   0.16094   0.41193   0.00000  Uiso   1.00
C11    C     0.20258   0.31206   0.26302   0.00000  Uiso   1.00
C12    C     0.13965   0.16457   0.35239   0.00000  Uiso   1.00
C13    C     0.20256   0.02136   0.26302   0.00000  Uiso   1.00
C14    C     0.16657   0.04249   0.25024   0.00000  Uiso   1.00
C15    C     0.13051   0.02129   0.23760   0.00000  Uiso   1.00
C16    C     0.13051   0.31200   0.23763   0.00000  Uiso   1.00
C17    C     0.16658   0.29086   0.25026   0.00000  Uiso   1.00
C18    C     0.32029   0.14209   0.21460   0.00000  Uiso   1.00
C19    C     0.03492   0.14207   0.21463   0.00000  Uiso   1.00
C20    C     0.01302   0.19121   0.28545   0.00000  Uiso   1.00
C21    C     0.29839   0.19121   0.28544   0.00000  Uiso   1.00
C22    C     0.16663   0.08662   0.25005   0.00000  Uiso   1.00
C23    C     0.19357   0.16663   0.14772   0.00000  Uiso   1.00
C24    C     0.26013   0.12586   0.00800   0.00000  Uiso   1.00
C25    C     0.21016   0.16141   0.08918   0.00000  Uiso   1.00
C26    C     0.07495   0.17598   0.44336   0.00000  Uiso   1.00
C27    C     0.06291   0.18050   0.49943   0.00000  Uiso   1.00
C28    C     0.09718   0.17315   0.02356   0.00000  Uiso   1.00
H29    H     0.27864   0.13204   0.07984   0.00000  Uiso   1.00
H30    H     0.23036   0.03766   0.27333   0.00000  Uiso   1.00
H31    H     0.10270   0.03753   0.22730   0.00000  Uiso   1.00
H32    H     0.10268   0.29572   0.22737   0.00000  Uiso   1.00
H33    H     0.31085   0.12247   0.18628   0.00000  Uiso   1.00
H34    H     0.06184   0.12240   0.18635   0.00000  Uiso   1.00
H35    H     0.02246   0.21084   0.31375   0.00000  Uiso   1.00
H36    H     0.27147   0.21087   0.31373   0.00000  Uiso   1.00
H37    H     0.26128   0.09698   0.41213   0.00000  Uiso   1.00
H38    H     0.29285   0.10880   0.48625   0.00000  Uiso   1.00
H39    H     0.14724   0.19123   0.08571   0.00000  Uiso   1.00
H40    H     0.08556   0.17779   0.06693   0.00000  Uiso   1.00
H41    H     0.02728   0.19119   0.02445   0.00000  Uiso   1.00
H42    H     0.19990   0.10813   0.37222   0.00000  Uiso   1.00
H43    H     0.23040   0.29581   0.27331   0.00000  Uiso   1.00
N44    N     0.04760   0.16668   0.25001   0.00000  Uiso   1.00
N45    N     0.28573   0.16665   0.25001   0.00000  Uiso   1.00
O46    O     0.12846   0.22775   0.25001   0.00000  Uiso   1.00
O47    O     0.20490   0.22774   0.25001   0.00000  Uiso   1.00
O48    O     0.10947   0.16666   0.32681   0.00000  Uiso   1.00
O49    O     0.18591   0.16665   0.32681   0.00000  Uiso   1.00
O50    O     0.12843   0.10559   0.25000   0.00000  Uiso   1.00
O51    O     0.20488   0.10558   0.25000   0.00000  Uiso   1.00
O52    O     0.14742   0.16668   0.17319   0.00000  Uiso   1.00
O53    O     0.22387   0.16667   0.17319   0.00000  Uiso   1.00
Zn54   Zn    0.11562   0.16667   0.25000   0.00000  Uiso   1.00
Zn55   Zn    0.21771   0.16666   0.25000   0.00000  Uiso   1.00
N56    N     0.04034   0.18720   0.41844   0.00000  Uiso   1.00
H57    H     0.01075   0.20257   0.44622   0.00000  Uiso   1.00
H58    H     0.02693   0.15955   0.40812   0.00000  Uiso   1.00
C59    C     0.49998   0.24671   0.25011   0.00000  Uiso   1.00
C60    C     0.47719   0.15841   0.49259   0.00000  Uiso   1.00
C61    C     0.48667   0.14708   0.43810   0.00000  Uiso   1.00
C62    C     0.51456   0.15389   0.01425   0.00000  Uiso   1.00
C63    C     0.55743   0.13185   0.48509   0.00000  Uiso   1.00
C64    C     0.56298   0.11524   0.43428   0.00000  Uiso   1.00
C65    C     0.52797   0.12255   0.41112   0.00000  Uiso   1.00
C66    C     0.51053   0.17125   0.06413   0.00000  Uiso   1.00
C67    C     0.58599   0.13982   0.06066   0.00000  Uiso   1.00
C68    C     0.45484   0.16094   0.41193   0.00000  Uiso   1.00
C69    C     0.53591   0.31206   0.26302   0.00000  Uiso   1.00
C70    C     0.47299   0.16457   0.35239   0.00000  Uiso   1.00
C71    C     0.53590   0.02136   0.26302   0.00000  Uiso   1.00
C72    C     0.49990   0.04249   0.25024   0.00000  Uiso   1.00
C73    C     0.46385   0.02129   0.23760   0.00000  Uiso   1.00
C74    C     0.46384   0.31200   0.23763   0.00000  Uiso   1.00
C75    C     0.49992   0.29086   0.25026   0.00000  Uiso   1.00
C76    C     0.65362   0.14209   0.21460   0.00000  Uiso   1.00
C77    C     0.36825   0.14207   0.21463   0.00000  Uiso   1.00
C78    C     0.34635   0.19121   0.28545   0.00000  Uiso   1.00
C79    C     0.63172   0.19121   0.28544   0.00000  Uiso   1.00
C80    C     0.49997   0.08662   0.25005   0.00000  Uiso   1.00
C81    C     0.52690   0.16663   0.14772   0.00000  Uiso   1.00
C82    C     0.59346   0.12586   0.00800   0.00000  Uiso   1.00
C83    C     0.54350   0.16141   0.08918   0.00000  Uiso   1.00
C84    C     0.40828   0.17598   0.44336   0.00000  Uiso   1.00
C85    C     0.39625   0.18050   0.49943   0.00000  Uiso   1.00
C86    C     0.43051   0.17315   0.02356   0.00000  Uiso   1.00
H87    H     0.61197   0.13204   0.07984   0.00000  Uiso   1.00
H88    H     0.56370   0.03766   0.27333   0.00000  Uiso   1.00
H89    H     0.43603   0.03753   0.22730   0.00000  Uiso   1.00
H90    H     0.43602   0.29572   0.22737   0.00000  Uiso   1.00
H91    H     0.64419   0.12247   0.18628   0.00000  Uiso   1.00
H92    H     0.39517   0.12240   0.18635   0.00000  Uiso   1.00
H93    H     0.35579   0.21084   0.31375   0.00000  Uiso   1.00
H94    H     0.60480   0.21087   0.31373   0.00000  Uiso   1.00
H95    H     0.59461   0.09698   0.41213   0.00000  Uiso   1.00
H96    H     0.62619   0.10880   0.48625   0.00000  Uiso   1.00
H97    H     0.48057   0.19123   0.08571   0.00000  Uiso   1.00
H98    H     0.41889   0.17779   0.06693   0.00000  Uiso   1.00
H99    H     0.36061   0.19119   0.02445   0.00000  Uiso   1.00
H100   H     0.53323   0.10813   0.37222   0.00000  Uiso   1.00
H101   H     0.56373   0.29581   0.27331   0.00000  Uiso   1.00
N102   N     0.38093   0.16668   0.25001   0.00000  Uiso   1.00
N103   N     0.61906   0.16665   0.25001   0.00000  Uiso   1.00
O104   O     0.46179   0.22775   0.25001   0.00000  Uiso   1.00
O105   O     0.53823   0.22774   0.25001   0.00000  Uiso   1.00
O106   O     0.44280   0.16666   0.32681   0.00000  Uiso   1.00
O107   O     0.51924   0.16665   0.32681   0.00000  Uiso   1.00
O108   O     0.46177   0.10559   0.25000   0.00000  Uiso   1.00
O109   O     0.53821   0.10558   0.25000   0.00000  Uiso   1.00
O110   O     0.48076   0.16668   0.17319   0.00000  Uiso   1.00
O111   O     0.55720   0.16667   0.17319   0.00000  Uiso   1.00
Zn112  Zn    0.44896   0.16667   0.25000   0.00000  Uiso   1.00
Zn113  Zn    0.55104   0.16666   0.25000   0.00000  Uiso   1.00
N114   N     0.37367   0.18720   0.41844   0.00000  Uiso   1.00
H115   H     0.34409   0.20257   0.44622   0.00000  Uiso   1.00
H116   H     0.36026   0.15955   0.40812   0.00000  Uiso   1.00
C117   C     0.83332   0.24671   0.25011   0.00000  Uiso   1.00
C118   C     0.81052   0.15841   0.49259   0.00000  Uiso   1.00
C119   C     0.82001   0.14708   0.43810   0.00000  Uiso   1.00
C120   C     0.84790   0.15389   0.01425   0.00000  Uiso   1.00
C121   C     0.89077   0.13185   0.48509   0.00000  Uiso   1.00
C122   C     0.89631   0.11524   0.43428   0.00000  Uiso   1.00
C123   C     0.86130   0.12255   0.41112   0.00000  Uiso   1.00
C124   C     0.84386   0.17125   0.06413   0.00000  Uiso   1.00
C125   C     0.91933   0.13982   0.06066   0.00000  Uiso   1.00
C126   C     0.78818   0.16094   0.41193   0.00000  Uiso   1.00
C127   C     0.86925   0.31206   0.26302   0.00000  Uiso   1.00
C128   C     0.80632   0.16457   0.35239   0.00000  Uiso   1.00
C129   C     0.86923   0.02136   0.26302   0.00000  Uiso   1.00
C130   C     0.83324   0.04249   0.25024   0.00000  Uiso   1.00
C131   C     0.79718   0.02129   0.23760   0.00000  Uiso   1.00
C132   C     0.79718   0.31200   0.23763   0.00000  Uiso   1.00
C133   C     0.83325   0.29086   0.25026   0.00000  Uiso   1.00
C134   C     0.98696   0.14209   0.21460   0.00000  Uiso   1.00
C135   C     0.70159   0.14207   0.21463   0.00000  Uiso   1.00
C136   C     0.67969   0.19121   0.28545   0.00000  Uiso   1.00
C137   C     0.96505   0.19121   0.28544   0.00000  Uiso   1.00
C138   C     0.83330   0.08662   0.25005   0.00000  Uiso   1.00
C139   C     0.86023   0.16663   0.14772   0.00000  Uiso   1.00
C140   C     0.92679   0.12586   0.00800   0.00000  Uiso   1.00
C141   C     0.87683   0.16141   0.08918   0.00000  Uiso   1.00
C142   C     0.74162   0.17598   0.44336   0.00000  Uiso   1.00
C143   C     0.72958   0.18050   0.49943   0.00000  Uiso   1.00
C144   C     0.76385   0.17315   0.02356   0.00000  Uiso   1.00
H145   H     0.94531   0.13204   0.07984   0.00000  Uiso   1.00
H146   H     0.89703   0.03766   0.27333   0.00000  Uiso   1.00
H147   H     0.76936   0.03753   0.22730   0.00000  Uiso   1.00
H148   H     0.76935   0.29572   0.22737   0.00000  Uiso   1.00
H149   H     0.97752   0.12247   0.18628   0.00000  Uiso   1.00
H150   H     0.72851   0.12240   0.18635   0.00000  Uiso   1.00
H151   H     0.68912   0.21084   0.31375   0.00000  Uiso   1.00
H152   H     0.93813   0.21087   0.31373   0.00000  Uiso   1.00
H153   H     0.92794   0.09698   0.41213   0.00000  Uiso   1.00
H154   H     0.95952   0.10880   0.48625   0.00000  Uiso   1.00
H155   H     0.81391   0.19123   0.08571   0.00000  Uiso   1.00
H156   H     0.75222   0.17779   0.06693   0.00000  Uiso   1.00
H157   H     0.69395   0.19119   0.02445   0.00000  Uiso   1.00
H158   H     0.86657   0.10813   0.37222   0.00000  Uiso   1.00
H159   H     0.89706   0.29581   0.27331   0.00000  Uiso   1.00
N160   N     0.71426   0.16668   0.25001   0.00000  Uiso   1.00
N161   N     0.95239   0.16665   0.25001   0.00000  Uiso   1.00
O162   O     0.79512   0.22775   0.25001   0.00000  Uiso   1.00
O163   O     0.87157   0.22774   0.25001   0.00000  Uiso   1.00
O164   O     0.77613   0.16666   0.32681   0.00000  Uiso   1.00
O165   O     0.85258   0.16665   0.32681   0.00000  Uiso   1.00
O166   O     0.79510   0.10559   0.25000   0.00000  Uiso   1.00
O167   O     0.87154   0.10558   0.25000   0.00000  Uiso   1.00
O168   O     0.81409   0.16668   0.17319   0.00000  Uiso   1.00
O169   O     0.89053   0.16667   0.17319   0.00000  Uiso   1.00
Zn170  Zn    0.78229   0.16667   0.25000   0.00000  Uiso   1.00
Zn171  Zn    0.88438   0.16666   0.25000   0.00000  Uiso   1.00
N172   N     0.70700   0.18720   0.41844   0.00000  Uiso   1.00
H173   H     0.67742   0.20257   0.44622   0.00000  Uiso   1.00
H174   H     0.69360   0.15955   0.40812   0.00000  Uiso   1.00
C175   C     0.16665   0.58005   0.25011   0.00000  Uiso   1.00
C176   C     0.14385   0.49174   0.49259   0.00000  Uiso   1.00
C177   C     0.15334   0.48041   0.43810   0.00000  Uiso   1.00
C178   C     0.18123   0.48723   0.01425   0.00000  Uiso   1.00
C179   C     0.22410   0.46518   0.48509   0.00000  Uiso   1.00
C180   C     0.22964   0.44857   0.43428   0.00000  Uiso   1.00
C181   C     0.19464   0.45588   0.41112   0.00000  Uiso   1.00
C182   C     0.17720   0.50458   0.06413   0.00000  Uiso   1.00
C183   C     0.25266   0.47315   0.06066   0.00000  Uiso   1.00
C184   C     0.12151   0.49427   0.41193   0.00000  Uiso   1.00
C185   C     0.20258   0.64539   0.26302   0.00000  Uiso   1.00
C186   C     0.13965   0.49791   0.35239   0.00000  Uiso   1.00
C187   C     0.20256   0.35469   0.26302   0.00000  Uiso   1.00
C188   C     0.16657   0.37582   0.25024   0.00000  Uiso   1.00
C189   C     0.13051   0.35462   0.23760   0.00000  Uiso   1.00
C190   C     0.13051   0.64533   0.23763   0.00000  Uiso   1.00
C191   C     0.16658   0.62419   0.25026   0.00000  Uiso   1.00
C192   C     0.32029   0.47542   0.21460   0.00000  Uiso   1.00
C193   C     0.03492   0.47541   0.21463   0.00000  Uiso   1.00
C194   C     0.01302   0.52454   0.28545   0.00000  Uiso   1.00
C195   C     0.29839   0.52454   0.28544   0.00000  Uiso   1.00
C196   C     0.16663   0.41995   0.25005   0.00000  Uiso   1.00
C197   C     0.19357   0.49996   0.14772   0.00000  Uiso   1.00
C198   C     0.26013   0.45919   0.00800   0.00000  Uiso   1.00
C199   C     0.21016   0.49475   0.08918   0.00000  Uiso   1.00
C200   C     0.07495   0.50931   0.44336   0.00000  Uiso   1.00
C201   C     0.06291   0.51383   0.49943   0.00000  Uiso   1.00
C202   C     0.09718   0.50648   0.02356   0.00000  Uiso   1.00
H203   H     0.27864   0.46538   0.07984   0.00000  Uiso   1.00
H204   H     0.23036   0.37099   0.27333   0.00000  Uiso   1.00
H205   H     0.10270   0.37086   0.22730   0.00000  Uiso   1.00
H206   H     0.10268   0.62905   0.22737   0.00000  Uiso   1.00
H207   H     0.31085   0.45580   0.18628   0.00000  Uiso   1.00
H208   H     0.06184   0.45573   0.18635   0.00000  Uiso   1.00
H209   H     0.02246   0.54417   0.31375   0.00000  Uiso   1.00
H210   H     0.27147   0.54420   0.31373   0.00000  Uiso   1.00
H211   H     0.26128   0.43032   0.41213   0.00000  Uiso   1.00
H212   H     0.29285   0.44213   0.48625   0.00000  Uiso   1.00
H213   H     0.14724   0.52456   0.08571   0.00000  Uiso   1.00
H214   H     0.08556   0.51113   0.06693   0.00000  Uiso   1.00
H215   H     0.02728   0.52452   0.02445   0.00000  Uiso   1.00
H216   H     0.19990   0.44146   0.37222   0.00000  Uiso   1.00
H217   H     0.23040   0.62914   0.27331   0.00000  Uiso   1.00
N218   N     0.04760   0.50001   0.25001   0.00000  Uiso   1.00
N219   N     0.28573   0.49998   0.25001   0.00000  Uiso   1.00
O220   O     0.12846   0.56108   0.25001   0.00000  Uiso   1.00
O221   O     0.20490   0.56107   0.25001   0.00000  Uiso   1.00
O222   O     0.10947   0.50000   0.32681   0.00000  Uiso   1.00
O223   O     0.18591   0.49999   0.32681   0.00000  Uiso   1.00
O224   O     0.12843   0.43893   0.25000   0.00000  Uiso   1.00
O225   O     0.20488   0.43892   0.25000   0.00000  Uiso   1.00
O226   O     0.14742   0.50001   0.17319   0.00000  Uiso   1.00
O227   O     0.22387   0.50000   0.17319   0.00000  Uiso   1.00
Zn228  Zn    0.11562   0.50001   0.25000   0.00000  Uiso   1.00
Zn229  Zn    0.21771   0.49999   0.25000   0.00000  Uiso   1.00
N230   N     0.04034   0.52053   0.41844   0.00000  Uiso   1.00
H231   H     0.01075   0.53591   0.44622   0.00000  Uiso   1.00
H232   H     0.02693   0.49288   0.40812   0.00000  Uiso   1.00
C233   C     0.49998   0.58005   0.25011   0.00000  Uiso   1.00
C234   C     0.47719   0.49174   0.49259   0.00000  Uiso   1.00
C235   C     0.48667   0.48041   0.43810   0.00000  Uiso   1.00
C236   C     0.51456   0.48723   0.01425   0.00000  Uiso   1.00
C237   C     0.55743   0.46518   0.48509   0.00000  Uiso   1.00
C238   C     0.56298   0.44857   0.43428   0.00000  Uiso   1.00
C239   C     0.52797   0.45588   0.41112   0.00000  Uiso   1.00
C240   C     0.51053   0.50458   0.06413   0.00000  Uiso   1.00
C241   C     0.58599   0.47315   0.06066   0.00000  Uiso   1.00
C242   C     0.45484   0.49427   0.41193   0.00000  Uiso   1.00
C243   C     0.53591   0.64539   0.26302   0.00000  Uiso   1.00
C244   C     0.47299   0.49791   0.35239   0.00000  Uiso   1.00
C245   C     0.53590   0.35469   0.26302   0.00000  Uiso   1.00
C246   C     0.49990   0.37582   0.25024   0.00000  Uiso   1.00
C247   C     0.46385   0.35462   0.23760   0.00000  Uiso   1.00
C248   C     0.46384   0.64533   0.23763   0.00000  Uiso   1.00
C249   C     0.49992   0.62419   0.25026   0.00000  Uiso   1.00
C250   C     0.65362   0.47542   0.21460   0.00000  Uiso   1.00
C251   C     0.36825   0.47541   0.21463   0.00000  Uiso   1.00
C252   C     0.34635   0.52454   0.28545   0.00000  Uiso   1.00
C253   C     0.63172   0.52454   0.28544   0.00000  Uiso   1.00
C254   C     0.49997   0.41995   0.25005   0.00000  Uiso   1.00
C255   C     0.52690   0.49996   0.14772   0.00000  Uiso   1.00
C256   C     0.59346   0.45919   0.00800   0.00000  Uiso   1.00
C257   C     0.54350   0.49475   0.08918   0.00000  Uiso   1.00
C258   C     0.40828   0.50931   0.44336   0.00000  Uiso   1.00
C259   C     0.39625   0.51383   0.49943   0.00000  Uiso   1.00
C260   C     0.43051   0.50648   0.02356   0.00000  Uiso   1.00
H261   H     0.61197   0.46538   0.07984   0.00000  Uiso   1.00
H262   H     0.56370   0.37099   0.27333   0.00000  Uiso   1.00
H263   H     0.43603   0.37086   0.22730   0.00000  Uiso   1.00
H264   H     0.43602   0.62905   0.22737   0.00000  Uiso   1.00
H265   H     0.64419   0.45580   0.18628   0.00000  Uiso   1.00
H266   H     0.39517   0.45573   0.18635   0.00000  Uiso   1.00
H267   H     0.35579   0.54417   0.31375   0.00000  Uiso   1.00
H268   H     0.60480   0.54420   0.31373   0.00000  Uiso   1.00
H269   H     0.59461   0.43032   0.41213   0.00000  Uiso   1.00
H270   H     0.62619   0.44213   0.48625   0.00000  Uiso   1.00
H271   H     0.48057   0.52456   0.08571   0.00000  Uiso   1.00
H272   H     0.41889   0.51113   0.06693   0.00000  Uiso   1.00
H273   H     0.36061   0.52452   0.02445   0.00000  Uiso   1.00
H274   H     0.53323   0.44146   0.37222   0.00000  Uiso   1.00
H275   H     0.56373   0.62914   0.27331   0.00000  Uiso   1.00
N276   N     0.38093   0.50001   0.25001   0.00000  Uiso   1.00
N277   N     0.61906   0.49998   0.25001   0.00000  Uiso   1.00
O278   O     0.46179   0.56108   0.25001   0.00000  Uiso   1.00
O279   O     0.53823   0.56107   0.25001   0.00000  Uiso   1.00
O280   O     0.44280   0.50000   0.32681   0.00000  Uiso   1.00
O281   O     0.51924   0.49999   0.32681   0.00000  Uiso   1.00
O282   O     0.46177   0.43893   0.25000   0.00000  Uiso   1.00
O283   O     0.53821   0.43892   0.25000   0.00000  Uiso   1.00
O284   O     0.48076   0.50001   0.17319   0.00000  Uiso   1.00
O285   O     0.55720   0.50000   0.17319   0.00000  Uiso   1.00
Zn286  Zn    0.44896   0.50001   0.25000   0.00000  Uiso   1.00
Zn287  Zn    0.55104   0.49999   0.25000   0.00000  Uiso   1.00
N288   N     0.37367   0.52053   0.41844   0.00000  Uiso   1.00
H289   H     0.34409   0.53591   0.44622   0.00000  Uiso   1.00
H290   H     0.36026   0.49288   0.40812   0.00000  Uiso   1.00
C291   C     0.83332   0.58005   0.25011   0.00000  Uiso   1.00
C292   C     0.81052   0.49174   0.49259   0.00000  Uiso   1.00
C293   C     0.82001   0.48041   0.43810   0.00000  Uiso   1.00
C294   C     0.84790   0.48723   0.01425   0.00000  Uiso   1.00
C295   C     0.89077   0.46518   0.48509   0.00000  Uiso   1.00
C296   C     0.89631   0.44857   0.43428   0.00000  Uiso   1.00
C297   C     0.86130   0.45588   0.41112   0.00000  Uiso   1.00
C298   C     0.84386   0.50458   0.06413   0.00000  Uiso   1.00
C299   C     0.91933   0.47315   0.06066   0.00000  Uiso   1.00
C300   C     0.78818   0.49427   0.41193   0.00000  Uiso   1.00
C301   C     0.86925   0.64539   0.26302   0.00000  Uiso   1.00
C302   C     0.80632   0.49791   0.35239   0.00000  Uiso   1.00
C303   C     0.86923   0.35469   0.26302   0.00000  Uiso   1.00
C304   C     0.83324   0.37582   0.25024   0.00000  Uiso   1.00
C305   C     0.79718   0.35462   0.23760   0.00000  Uiso   1.00
C306   C     0.79718   0.64533   0.23763   0.00000  Uiso   1.00
C307   C     0.83325   0.62419   0.25026   0.00000  Uiso   1.00
C308   C     0.98696   0.47542   0.21460   0.00000  Uiso   1.00
C309   C     0.70159   0.47541   0.21463   0.00000  Uiso   1.00
C310   C     0.67969   0.52454   0.28545   0.00000  Uiso   1.00
C311   C     0.96505   0.52454   0.28544   0.00000  Uiso   1.00
C312   C     0.83330   0.41995   0.25005   0.00000  Uiso   1.00
C313   C     0.86023   0.49996   0.14772   0.00000  Uiso   1.00
C314   C     0.92679   0.45919   0.00800   0.00000  Uiso   1.00
C315   C     0.87683   0.49475   0.08918   0.00000  Uiso   1.00
C316   C     0.74162   0.50931   0.44336   0.00000  Uiso   1.00
C317   C     0.72958   0.51383   0.49943   0.00000  Uiso   1.00
C318   C     0.76385   0.50648   0.02356   0.00000  Uiso   1.00
H319   H     0.94531   0.46538   0.07984   0.00000  Uiso   1.00
H320   H     0.89703   0.37099   0.27333   0.00000  Uiso   1.00
H321   H     0.76936   0.37086   0.22730   0.00000  Uiso   1.00
H322   H     0.76935   0.62905   0.22737   0.00000  Uiso   1.00
H323   H     0.97752   0.45580   0.18628   0.00000  Uiso   1.00
H324   H     0.72851   0.45573   0.18635   0.00000  Uiso   1.00
H325   H     0.68912   0.54417   0.31375   0.00000  Uiso   1.00
H326   H     0.93813   0.54420   0.31373   0.00000  Uiso   1.00
H327   H     0.92794   0.43032   0.41213   0.00000  Uiso   1.00
H328   H     0.95952   0.44213   0.48625   0.00000  Uiso   1.00
H329   H     0.81391   0.52456   0.08571   0.00000  Uiso   1.00
H330   H     0.75222   0.51113   0.06693   0.00000  Uiso   1.00
H331   H     0.69395   0.52452   0.02445   0.00000  Uiso   1.00
H332   H     0.86657   0.44146   0.37222   0.00000  Uiso   1.00
H333   H     0.89706   0.62914   0.27331   0.00000  Uiso   1.00
N334   N     0.71426   0.50001   0.25001   0.00000  Uiso   1.00
N335   N     0.95239   0.49998   0.25001   0.00000  Uiso   1.00
O336   O     0.79512   0.56108   0.25001   0.00000  Uiso   1.00
O337   O     0.87157   0.56107   0.25001   0.00000  Uiso   1.00
O338   O     0.77613   0.50000   0.32681   0.00000  Uiso   1.00
O339   O     0.85258   0.49999   0.32681   0.00000  Uiso   1.00
O340   O     0.79510   0.43893   0.25000   0.00000  Uiso   1.00
O341   O     0.87154   0.43892   0.25000   0.00000  Uiso   1.00
O342   O     0.81409   0.50001   0.17319   0.00000  Uiso   1.00
O343   O     0.89053   0.50000   0.17319   0.00000  Uiso   1.00
Zn344  Zn    0.78229   0.50001   0.25000   0.00000  Uiso   1.00
Zn345  Zn    0.88438   0.49999   0.25000   0.00000  Uiso   1.00
N346   N     0.70700   0.52053   0.41844   0.00000  Uiso   1.00
H347   H     0.67742   0.53591   0.44622   0.00000  Uiso   1.00
H348   H     0.69360   0.49288   0.40812   0.00000  Uiso   1.00
C349   C     0.16665   0.91338   0.25011   0.00000  Uiso   1.00
C350   C     0.14385   0.82507   0.49259   0.00000  Uiso   1.00
C351   C     0.15334   0.81375   0.43810   0.00000  Uiso   1.00
C352   C     0.18123   0.82056   0.01425   0.00000  Uiso   1.00
C353   C     0.22410   0.79851   0.48509   0.00000  Uiso   1.00
C354   C     0.22964   0.78191   0.43428   0.00000  Uiso   1.00
C355   C     0.19464   0.78921   0.41112   0.00000  Uiso   1.00
C356   C     0.17720   0.83791   0.06413   0.00000  Uiso   1.00
C357   C     0.25266   0.80649   0.06066   0.00000  Uiso   1.00
C358   C     0.12151   0.82760   0.41193   0.00000  Uiso   1.00
C359   C     0.20258   0.97872   0.26302   0.00000  Uiso   1.00
C360   C     0.13965   0.83124   0.35239   0.00000  Uiso   1.00
C361   C     0.20256   0.68802   0.26302   0.00000  Uiso   1.00
C362   C     0.16657   0.70915   0.25024   0.00000  Uiso   1.00
C363   C     0.13051   0.68796   0.23760   0.00000  Uiso   1.00
C364   C     0.13051   0.97866   0.23763   0.00000  Uiso   1.00
C365   C     0.16658   0.95753   0.25026   0.00000  Uiso   1.00
C366   C     0.32029   0.80875   0.21460   0.00000  Uiso   1.00
C367   C     0.03492   0.80874   0.21463   0.00000  Uiso   1.00
C368   C     0.01302   0.85787   0.28545   0.00000  Uiso   1.00
C369   C     0.29839   0.85787   0.28544   0.00000  Uiso   1.00
C370   C     0.16663   0.75329   0.25005   0.00000  Uiso   1.00
C371   C     0.19357   0.83330   0.14772   0.00000  Uiso   1.00
C372   C     0.26013   0.79252   0.00800   0.00000  Uiso   1.00
C373   C     0.21016   0.82808   0.08918   0.00000  Uiso   1.00
C374   C     0.07495   0.84265   0.44336   0.00000  Uiso   1.00
C375   C     0.06291   0.84716   0.49943   0.00000  Uiso   1.00
C376   C     0.09718   0.83982   0.02356   0.00000  Uiso   1.00
H377   H     0.27864   0.79871   0.07984   0.00000  Uiso   1.00
H378   H     0.23036   0.70432   0.27333   0.00000  Uiso   1.00
H379   H     0.10270   0.70419   0.22730   0.00000  Uiso   1.00
H380   H     0.10268   0.96238   0.22737   0.00000  Uiso   1.00
H381   H     0.31085   0.78914   0.18628   0.00000  Uiso   1.00
H382   H     0.06184   0.78906   0.18635   0.00000  Uiso   1.00
H383   H     0.02246   0.87751   0.31375   0.00000  Uiso   1.00
H384   H     0.27147   0.87754   0.31373   0.00000  Uiso   1.00
H385   H     0.26128   0.76365   0.41213   0.00000  Uiso   1.00
H386   H     0.29285   0.77546   0.48625   0.00000  Uiso   1.00
H387   H     0.14724   0.85790   0.08571   0.00000  Uiso   1.00
H388   H     0.08556   0.84446   0.06693   0.00000  Uiso   1.00
H389   H     0.02728   0.85786   0.02445   0.00000  Uiso   1.00
H390   H     0.19990   0.77479   0.37222   0.00000  Uiso   1.00
H391   H     0.23040   0.96247   0.27331   0.00000  Uiso   1.00
N392   N     0.04760   0.83334   0.25001   0.00000  Uiso   1.00
N393   N     0.28573   0.83331   0.25001   0.00000  Uiso   1.00
O394   O     0.12846   0.89442   0.25001   0.00000  Uiso   1.00
O395   O     0.20490   0.89441   0.25001   0.00000  Uiso   1.00
O396   O     0.10947   0.83333   0.32681   0.00000  Uiso   1.00
O397   O     0.18591   0.83332   0.32681   0.00000  Uiso   1.00
O398   O     0.12843   0.77226   0.25000   0.00000  Uiso   1.00
O399   O     0.20488   0.77225   0.25000   0.00000  Uiso   1.00
O400   O     0.14742   0.83335   0.17319   0.00000  Uiso   1.00
O401   O     0.22387   0.83334   0.17319   0.00000  Uiso   1.00
Zn402  Zn    0.11562   0.83334   0.25000   0.00000  Uiso   1.00
Zn403  Zn    0.21771   0.83333   0.25000   0.00000  Uiso   1.00
N404   N     0.04034   0.85387   0.41844   0.00000  Uiso   1.00
H405   H     0.01075   0.86924   0.44622   0.00000  Uiso   1.00
H406   H     0.02693   0.82622   0.40812   0.00000  Uiso   1.00
C407   C     0.49998   0.91338   0.25011   0.00000  Uiso   1.00
C408   C     0.47719   0.82507   0.49259   0.00000  Uiso   1.00
C409   C     0.48667   0.81375   0.43810   0.00000  Uiso   1.00
C410   C     0.51456   0.82056   0.01425   0.00000  Uiso   1.00
C411   C     0.55743   0.79851   0.48509   0.00000  Uiso   1.00
C412   C     0.56298   0.78191   0.43428   0.00000  Uiso   1.00
C413   C     0.52797   0.78921   0.41112   0.00000  Uiso   1.00
C414   C     0.51053   0.83791   0.06413   0.00000  Uiso   1.00
C415   C     0.58599   0.80649   0.06066   0.00000  Uiso   1.00
C416   C     0.45484   0.82760   0.41193   0.00000  Uiso   1.00
C417   C     0.53591   0.97872   0.26302   0.00000  Uiso   1.00
C418   C     0.47299   0.83124   0.35239   0.00000  Uiso   1.00
C419   C     0.53590   0.68802   0.26302   0.00000  Uiso   1.00
C420   C     0.49990   0.70915   0.25024   0.00000  Uiso   1.00
C421   C     0.46385   0.68796   0.23760   0.00000  Uiso   1.00
C422   C     0.46384   0.97866   0.23763   0.00000  Uiso   1.00
C423   C     0.49992   0.95753   0.25026   0.00000  Uiso   1.00
C424   C     0.65362   0.80875   0.21460   0.00000  Uiso   1.00
C425   C     0.36825   0.80874   0.21463   0.00000  Uiso   1.00
C426   C     0.34635   0.85787   0.28545   0.00000  Uiso   1.00
C427   C     0.63172   0.85787   0.28544   0.00000  Uiso   1.00
C428   C     0.49997   0.75329   0.25005   0.00000  Uiso   1.00
C429   C     0.52690   0.83330   0.14772   0.00000  Uiso   1.00
C430   C     0.59346   0.79252   0.00800   0.00000  Uiso   1.00
C431   C     0.54350   0.82808   0.08918   0.00000  Uiso   1.00
C432   C     0.40828   0.84265   0.44336   0.00000  Uiso   1.00
C433   C     0.39625   0.84716   0.49943   0.00000  Uiso   1.00
C434   C     0.43051   0.83982   0.02356   0.00000  Uiso   1.00
H435   H     0.61197   0.79871   0.07984   0.00000  Uiso   1.00
H436   H     0.56370   0.70432   0.27333   0.00000  Uiso   1.00
H437   H     0.43603   0.70419   0.22730   0.00000  Uiso   1.00
H438   H     0.43602   0.96238   0.22737   0.00000  Uiso   1.00
H439   H     0.64419   0.78914   0.18628   0.00000  Uiso   1.00
H440   H     0.39517   0.78906   0.18635   0.00000  Uiso   1.00
H441   H     0.35579   0.87751   0.31375   0.00000  Uiso   1.00
H442   H     0.60480   0.87754   0.31373   0.00000  Uiso   1.00
H443   H     0.59461   0.76365   0.41213   0.00000  Uiso   1.00
H444   H     0.62619   0.77546   0.48625   0.00000  Uiso   1.00
H445   H     0.48057   0.85790   0.08571   0.00000  Uiso   1.00
H446   H     0.41889   0.84446   0.06693   0.00000  Uiso   1.00
H447   H     0.36061   0.85786   0.02445   0.00000  Uiso   1.00
H448   H     0.53323   0.77479   0.37222   0.00000  Uiso   1.00
H449   H     0.56373   0.96247   0.27331   0.00000  Uiso   1.00
N450   N     0.38093   0.83334   0.25001   0.00000  Uiso   1.00
N451   N     0.61906   0.83331   0.25001   0.00000  Uiso   1.00
O452   O     0.46179   0.89442   0.25001   0.00000  Uiso   1.00
O453   O     0.53823   0.89441   0.25001   0.00000  Uiso   1.00
O454   O     0.44280   0.83333   0.32681   0.00000  Uiso   1.00
O455   O     0.51924   0.83332   0.32681   0.00000  Uiso   1.00
O456   O     0.46177   0.77226   0.25000   0.00000  Uiso   1.00
O457   O     0.53821   0.77225   0.25000   0.00000  Uiso   1.00
O458   O     0.48076   0.83335   0.17319   0.00000  Uiso   1.00
O459   O     0.55720   0.83334   0.17319   0.00000  Uiso   1.00
Zn460  Zn    0.44896   0.83334   0.25000   0.00000  Uiso   1.00
Zn461  Zn    0.55104   0.83333   0.25000   0.00000  Uiso   1.00
N462   N     0.37367   0.85387   0.41844   0.00000  Uiso   1.00
H463   H     0.34409   0.86924   0.44622   0.00000  Uiso   1.00
H464   H     0.36026   0.82622   0.40812   0.00000  Uiso   1.00
C465   C     0.83332   0.91338   0.25011   0.00000  Uiso   1.00
C466   C     0.81052   0.82507   0.49259   0.00000  Uiso   1.00
C467   C     0.82001   0.81375   0.43810   0.00000  Uiso   1.00
C468   C     0.84790   0.82056   0.01425   0.00000  Uiso   1.00
C469   C     0.89077   0.79851   0.48509   0.00000  Uiso   1.00
C470   C     0.89631   0.78191   0.43428   0.00000  Uiso   1.00
C471   C     0.86130   0.78921   0.41112   0.00000  Uiso   1.00
C472   C     0.84386   0.83791   0.06413   0.00000  Uiso   1.00
C473   C     0.91933   0.80649   0.06066   0.00000  Uiso   1.00
C474   C     0.78818   0.82760   0.41193   0.00000  Uiso   1.00
C475   C     0.86925   0.97872   0.26302   0.00000  Uiso   1.00
C476   C     0.80632   0.83124   0.35239   0.00000  Uiso   1.00
C477   C     0.86923   0.68802   0.26302   0.00000  Uiso   1.00
C478   C     0.83324   0.70915   0.25024   0.00000  Uiso   1.00
C479   C     0.79718   0.68796   0.23760   0.00000  Uiso   1.00
C480   C     0.79718   0.97866   0.23763   0.00000  Uiso   1.00
C481   C     0.83325   0.95753   0.25026   0.00000  Uiso   1.00
C482   C     0.98696   0.80875   0.21460   0.00000  Uiso   1.00
C483   C     0.70159   0.80874   0.21463   0.00000  Uiso   1.00
C484   C     0.67969   0.85787   0.28545   0.00000  Uiso   1.00
C485   C     0.96505   0.85787   0.28544   0.00000  Uiso   1.00
C486   C     0.83330   0.75329   0.25005   0.00000  Uiso   1.00
C487   C     0.86023   0.83330   0.14772   0.00000  Uiso   1.00
C488   C     0.92679   0.79252   0.00800   0.00000  Uiso   1.00
C489   C     0.87683   0.82808   0.08918   0.00000  Uiso   1.00
C490   C     0.74162   0.84265   0.44336   0.00000  Uiso   1.00
C491   C     0.72958   0.84716   0.49943   0.00000  Uiso   1.00
C492   C     0.76385   0.83982   0.02356   0.00000  Uiso   1.00
H493   H     0.94531   0.79871   0.07984   0.00000  Uiso   1.00
H494   H     0.89703   0.70432   0.27333   0.00000  Uiso   1.00
H495   H     0.76936   0.70419   0.22730   0.00000  Uiso   1.00
H496   H     0.76935   0.96238   0.22737   0.00000  Uiso   1.00
H497   H     0.97752   0.78914   0.18628   0.00000  Uiso   1.00
H498   H     0.72851   0.78906   0.18635   0.00000  Uiso   1.00
H499   H     0.68912   0.87751   0.31375   0.00000  Uiso   1.00
H500   H     0.93813   0.87754   0.31373   0.00000  Uiso   1.00
H501   H     0.92794   0.76365   0.41213   0.00000  Uiso   1.00
H502   H     0.95952   0.77546   0.48625   0.00000  Uiso   1.00
H503   H     0.81391   0.85790   0.08571   0.00000  Uiso   1.00
H504   H     0.75222   0.84446   0.06693   0.00000  Uiso   1.00
H505   H     0.69395   0.85786   0.02445   0.00000  Uiso   1.00
H506   H     0.86657   0.77479   0.37222   0.00000  Uiso   1.00
H507   H     0.89706   0.96247   0.27331   0.00000  Uiso   1.00
N508   N     0.71426   0.83334   0.25001   0.00000  Uiso   1.00
N509   N     0.95239   0.83331   0.25001   0.00000  Uiso   1.00
O510   O     0.79512   0.89442   0.25001   0.00000  Uiso   1.00
O511   O     0.87157   0.89441   0.25001   0.00000  Uiso   1.00
O512   O     0.77613   0.83333   0.32681   0.00000  Uiso   1.00
O513   O     0.85258   0.83332   0.32681   0.00000  Uiso   1.00
O514   O     0.79510   0.77226   0.25000   0.00000  Uiso   1.00
O515   O     0.87154   0.77225   0.25000   0.00000  Uiso   1.00
O516   O     0.81409   0.83335   0.17319   0.00000  Uiso   1.00
O517   O     0.89053   0.83334   0.17319   0.00000  Uiso   1.00
Zn518  Zn    0.78229   0.83334   0.25000   0.00000  Uiso   1.00
Zn519  Zn    0.88438   0.83333   0.25000   0.00000  Uiso   1.00
N520   N     0.70700   0.85387   0.41844   0.00000  Uiso   1.00
H521   H     0.67742   0.86924   0.44622   0.00000  Uiso   1.00
H522   H     0.69360   0.82622   0.40812   0.00000  Uiso   1.00
C523   C     0.16665   0.24671   0.75011   0.00000  Uiso   1.00
C524   C     0.14385   0.15841   0.99259   0.00000  Uiso   1.00
C525   C     0.15334   0.14708   0.93810   0.00000  Uiso   1.00
C526   C     0.18123   0.15389   0.51425   0.00000  Uiso   1.00
C527   C     0.22410   0.13185   0.98509   0.00000  Uiso   1.00
C528   C     0.22964   0.11524   0.93428   0.00000  Uiso   1.00
C529   C     0.19464   0.12255   0.91112   0.00000  Uiso   1.00
C530   C     0.17720   0.17125   0.56413   0.00000  Uiso   1.00
C531   C     0.25266   0.13982   0.56066   0.00000  Uiso   1.00
C532   C     0.12151   0.16094   0.91193   0.00000  Uiso   1.00
C533   C     0.20258   0.31206   0.76302   0.00000  Uiso   1.00
C534   C     0.13965   0.16457   0.85239   0.00000  Uiso   1.00
C535   C     0.20256   0.02136   0.76302   0.00000  Uiso   1.00
C536   C     0.16657   0.04249   0.75024   0.00000  Uiso   1.00
C537   C     0.13051   0.02129   0.73760   0.00000  Uiso   1.00
C538   C     0.13051   0.31200   0.73763   0.00000  Uiso   1.00
C539   C     0.16658   0.29086   0.75026   0.00000  Uiso   1.00
C540   C     0.32029   0.14209   0.71460   0.00000  Uiso   1.00
C541   C     0.03492   0.14207   0.71463   0.00000  Uiso   1.00
C542   C     0.01302   0.19121   0.78545   0.00000  Uiso   1.00
C543   C     0.29839   0.19121   0.78544   0.00000  Uiso   1.00
C544   C     0.16663   0.08662   0.75005   0.00000  Uiso   1.00
C545   C     0.19357   0.16663   0.64772   0.00000  Uiso   1.00
C546   C     0.26013   0.12586   0.50800   0.00000  Uiso   1.00
C547   C     0.21016   0.16141   0.58918   0.00000  Uiso   1.00
C548   C     0.07495   0.17598   0.94336   0.00000  Uiso   1.00
C549   C     0.06291   0.18050   0.99943   0.00000  Uiso   1.00
C550   C     0.09718   0.17315   0.52356   0.00000  Uiso   1.00
H551   H     0.27864   0.13204   0.57984   0.00000  Uiso   1.00
H552   H     0.23036   0.03766   0.77333   0.00000  Uiso   1.00
H553   H     0.10270   0.03753   0.72730   0.00000  Uiso   1.00
H554   H     0.10268   0.29572   0.72737   0.00000  Uiso   1.00
H555   H     0.31085   0.12247   0.68628   0.00000  Uiso   1.00
H556   H     0.06184   0.12240   0.68635   0.00000  Uiso   1.00
H557   H     0.02246   0.21084   0.81375   0.00000  Uiso   1.00
H558   H     0.27147   0.21087   0.81373   0.00000  Uiso   1.00
H559   H     0.26128   0.09698   0.91213   0.00000  Uiso   1.00
H560   H     0.29285   0.10880   0.98625   0.00000  Uiso   1.00
H561   H     0.14724   0.19123   0.58571   0.00000  Uiso   1.00
H562   H     0.08556   0.17779   0.56693   0.00000  Uiso   1.00
H563   H     0.02728   0.19119   0.52445   0.00000  Uiso   1.00
H564   H     0.19990   0.10813   0.87222   0.00000  Uiso   1.00
H565   H     0.23040   0.29581   0.77331   0.00000  Uiso   1.00
N566   N     0.04760   0.16668   0.75001   0.00000  Uiso   1.00
N567   N     0.28573   0.16665   0.75001   0.00000  Uiso   1.00
O568   O     0.12846   0.22775   0.75001   0.00000  Uiso   1.00
O569   O     0.20490   0.22774   0.75001   0.00000  Uiso   1.00
O570   O     0.10947   0.16666   0.82681   0.00000  Uiso   1.00
O571   O     0.18591   0.16665   0.82681   0.00000  Uiso   1.00
O572   O     0.12843   0.10559   0.75000   0.00000  Uiso   1.00
O573   O     0.20488   0.10558   0.75000   0.00000  Uiso   1.00
O574   O     0.14742   0.16668   0.67319   0.00000  Uiso   1.00
O575   O     0.22387   0.16667   0.67319   0.00000  Uiso   1.00
Zn576  Zn    0.11562   0.16667   0.75000   0.00000  Uiso   1.00
Zn577  Zn    0.21771   0.16666   0.75000   0.00000  Uiso   1.00
N578   N     0.04034   0.18720   0.91844   0.00000  Uiso   1.00
H579   H     0.01075   0.20257   0.94622   0.00000  Uiso   1.00
H580   H     0.02693   0.15955   0.90812   0.00000  Uiso   1.00
C581   C     0.49998   0.24671   0.75011   0.00000  Uiso   1.00
C582   C     0.47719   0.15841   0.99259   0.00000  Uiso   1.00
C583   C     0.48667   0.14708   0.93810   0.00000  Uiso   1.00
C584   C     0.51456   0.15389   0.51425   0.00000  Uiso   1.00
C585   C     0.55743   0.13185   0.98509   0.00000  Uiso   1.00
C586   C     0.56298   0.11524   0.93428   0.00000  Uiso   1.00
C587   C     0.52797   0.12255   0.91112   0.00000  Uiso   1.00
C588   C     0.51053   0.17125   0.56413   0.00000  Uiso   1.00
C589   C     0.58599   0.13982   0.56066   0.00000  Uiso   1.00
C590   C     0.45484   0.16094   0.91193   0.00000  Uiso   1.00
C591   C     0.53591   0.31206   0.76302   0.00000  Uiso   1.00
C592   C     0.47299   0.16457   0.85239   0.00000  Uiso   1.00
C593   C     0.53590   0.02136   0.76302   0.00000  Uiso   1.00
C594   C     0.49990   0.04249   0.75024   0.00000  Uiso   1.00
C595   C     0.46385   0.02129   0.73760   0.00000  Uiso   1.00
C596   C     0.46384   0.31200   0.73763   0.00000  Uiso   1.00
C597   C     0.49992   0.29086   0.75026   0.00000  Uiso   1.00
C598   C     0.65362   0.14209   0.71460   0.00000  Uiso   1.00
C599   C     0.36825   0.14207   0.71463   0.00000  Uiso   1.00
C600   C     0.34635   0.19121   0.78545   0.00000  Uiso   1.00
C601   C     0.63172   0.19121   0.78544   0.00000  Uiso   1.00
C602   C     0.49997   0.08662   0.75005   0.00000  Uiso   1.00
C603   C     0.52690   0.16663   0.64772   0.00000  Uiso   1.00
C604   C     0.59346   0.12586   0.50800   0.00000  Uiso   1.00
C605   C     0.54350   0.16141   0.58918   0.00000  Uiso   1.00
C606   C     0.40828   0.17598   0.94336   0.00000  Uiso   1.00
C607   C     0.39625   0.18050   0.99943   0.00000  Uiso   1.00
C608   C     0.43051   0.17315   0.52356   0.00000  Uiso   1.00
H609   H     0.61197   0.13204   0.57984   0.00000  Uiso   1.00
H610   H     0.56370   0.03766   0.77333   0.00000  Uiso   1.00
H611   H     0.43603   0.03753   0.72730   0.00000  Uiso   1.00
H612   H     0.43602   0.29572   0.72737   0.00000  Uiso   1.00
H613   H     0.64419   0.12247   0.68628   0.00000  Uiso   1.00
H614   H     0.39517   0.12240   0.68635   0.00000  Uiso   1.00
H615   H     0.35579   0.21084   0.81375   0.00000  Uiso   1.00
H616   H     0.60480   0.21087   0.81373   0.00000  Uiso   1.00
H617   H     0.59461   0.09698   0.91213   0.00000  Uiso   1.00
H618   H     0.62619   0.10880   0.98625   0.00000  Uiso   1.00
H619   H     0.48057   0.19123   0.58571   0.00000  Uiso   1.00
H620   H     0.41889   0.17779   0.56693   0.00000  Uiso   1.00
H621   H     0.36061   0.19119   0.52445   0.00000  Uiso   1.00
H622   H     0.53323   0.10813   0.87222   0.00000  Uiso   1.00
H623   H     0.56373   0.29581   0.77331   0.00000  Uiso   1.00
N624   N     0.38093   0.16668   0.75001   0.00000  Uiso   1.00
N625   N     0.61906   0.16665   0.75001   0.00000  Uiso   1.00
O626   O     0.46179   0.22775   0.75001   0.00000  Uiso   1.00
O627   O     0.53823   0.22774   0.75001   0.00000  Uiso   1.00
O628   O     0.44280   0.16666   0.82681   0.00000  Uiso   1.00
O629   O     0.51924   0.16665   0.82681   0.00000  Uiso   1.00
O630   O     0.46177   0.10559   0.75000   0.00000  Uiso   1.00
O631   O     0.53821   0.10558   0.75000   0.00000  Uiso   1.00
O632   O     0.48076   0.16668   0.67319   0.00000  Uiso   1.00
O633   O     0.55720   0.16667   0.67319   0.00000  Uiso   1.00
Zn634  Zn    0.44896   0.16667   0.75000   0.00000  Uiso   1.00
Zn635  Zn    0.55104   0.16666   0.75000   0.00000  Uiso   1.00
N636   N     0.37367   0.18720   0.91844   0.00000  Uiso   1.00
H637   H     0.34409   0.20257   0.94622   0.00000  Uiso   1.00
H638   H     0.36026   0.15955   0.90812   0.00000  Uiso   1.00
C639   C     0.83332   0.24671   0.75011   0.00000  Uiso   1.00
C640   C     0.81052   0.15841   0.99259   0.00000  Uiso   1.00
C641   C     0.82001   0.14708   0.93810   0.00000  Uiso   1.00
C642   C     0.84790   0.15389   0.51425   0.00000  Uiso   1.00
C643   C     0.89077   0.13185   0.98509   0.00000  Uiso   1.00
C644   C     0.89631   0.11524   0.93428   0.00000  Uiso   1.00
C645   C     0.86130   0.12255   0.91112   0.00000  Uiso   1.00
C646   C     0.84386   0.17125   0.56413   0.00000  Uiso   1.00
C647   C     0.91933   0.13982   0.56066   0.00000  Uiso   1.00
C648   C     0.78818   0.16094   0.91193   0.00000  Uiso   1.00
C649   C     0.86925   0.31206   0.76302   0.00000  Uiso   1.00
C650   C     0.80632   0.16457   0.85239   0.00000  Uiso   1.00
C651   C     0.86923   0.02136   0.76302   0.00000  Uiso   1.00
C652   C     0.83324   0.04249   0.75024   0.00000  Uiso   1.00
C653   C     0.79718   0.02129   0.73760   0.00000  Uiso   1.00
C654   C     0.79718   0.31200   0.73763   0.00000  Uiso   1.00
C655   C     0.83325   0.29086   0.75026   0.00000  Uiso   1.00
C656   C     0.98696   0.14209   0.71460   0.00000  Uiso   1.00
C657   C     0.70159   0.14207   0.71463   0.00000  Uiso   1.00
C658   C     0.67969   0.19121   0.78545   0.00000  Uiso   1.00
C659   C     0.96505   0.19121   0.78544   0.00000  Uiso   1.00
C660   C     0.83330   0.08662   0.75005   0.00000  Uiso   1.00
C661   C     0.86023   0.16663   0.64772   0.00000  Uiso   1.00
C662   C     0.92679   0.12586   0.50800   0.00000  Uiso   1.00
C663   C     0.87683   0.16141   0.58918   0.00000  Uiso   1.00
C664   C     0.74162   0.17598   0.94336   0.00000  Uiso   1.00
C665   C     0.72958   0.18050   0.99943   0.00000  Uiso   1.00
C666   C     0.76385   0.17315   0.52356   0.00000  Uiso   1.00
H667   H     0.94531   0.13204   0.57984   0.00000  Uiso   1.00
H668   H     0.89703   0.03766   0.77333   0.00000  Uiso   1.00
H669   H     0.76936   0.03753   0.72730   0.00000  Uiso   1.00
H670   H     0.76935   0.29572   0.72737   0.00000  Uiso   1.00
H671   H     0.97752   0.12247   0.68628   0.00000  Uiso   1.00
H672   H     0.72851   0.12240   0.68635   0.00000  Uiso   1.00
H673   H     0.68912   0.21084   0.81375   0.00000  Uiso   1.00
H674   H     0.93813   0.21087   0.81373   0.00000  Uiso   1.00
H675   H     0.92794   0.09698   0.91213   0.00000  Uiso   1.00
H676   H     0.95952   0.10880   0.98625   0.00000  Uiso   1.00
H677   H     0.81391   0.19123   0.58571   0.00000  Uiso   1.00
H678   H     0.75222   0.17779   0.56693   0.00000  Uiso   1.00
H679   H     0.69395   0.19119   0.52445   0.00000  Uiso   1.00
H680   H     0.86657   0.10813   0.87222   0.00000  Uiso   1.00
H681   H     0.89706   0.29581   0.77331   0.00000  Uiso   1.00
N682   N     0.71426   0.16668   0.75001   0.00000  Uiso   1.00
N683   N     0.95239   0.16665   0.75001   0.00000  Uiso   1.00
O684   O     0.79512   0.22775   0.75001   0.00000  Uiso   1.00
O685   O     0.87157   0.22774   0.75001   0.00000  Uiso   1.00
O686   O     0.77613   0.16666   0.82681   0.00000  Uiso   1.00
O687   O     0.85258   0.16665   0.82681   0.00000  Uiso   1.00
O688   O     0.79510   0.10559   0.75000   0.00000  Uiso   1.00
O689   O     0.87154   0.10558   0.75000   0.00000  Uiso   1.00
O690   O     0.81409   0.16668   0.67319   0.00000  Uiso   1.00
O691   O     0.89053   0.16667   0.67319   0.00000  Uiso   1.00
Zn692  Zn    0.78229   0.16667   0.75000   0.00000  Uiso   1.00
Zn693  Zn    0.88438   0.16666   0.75000   0.00000  Uiso   1.00
N694   N     0.70700   0.18720   0.91844   0.00000  Uiso   1.00
H695   H     0.67742   0.20257   0.94622   0.00000  Uiso   1.00
H696   H     0.69360   0.15955   0.90812   0.00000  Uiso   1.00
C697   C     0.16665   0.58005   0.75011   0.00000  Uiso   1.00
C698   C     0.14385   0.49174   0.99259   0.00000  Uiso   1.00
C699   C     0.15334   0.48041   0.93810   0.00000  Uiso   1.00
C700   C     0.18123   0.48723   0.51425   0.00000  Uiso   1.00
C701   C     0.22410   0.46518   0.98509   0.00000  Uiso   1.00
C702   C     0.22964   0.44857   0.93428   0.00000  Uiso   1.00
C703   C     0.19464   0.45588   0.91112   0.00000  Uiso   1.00
C704   C     0.17720   0.50458   0.56413   0.00000  Uiso   1.00
C705   C     0.25266   0.47315   0.56066   0.00000  Uiso   1.00
C706   C     0.12151   0.49427   0.91193   0.00000  Uiso   1.00
C707   C     0.20258   0.64539   0.76302   0.00000  Uiso   1.00
C708   C     0.13965   0.49791   0.85239   0.00000  Uiso   1.00
C709   C     0.20256   0.35469   0.76302   0.00000  Uiso   1.00
C710   C     0.16657   0.37582   0.75024   0.00000  Uiso   1.00
C711   C     0.13051   0.35462   0.73760   0.00000  Uiso   1.00
C712   C     0.13051   0.64533   0.73763   0.00000  Uiso   1.00
C713   C     0.16658   0.62419   0.75026   0.00000  Uiso   1.00
C714   C     0.32029   0.47542   0.71460   0.00000  Uiso   1.00
C715   C     0.03492   0.47541   0.71463   0.00000  Uiso   1.00
C716   C     0.01302   0.52454   0.78545   0.00000  Uiso   1.00
C717   C     0.29839   0.52454   0.78544   0.00000  Uiso   1.00
C718   C     0.16663   0.41995   0.75005   0.00000  Uiso   1.00
C719   C     0.19357   0.49996   0.64772   0.00000  Uiso   1.00
C720   C     0.26013   0.45919   0.50800   0.00000  Uiso   1.00
C721   C     0.21016   0.49475   0.58918   0.00000  Uiso   1.00
C722   C     0.07495   0.50931   0.94336   0.00000  Uiso   1.00
C723   C     0.06291   0.51383   0.99943   0.00000  Uiso   1.00
C724   C     0.09718   0.50648   0.52356   0.00000  Uiso   1.00
H725   H     0.27864   0.46538   0.57984   0.00000  Uiso   1.00
H726   H     0.23036   0.37099   0.77333   0.00000  Uiso   1.00
H727   H     0.10270   0.37086   0.72730   0.00000  Uiso   1.00
H728   H     0.10268   0.62905   0.72737   0.00000  Uiso   1.00
H729   H     0.31085   0.45580   0.68628   0.00000  Uiso   1.00
H730   H     0.06184   0.45573   0.68635   0.00000  Uiso   1.00
H731   H     0.02246   0.54417   0.81375   0.00000  Uiso   1.00
H732   H     0.27147   0.54420   0.81373   0.00000  Uiso   1.00
H733   H     0.26128   0.43032   0.91213   0.00000  Uiso   1.00
H734   H     0.29285   0.44213   0.98625   0.00000  Uiso   1.00
H735   H     0.14724   0.52456   0.58571   0.00000  Uiso   1.00
H736   H     0.08556   0.51113   0.56693   0.00000  Uiso   1.00
H737   H     0.02728   0.52452   0.52445   0.00000  Uiso   1.00
H738   H     0.19990   0.44146   0.87222   0.00000  Uiso   1.00
H739   H     0.23040   0.62914   0.77331   0.00000  Uiso   1.00
N740   N     0.04760   0.50001   0.75001   0.00000  Uiso   1.00
N741   N     0.28573   0.49998   0.75001   0.00000  Uiso   1.00
O742   O     0.12846   0.56108   0.75001   0.00000  Uiso   1.00
O743   O     0.20490   0.56107   0.75001   0.00000  Uiso   1.00
O744   O     0.10947   0.50000   0.82681   0.00000  Uiso   1.00
O745   O     0.18591   0.49999   0.82681   0.00000  Uiso   1.00
O746   O     0.12843   0.43893   0.75000   0.00000  Uiso   1.00
O747   O     0.20488   0.43892   0.75000   0.00000  Uiso   1.00
O748   O     0.14742   0.50001   0.67319   0.00000  Uiso   1.00
O749   O     0.22387   0.50000   0.67319   0.00000  Uiso   1.00
Zn750  Zn    0.11562   0.50001   0.75000   0.00000  Uiso   1.00
Zn751  Zn    0.21771   0.49999   0.75000   0.00000  Uiso   1.00
N752   N     0.04034   0.52053   0.91844   0.00000  Uiso   1.00
H753   H     0.01075   0.53591   0.94622   0.00000  Uiso   1.00
H754   H     0.02693   0.49288   0.90812   0.00000  Uiso   1.00
C755   C     0.49998   0.58005   0.75011   0.00000  Uiso   1.00
C756   C     0.47719   0.49174   0.99259   0.00000  Uiso   1.00
C757   C     0.48667   0.48041   0.93810   0.00000  Uiso   1.00
C758   C     0.51456   0.48723   0.51425   0.00000  Uiso   1.00
C759   C     0.55743   0.46518   0.98509   0.00000  Uiso   1.00
C760   C     0.56298   0.44857   0.93428   0.00000  Uiso   1.00
C761   C     0.52797   0.45588   0.91112   0.00000  Uiso   1.00
C762   C     0.51053   0.50458   0.56413   0.00000  Uiso   1.00
C763   C     0.58599   0.47315   0.56066   0.00000  Uiso   1.00
C764   C     0.45484   0.49427   0.91193   0.00000  Uiso   1.00
C765   C     0.53591   0.64539   0.76302   0.00000  Uiso   1.00
C766   C     0.47299   0.49791   0.85239   0.00000  Uiso   1.00
C767   C     0.53590   0.35469   0.76302   0.00000  Uiso   1.00
C768   C     0.49990   0.37582   0.75024   0.00000  Uiso   1.00
C769   C     0.46385   0.35462   0.73760   0.00000  Uiso   1.00
C770   C     0.46384   0.64533   0.73763   0.00000  Uiso   1.00
C771   C     0.49992   0.62419   0.75026   0.00000  Uiso   1.00
C772   C     0.65362   0.47542   0.71460   0.00000  Uiso   1.00
C773   C     0.36825   0.47541   0.71463   0.00000  Uiso   1.00
C774   C     0.34635   0.52454   0.78545   0.00000  Uiso   1.00
C775   C     0.63172   0.52454   0.78544   0.00000  Uiso   1.00
C776   C     0.49997   0.41995   0.75005   0.00000  Uiso   1.00
C777   C     0.52690   0.49996   0.64772   0.00000  Uiso   1.00
C778   C     0.59346   0.45919   0.50800   0.00000  Uiso   1.00
C779   C     0.54350   0.49475   0.58918   0.00000  Uiso   1.00
C780   C     0.40828   0.50931   0.94336   0.00000  Uiso   1.00
C781   C     0.39625   0.51383   0.99943   0.00000  Uiso   1.00
C782   C     0.43051   0.50648   0.52356   0.00000  Uiso   1.00
H783   H     0.61197   0.46538   0.57984   0.00000  Uiso   1.00
H784   H     0.56370   0.37099   0.77333   0.00000  Uiso   1.00
H785   H     0.43603   0.37086   0.72730   0.00000  Uiso   1.00
H786   H     0.43602   0.62905   0.72737   0.00000  Uiso   1.00
H787   H     0.64419   0.45580   0.68628   0.00000  Uiso   1.00
H788   H     0.39517   0.45573   0.68635   0.00000  Uiso   1.00
H789   H     0.35579   0.54417   0.81375   0.00000  Uiso   1.00
H790   H     0.60480   0.54420   0.81373   0.00000  Uiso   1.00
H791   H     0.59461   0.43032   0.91213   0.00000  Uiso   1.00
H792   H     0.62619   0.44213   0.98625   0.00000  Uiso   1.00
H793   H     0.48057   0.52456   0.58571   0.00000  Uiso   1.00
H794   H     0.41889   0.51113   0.56693   0.00000  Uiso   1.00
H795   H     0.36061   0.52452   0.52445   0.00000  Uiso   1.00
H796   H     0.53323   0.44146   0.87222   0.00000  Uiso   1.00
H797   H     0.56373   0.62914   0.77331   0.00000  Uiso   1.00
N798   N     0.38093   0.50001   0.75001   0.00000  Uiso   1.00
N799   N     0.61906   0.49998   0.75001   0.00000  Uiso   1.00
O800   O     0.46179   0.56108   0.75001   0.00000  Uiso   1.00
O801   O     0.53823   0.56107   0.75001   0.00000  Uiso   1.00
O802   O     0.44280   0.50000   0.82681   0.00000  Uiso   1.00
O803   O     0.51924   0.49999   0.82681   0.00000  Uiso   1.00
O804   O     0.46177   0.43893   0.75000   0.00000  Uiso   1.00
O805   O     0.53821   0.43892   0.75000   0.00000  Uiso   1.00
O806   O     0.48076   0.50001   0.67319   0.00000  Uiso   1.00
O807   O     0.55720   0.50000   0.67319   0.00000  Uiso   1.00
Zn808  Zn    0.44896   0.50001   0.75000   0.00000  Uiso   1.00
Zn809  Zn    0.55104   0.49999   0.75000   0.00000  Uiso   1.00
N810   N     0.37367   0.52053   0.91844   0.00000  Uiso   1.00
H811   H     0.34409   0.53591   0.94622   0.00000  Uiso   1.00
H812   H     0.36026   0.49288   0.90812   0.00000  Uiso   1.00
C813   C     0.83332   0.58005   0.75011   0.00000  Uiso   1.00
C814   C     0.81052   0.49174   0.99259   0.00000  Uiso   1.00
C815   C     0.82001   0.48041   0.93810   0.00000  Uiso   1.00
C816   C     0.84790   0.48723   0.51425   0.00000  Uiso   1.00
C817   C     0.89077   0.46518   0.98509   0.00000  Uiso   1.00
C818   C     0.89631   0.44857   0.93428   0.00000  Uiso   1.00
C819   C     0.86130   0.45588   0.91112   0.00000  Uiso   1.00
C820   C     0.84386   0.50458   0.56413   0.00000  Uiso   1.00
C821   C     0.91933   0.47315   0.56066   0.00000  Uiso   1.00
C822   C     0.78818   0.49427   0.91193   0.00000  Uiso   1.00
C823   C     0.86925   0.64539   0.76302   0.00000  Uiso   1.00
C824   C     0.80632   0.49791   0.85239   0.00000  Uiso   1.00
C825   C     0.86923   0.35469   0.76302   0.00000  Uiso   1.00
C826   C     0.83324   0.37582   0.75024   0.00000  Uiso   1.00
C827   C     0.79718   0.35462   0.73760   0.00000  Uiso   1.00
C828   C     0.79718   0.64533   0.73763   0.00000  Uiso   1.00
C829   C     0.83325   0.62419   0.75026   0.00000  Uiso   1.00
C830   C     0.98696   0.47542   0.71460   0.00000  Uiso   1.00
C831   C     0.70159   0.47541   0.71463   0.00000  Uiso   1.00
C832   C     0.67969   0.52454   0.78545   0.00000  Uiso   1.00
C833   C     0.96505   0.52454   0.78544   0.00000  Uiso   1.00
C834   C     0.83330   0.41995   0.75005   0.00000  Uiso   1.00
C835   C     0.86023   0.49996   0.64772   0.00000  Uiso   1.00
C836   C     0.92679   0.45919   0.50800   0.00000  Uiso   1.00
C837   C     0.87683   0.49475   0.58918   0.00000  Uiso   1.00
C838   C     0.74162   0.50931   0.94336   0.00000  Uiso   1.00
C839   C     0.72958   0.51383   0.99943   0.00000  Uiso   1.00
C840   C     0.76385   0.50648   0.52356   0.00000  Uiso   1.00
H841   H     0.94531   0.46538   0.57984   0.00000  Uiso   1.00
H842   H     0.89703   0.37099   0.77333   0.00000  Uiso   1.00
H843   H     0.76936   0.37086   0.72730   0.00000  Uiso   1.00
H844   H     0.76935   0.62905   0.72737   0.00000  Uiso   1.00
H845   H     0.97752   0.45580   0.68628   0.00000  Uiso   1.00
H846   H     0.72851   0.45573   0.68635   0.00000  Uiso   1.00
H847   H     0.68912   0.54417   0.81375   0.00000  Uiso   1.00
H848   H     0.93813   0.54420   0.81373   0.00000  Uiso   1.00
H849   H     0.92794   0.43032   0.91213   0.00000  Uiso   1.00
H850   H     0.95952   0.44213   0.98625   0.00000  Uiso   1.00
H851   H     0.81391   0.52456   0.58571   0.00000  Uiso   1.00
H852   H     0.75222   0.51113   0.56693   0.00000  Uiso   1.00
H853   H     0.69395   0.52452   0.52445   0.00000  Uiso   1.00
H854   H     0.86657   0.44146   0.87222   0.00000  Uiso   1.00
H855   H     0.89706   0.62914   0.77331   0.00000  Uiso   1.00
N856   N     0.71426   0.50001   0.75001   0.00000  Uiso   1.00
N857   N     0.95239   0.49998   0.75001   0.00000  Uiso   1.00
O858   O     0.79512   0.56108   0.75001   0.00000  Uiso   1.00
O859   O     0.87157   0.56107   0.75001   0.00000  Uiso   1.00
O860   O     0.77613   0.50000   0.82681   0.00000  Uiso   1.00
O861   O     0.85258   0.49999   0.82681   0.00000  Uiso   1.00
O862   O     0.79510   0.43893   0.75000   0.00000  Uiso   1.00
O863   O     0.87154   0.43892   0.75000   0.00000  Uiso   1.00
O864   O     0.81409   0.50001   0.67319   0.00000  Uiso   1.00
O865   O     0.89053   0.50000   0.67319   0.00000  Uiso   1.00
Zn866  Zn    0.78229   0.50001   0.75000   0.00000  Uiso   1.00
Zn867  Zn    0.88438   0.49999   0.75000   0.00000  Uiso   1.00
N868   N     0.70700   0.52053   0.91844   0.00000  Uiso   1.00
H869   H     0.67742   0.53591   0.94622   0.00000  Uiso   1.00
H870   H     0.69360   0.49288   0.90812   0.00000  Uiso   1.00
C871   C     0.16665   0.91338   0.75011   0.00000  Uiso   1.00
C872   C     0.14385   0.82507   0.99259   0.00000  Uiso   1.00
C873   C     0.15334   0.81375   0.93810   0.00000  Uiso   1.00
C874   C     0.18123   0.82056   0.51425   0.00000  Uiso   1.00
C875   C     0.22410   0.79851   0.98509   0.00000  Uiso   1.00
C876   C     0.22964   0.78191   0.93428   0.00000  Uiso   1.00
C877   C     0.19464   0.78921   0.91112   0.00000  Uiso   1.00
C878   C     0.17720   0.83791   0.56413   0.00000  Uiso   1.00
C879   C     0.25266   0.80649   0.56066   0.00000  Uiso   1.00
C880   C     0.12151   0.82760   0.91193   0.00000  Uiso   1.00
C881   C     0.20258   0.97872   0.76302   0.00000  Uiso   1.00
C882   C     0.13965   0.83124   0.85239   0.00000  Uiso   1.00
C883   C     0.20256   0.68802   0.76302   0.00000  Uiso   1.00
C884   C     0.16657   0.70915   0.75024   0.00000  Uiso   1.00
C885   C     0.13051   0.68796   0.73760   0.00000  Uiso   1.00
C886   C     0.13051   0.97866   0.73763   0.00000  Uiso   1.00
C887   C     0.16658   0.95753   0.75026   0.00000  Uiso   1.00
C888   C     0.32029   0.80875   0.71460   0.00000  Uiso   1.00
C889   C     0.03492   0.80874   0.71463   0.00000  Uiso   1.00
C890   C     0.01302   0.85787   0.78545   0.00000  Uiso   1.00
C891   C     0.29839   0.85787   0.78544   0.00000  Uiso   1.00
C892   C     0.16663   0.75329   0.75005   0.00000  Uiso   1.00
C893   C     0.19357   0.83330   0.64772   0.00000  Uiso   1.00
C894   C     0.26013   0.79252   0.50800   0.00000  Uiso   1.00
C895   C     0.21016   0.82808   0.58918   0.00000  Uiso   1.00
C896   C     0.07495   0.84265   0.94336   0.00000  Uiso   1.00
C897   C     0.06291   0.84716   0.99943   0.00000  Uiso   1.00
C898   C     0.09718   0.83982   0.52356   0.00000  Uiso   1.00
H899   H     0.27864   0.79871   0.57984   0.00000  Uiso   1.00
H900   H     0.23036   0.70432   0.77333   0.00000  Uiso   1.00
H901   H     0.10270   0.70419   0.72730   0.00000  Uiso   1.00
H902   H     0.10268   0.96238   0.72737   0.00000  Uiso   1.00
H903   H     0.31085   0.78914   0.68628   0.00000  Uiso   1.00
H904   H     0.06184   0.78906   0.68635   0.00000  Uiso   1.00
H905   H     0.02246   0.87751   0.81375   0.00000  Uiso   1.00
H906   H     0.27147   0.87754   0.81373   0.00000  Uiso   1.00
H907   H     0.26128   0.76365   0.91213   0.00000  Uiso   1.00
H908   H     0.29285   0.77546   0.98625   0.00000  Uiso   1.00
H909   H     0.14724   0.85790   0.58571   0.00000  Uiso   1.00
H910   H     0.08556   0.84446   0.56693   0.00000  Uiso   1.00
H911   H     0.02728   0.85786   0.52445   0.00000  Uiso   1.00
H912   H     0.19990   0.77479   0.87222   0.00000  Uiso   1.00
H913   H     0.23040   0.96247   0.77331   0.00000  Uiso   1.00
N914   N     0.04760   0.83334   0.75001   0.00000  Uiso   1.00
N915   N     0.28573   0.83331   0.75001   0.00000  Uiso   1.00
O916   O     0.12846   0.89442   0.75001   0.00000  Uiso   1.00
O917   O     0.20490   0.89441   0.75001   0.00000  Uiso   1.00
O918   O     0.10947   0.83333   0.82681   0.00000  Uiso   1.00
O919   O     0.18591   0.83332   0.82681   0.00000  Uiso   1.00
O920   O     0.12843   0.77226   0.75000   0.00000  Uiso   1.00
O921   O     0.20488   0.77225   0.75000   0.00000  Uiso   1.00
O922   O     0.14742   0.83335   0.67319   0.00000  Uiso   1.00
O923   O     0.22387   0.83334   0.67319   0.00000  Uiso   1.00
Zn924  Zn    0.11562   0.83334   0.75000   0.00000  Uiso   1.00
Zn925  Zn    0.21771   0.83333   0.75000   0.00000  Uiso   1.00
N926   N     0.04034   0.85387   0.91844   0.00000  Uiso   1.00
H927   H     0.01075   0.86924   0.94622   0.00000  Uiso   1.00
H928   H     0.02693   0.82622   0.90812   0.00000  Uiso   1.00
C929   C     0.49998   0.91338   0.75011   0.00000  Uiso   1.00
C930   C     0.47719   0.82507   0.99259   0.00000  Uiso   1.00
C931   C     0.48667   0.81375   0.93810   0.00000  Uiso   1.00
C932   C     0.51456   0.82056   0.51425   0.00000  Uiso   1.00
C933   C     0.55743   0.79851   0.98509   0.00000  Uiso   1.00
C934   C     0.56298   0.78191   0.93428   0.00000  Uiso   1.00
C935   C     0.52797   0.78921   0.91112   0.00000  Uiso   1.00
C936   C     0.51053   0.83791   0.56413   0.00000  Uiso   1.00
C937   C     0.58599   0.80649   0.56066   0.00000  Uiso   1.00
C938   C     0.45484   0.82760   0.91193   0.00000  Uiso   1.00
C939   C     0.53591   0.97872   0.76302   0.00000  Uiso   1.00
C940   C     0.47299   0.83124   0.85239   0.00000  Uiso   1.00
C941   C     0.53590   0.68802   0.76302   0.00000  Uiso   1.00
C942   C     0.49990   0.70915   0.75024   0.00000  Uiso   1.00
C943   C     0.46385   0.68796   0.73760   0.00000  Uiso   1.00
C944   C     0.46384   0.97866   0.73763   0.00000  Uiso   1.00
C945   C     0.49992   0.95753   0.75026   0.00000  Uiso   1.00
C946   C     0.65362   0.80875   0.71460   0.00000  Uiso   1.00
C947   C     0.36825   0.80874   0.71463   0.00000  Uiso   1.00
C948   C     0.34635   0.85787   0.78545   0.00000  Uiso   1.00
C949   C     0.63172   0.85787   0.78544   0.00000  Uiso   1.00
C950   C     0.49997   0.75329   0.75005   0.00000  Uiso   1.00
C951   C     0.52690   0.83330   0.64772   0.00000  Uiso   1.00
C952   C     0.59346   0.79252   0.50800   0.00000  Uiso   1.00
C953   C     0.54350   0.82808   0.58918   0.00000  Uiso   1.00
C954   C     0.40828   0.84265   0.94336   0.00000  Uiso   1.00
C955   C     0.39625   0.84716   0.99943   0.00000  Uiso   1.00
C956   C     0.43051   0.83982   0.52356   0.00000  Uiso   1.00
H957   H     0.61197   0.79871   0.57984   0.00000  Uiso   1.00
H958   H     0.56370   0.70432   0.77333   0.00000  Uiso   1.00
H959   H     0.43603   0.70419   0.72730   0.00000  Uiso   1.00
H960   H     0.43602   0.96238   0.72737   0.00000  Uiso   1.00
H961   H     0.64419   0.78914   0.68628   0.00000  Uiso   1.00
H962   H     0.39517   0.78906   0.68635   0.00000  Uiso   1.00
H963   H     0.35579   0.87751   0.81375   0.00000  Uiso   1.00
H964   H     0.60480   0.87754   0.81373   0.00000  Uiso   1.00
H965   H     0.59461   0.76365   0.91213   0.00000  Uiso   1.00
H966   H     0.62619   0.77546   0.98625   0.00000  Uiso   1.00
H967   H     0.48057   0.85790   0.58571   0.00000  Uiso   1.00
H968   H     0.41889   0.84446   0.56693   0.00000  Uiso   1.00
H969   H     0.36061   0.85786   0.52445   0.00000  Uiso   1.00
H970   H     0.53323   0.77479   0.87222   0.00000  Uiso   1.00
H971   H     0.56373   0.96247   0.77331   0.00000  Uiso   1.00
N972   N     0.38093   0.83334   0.75001   0.00000  Uiso   1.00
N973   N     0.61906   0.83331   0.75001   0.00000  Uiso   1.00
O974   O     0.46179   0.89442   0.75001   0.00000  Uiso   1.00
O975   O     0.53823   0.89441   0.75001   0.00000  Uiso   1.00
O976   O     0.44280   0.83333   0.82681   0.00000  Uiso   1.00
O977   O     0.51924   0.83332   0.82681   0.00000  Uiso   1.00
O978   O     0.46177   0.77226   0.75000   0.00000  Uiso   1.00
O979   O     0.53821   0.77225   0.75000   0.00000  Uiso   1.00
O980   O     0.48076   0.83335   0.67319   0.00000  Uiso   1.00
O981   O     0.55720   0.83334   0.67319   0.00000  Uiso   1.00
Zn982  Zn    0.44896   0.83334   0.75000   0.00000  Uiso   1.00
Zn983  Zn    0.55104   0.83333   0.75000   0.00000  Uiso   1.00
N984   N     0.37367   0.85387   0.91844   0.00000  Uiso   1.00
H985   H     0.34409   0.86924   0.94622   0.00000  Uiso   1.00
H986   H     0.36026   0.82622   0.90812   0.00000  Uiso   1.00
C987   C     0.83332   0.91338   0.75011   0.00000  Uiso   1.00
C988   C     0.81052   0.82507   0.99259   0.00000  Uiso   1.00
C989   C     0.82001   0.81375   0.93810   0.00000  Uiso   1.00
C990   C     0.84790   0.82056   0.51425   0.00000  Uiso   1.00
C991   C     0.89077   0.79851   0.98509   0.00000  Uiso   1.00
C992   C     0.89631   0.78191   0.93428   0.00000  Uiso   1.00
C993   C     0.86130   0.78921   0.91112   0.00000  Uiso   1.00
C994   C     0.84386   0.83791   0.56413   0.00000  Uiso   1.00
C995   C     0.91933   0.80649   0.56066   0.00000  Uiso   1.00
C996   C     0.78818   0.82760   0.91193   0.00000  Uiso   1.00
C997   C     0.86925   0.97872   0.76302   0.00000  Uiso   1.00
C998   C     0.80632   0.83124   0.85239   0.00000  Uiso   1.00
C999   C     0.86923   0.68802   0.76302   0.00000  Uiso   1.00
C1000  C     0.83324   0.70915   0.75024   0.00000  Uiso   1.00
C1001  C     0.79718   0.68796   0.73760   0.00000  Uiso   1.00
C1002  C     0.79718   0.97866   0.73763   0.00000  Uiso   1.00
C1003  C     0.83325   0.95753   0.75026   0.00000  Uiso   1.00
C1004  C     0.98696   0.80875   0.71460   0.00000  Uiso   1.00
C1005  C     0.70159   0.80874   0.71463   0.00000  Uiso   1.00
C1006  C     0.67969   0.85787   0.78545   0.00000  Uiso   1.00
C1007  C     0.96505   0.85787   0.78544   0.00000  Uiso   1.00
C1008  C     0.83330   0.75329   0.75005   0.00000  Uiso   1.00
C1009  C     0.86023   0.83330   0.64772   0.00000  Uiso   1.00
C1010  C     0.92679   0.79252   0.50800   0.00000  Uiso   1.00
C1011  C     0.87683   0.82808   0.58918   0.00000  Uiso   1.00
C1012  C     0.74162   0.84265   0.94336   0.00000  Uiso   1.00
C1013  C     0.72958   0.84716   0.99943   0.00000  Uiso   1.00
C1014  C     0.76385   0.83982   0.52356   0.00000  Uiso   1.00
H1015  H     0.94531   0.79871   0.57984   0.00000  Uiso   1.00
H1016  H     0.89703   0.70432   0.77333   0.00000  Uiso   1.00
H1017  H     0.76936   0.70419   0.72730   0.00000  Uiso   1.00
H1018  H     0.76935   0.96238   0.72737   0.00000  Uiso   1.00
H1019  H     0.97752   0.78914   0.68628   0.00000  Uiso   1.00
H1020  H     0.72851   0.78906   0.68635   0.00000  Uiso   1.00
H1021  H     0.68912   0.87751   0.81375   0.00000  Uiso   1.00
H1022  H     0.93813   0.87754   0.81373   0.00000  Uiso   1.00
H1023  H     0.92794   0.76365   0.91213   0.00000  Uiso   1.00
H1024  H     0.95952   0.77546   0.98625   0.00000  Uiso   1.00
H1025  H     0.81391   0.85790   0.58571   0.00000  Uiso   1.00
H1026  H     0.75222   0.84446   0.56693   0.00000  Uiso   1.00
H1027  H     0.69395   0.85786   0.52445   0.00000  Uiso   1.00
H1028  H     0.86657   0.77479   0.87222   0.00000  Uiso   1.00
H1029  H     0.89706   0.96247   0.77331   0.00000  Uiso   1.00
N1030  N     0.71426   0.83334   0.75001   0.00000  Uiso   1.00
N1031  N     0.95239   0.83331   0.75001   0.00000  Uiso   1.00
O1032  O     0.79512   0.89442   0.75001   0.00000  Uiso   1.00
O1033  O     0.87157   0.89441   0.75001   0.00000  Uiso   1.00
O1034  O     0.77613   0.83333   0.82681   0.00000  Uiso   1.00
O1035  O     0.85258   0.83332   0.82681   0.00000  Uiso   1.00
O1036  O     0.79510   0.77226   0.75000   0.00000  Uiso   1.00
O1037  O     0.87154   0.77225   0.75000   0.00000  Uiso   1.00
O1038  O     0.81409   0.83335   0.67319   0.00000  Uiso   1.00
O1039  O     0.89053   0.83334   0.67319   0.00000  Uiso   1.00
Zn1040 Zn    0.78229   0.83334   0.75000   0.00000  Uiso   1.00
Zn1041 Zn    0.88438   0.83333   0.75000   0.00000  Uiso   1.00
N1042  N     0.70700   0.85387   0.91844   0.00000  Uiso   1.00
H1043  H     0.67742   0.86924   0.94622   0.00000  Uiso   1.00
H1044  H     0.69360   0.82622   0.90812   0.00000  Uiso   1.00
loop_
_geom_bond_atom_site_label_1
_geom_bond_atom_site_label_2
_geom_bond_distance
_geom_bond_site_symmetry_2
_ccdc_geom_bond_type
C1     C17     1.419   .     S
C1     O47     1.282   .     A
C1     O46     1.282   .     A
C2     C3      1.406   .     A
C2     C526    1.414   .     S
C2     C550    1.415   .     S
C3     C7      1.416   .     A
C3     C10     1.416   .     A
C4     C8      1.389   .     A
C4     C524    1.414   1_554 S
C4     C527    1.419   1_554 S
C5     C6      1.392   .     A
C5     C526    1.419   .     S
C5     C546    1.405   .     S
C6     C7      1.389   .     A
C6     H37     1.084   .     S
C7     H42     1.082   .     S
C8     H39     1.079   .     S
C8     C25     1.387   .     A
C9     C24     1.396   .     A
C9     H29     1.083   .     S
C9     C25     1.400   .     A
C10    C12     1.471   .     S
C10    C26     1.418   .     A
C11    H43     1.084   .     S
C11    C17     1.397   .     A
C11    C187    1.370   .     S
C12    O48     1.291   .     A
C12    O49     1.296   .     A
C13    C14     1.397   .     A
C13    H30     1.084   .     S
C13    C359    1.370   1_545 S
C14    C22     1.419   .     S
C14    C15     1.397   .     A
C15    H31     1.084   .     S
C15    C364    1.370   1_545 S
C16    H32     1.084   .     S
C16    C17     1.397   .     A
C16    C189    1.370   .     S
C18    H33     1.082   .     S
C18    N45     1.366   .     A
C18    C77     1.416   .     S
C19    N44     1.367   .     A
C19    H34     1.082   .     S
C19    C134    1.416   1_455 S
C20    N44     1.366   .     A
C20    H35     1.082   .     S
C20    C137    1.416   1_455 S
C21    H36     1.082   .     S
C21    N45     1.367   .     A
C21    C78     1.416   .     S
C22    O51     1.282   .     A
C22    O50     1.282   .     A
C23    O52     1.291   .     A
C23    O53     1.290   .     A
C23    C25     1.451   .     S
C24    C527    1.405   1_554 S
C24    H560    1.084   1_554 S
C26    C27     1.397   .     A
C26    N56     1.438   .     S
C27    C550    1.388   .     S
C27    H563    1.083   .     S
C28    H40     1.079   .     S
C28    C549    1.388   1_554 S
C28    C524    1.415   1_554 S
H38    C546    1.084   .     S
H41    C549    1.083   1_554 S
N44    Zn54    2.007   .     S
N45    Zn55    2.007   .     S
O46    Zn54    1.999   .     S
O47    Zn55    1.999   .     S
O48    Zn54    1.961   .     S
O49    Zn55    1.906   .     S
O50    Zn54    1.999   .     S
O51    Zn55    1.999   .     S
O52    Zn54    1.906   .     S
O53    Zn55    1.961   .     S
N56    H57     1.046   .     S
N56    H58     1.046   .     S
C59    C75     1.419   .     S
C59    O105    1.282   .     A
C59    O104    1.282   .     A
C60    C61     1.406   .     A
C60    C584    1.414   .     S
C60    C608    1.415   .     S
C61    C65     1.416   .     A
C61    C68     1.416   .     A
C62    C66     1.389   .     A
C62    C582    1.414   1_554 S
C62    C585    1.419   1_554 S
C63    C64     1.392   .     A
C63    C584    1.419   .     S
C63    C604    1.405   .     S
C64    C65     1.389   .     A
C64    H95     1.084   .     S
C65    H100    1.082   .     S
C66    H97     1.079   .     S
C66    C83     1.387   .     A
C67    C82     1.396   .     A
C67    H87     1.083   .     S
C67    C83     1.400   .     A
C68    C70     1.471   .     S
C68    C84     1.418   .     A
C69    H101    1.084   .     S
C69    C75     1.397   .     A
C69    C245    1.370   .     S
C70    O106    1.291   .     A
C70    O107    1.296   .     A
C71    C72     1.397   .     A
C71    H88     1.084   .     S
C71    C417    1.370   1_545 S
C72    C80     1.419   .     S
C72    C73     1.397   .     A
C73    H89     1.084   .     S
C73    C422    1.370   1_545 S
C74    H90     1.084   .     S
C74    C75     1.397   .     A
C74    C247    1.370   .     S
C76    H91     1.082   .     S
C76    N103    1.366   .     A
C76    C135    1.416   .     S
C77    N102    1.367   .     A
C77    H92     1.082   .     S
C78    N102    1.366   .     A
C78    H93     1.082   .     S
C79    H94     1.082   .     S
C79    N103    1.367   .     A
C79    C136    1.416   .     S
C80    O109    1.282   .     A
C80    O108    1.282   .     A
C81    O110    1.291   .     A
C81    O111    1.290   .     A
C81    C83     1.451   .     S
C82    C585    1.405   1_554 S
C82    H618    1.084   1_554 S
C84    C85     1.397   .     A
C84    N114    1.438   .     S
C85    C608    1.388   .     S
C85    H621    1.083   .     S
C86    H98     1.079   .     S
C86    C607    1.388   1_554 S
C86    C582    1.415   1_554 S
H96    C604    1.084   .     S
H99    C607    1.083   1_554 S
N102   Zn112   2.007   .     S
N103   Zn113   2.007   .     S
O104   Zn112   1.999   .     S
O105   Zn113   1.999   .     S
O106   Zn112   1.961   .     S
O107   Zn113   1.906   .     S
O108   Zn112   1.999   .     S
O109   Zn113   1.999   .     S
O110   Zn112   1.906   .     S
O111   Zn113   1.961   .     S
N114   H115    1.046   .     S
N114   H116    1.046   .     S
C117   C133    1.419   .     S
C117   O163    1.282   .     A
C117   O162    1.282   .     A
C118   C119    1.406   .     A
C118   C642    1.414   .     S
C118   C666    1.415   .     S
C119   C123    1.416   .     A
C119   C126    1.416   .     A
C120   C124    1.389   .     A
C120   C640    1.414   1_554 S
C120   C643    1.419   1_554 S
C121   C122    1.392   .     A
C121   C642    1.419   .     S
C121   C662    1.405   .     S
C122   C123    1.389   .     A
C122   H153    1.084   .     S
C123   H158    1.082   .     S
C124   H155    1.079   .     S
C124   C141    1.387   .     A
C125   C140    1.396   .     A
C125   H145    1.083   .     S
C125   C141    1.400   .     A
C126   C128    1.471   .     S
C126   C142    1.418   .     A
C127   H159    1.084   .     S
C127   C133    1.397   .     A
C127   C303    1.370   .     S
C128   O164    1.291   .     A
C128   O165    1.296   .     A
C129   C130    1.397   .     A
C129   H146    1.084   .     S
C129   C475    1.370   1_545 S
C130   C138    1.419   .     S
C130   C131    1.397   .     A
C131   H147    1.084   .     S
C131   C480    1.370   1_545 S
C132   H148    1.084   .     S
C132   C133    1.397   .     A
C132   C305    1.370   .     S
C134   H149    1.082   .     S
C134   N161    1.366   .     A
C134   C19     1.416   1_655 S
C135   N160    1.367   .     A
C135   H150    1.082   .     S
C136   N160    1.366   .     A
C136   H151    1.082   .     S
C137   H152    1.082   .     S
C137   N161    1.367   .     A
C137   C20     1.416   1_655 S
C138   O167    1.282   .     A
C138   O166    1.282   .     A
C139   O168    1.291   .     A
C139   O169    1.290   .     A
C139   C141    1.451   .     S
C140   C643    1.405   1_554 S
C140   H676    1.084   1_554 S
C142   C143    1.397   .     A
C142   N172    1.438   .     S
C143   C666    1.388   .     S
C143   H679    1.083   .     S
C144   H156    1.079   .     S
C144   C665    1.388   1_554 S
C144   C640    1.415   1_554 S
H154   C662    1.084   .     S
H157   C665    1.083   1_554 S
N160   Zn170   2.007   .     S
N161   Zn171   2.007   .     S
O162   Zn170   1.999   .     S
O163   Zn171   1.999   .     S
O164   Zn170   1.961   .     S
O165   Zn171   1.906   .     S
O166   Zn170   1.999   .     S
O167   Zn171   1.999   .     S
O168   Zn170   1.906   .     S
O169   Zn171   1.961   .     S
N172   H173    1.046   .     S
N172   H174    1.046   .     S
C175   C191    1.419   .     S
C175   O221    1.282   .     A
C175   O220    1.282   .     A
C176   C177    1.406   .     A
C176   C700    1.414   .     S
C176   C724    1.415   .     S
C177   C181    1.416   .     A
C177   C184    1.416   .     A
C178   C182    1.389   .     A
C178   C698    1.414   1_554 S
C178   C701    1.419   1_554 S
C179   C180    1.392   .     A
C179   C700    1.419   .     S
C179   C720    1.405   .     S
C180   C181    1.389   .     A
C180   H211    1.084   .     S
C181   H216    1.082   .     S
C182   H213    1.079   .     S
C182   C199    1.387   .     A
C183   C198    1.396   .     A
C183   H203    1.083   .     S
C183   C199    1.400   .     A
C184   C186    1.471   .     S
C184   C200    1.418   .     A
C185   H217    1.084   .     S
C185   C191    1.397   .     A
C185   C361    1.370   .     S
C186   O222    1.291   .     A
C186   O223    1.296   .     A
C187   C188    1.397   .     A
C187   H204    1.084   .     S
C188   C196    1.419   .     S
C188   C189    1.397   .     A
C189   H205    1.084   .     S
C190   H206    1.084   .     S
C190   C191    1.397   .     A
C190   C363    1.370   .     S
C192   H207    1.082   .     S
C192   N219    1.366   .     A
C192   C251    1.416   .     S
C193   N218    1.367   .     A
C193   H208    1.082   .     S
C193   C308    1.416   1_455 S
C194   N218    1.366   .     A
C194   H209    1.082   .     S
C194   C311    1.416   1_455 S
C195   H210    1.082   .     S
C195   N219    1.367   .     A
C195   C252    1.416   .     S
C196   O225    1.282   .     A
C196   O224    1.282   .     A
C197   O226    1.291   .     A
C197   O227    1.290   .     A
C197   C199    1.451   .     S
C198   C701    1.405   1_554 S
C198   H734    1.084   1_554 S
C200   C201    1.397   .     A
C200   N230    1.438   .     S
C201   C724    1.388   .     S
C201   H737    1.083   .     S
C202   H214    1.079   .     S
C202   C723    1.388   1_554 S
C202   C698    1.415   1_554 S
H212   C720    1.084   .     S
H215   C723    1.083   1_554 S
N218   Zn228   2.007   .     S
N219   Zn229   2.007   .     S
O220   Zn228   1.999   .     S
O221   Zn229   1.999   .     S
O222   Zn228   1.961   .     S
O223   Zn229   1.906   .     S
O224   Zn228   1.999   .     S
O225   Zn229   1.999   .     S
O226   Zn228   1.906   .     S
O227   Zn229   1.961   .     S
N230   H231    1.046   .     S
N230   H232    1.046   .     S
C233   C249    1.419   .     S
C233   O279    1.282   .     A
C233   O278    1.282   .     A
C234   C235    1.406   .     A
C234   C758    1.414   .     S
C234   C782    1.415   .     S
C235   C239    1.416   .     A
C235   C242    1.416   .     A
C236   C240    1.389   .     A
C236   C756    1.414   1_554 S
C236   C759    1.419   1_554 S
C237   C238    1.392   .     A
C237   C758    1.419   .     S
C237   C778    1.405   .     S
C238   C239    1.389   .     A
C238   H269    1.084   .     S
C239   H274    1.082   .     S
C240   H271    1.079   .     S
C240   C257    1.387   .     A
C241   C256    1.396   .     A
C241   H261    1.083   .     S
C241   C257    1.400   .     A
C242   C244    1.471   .     S
C242   C258    1.418   .     A
C243   H275    1.084   .     S
C243   C249    1.397   .     A
C243   C419    1.370   .     S
C244   O280    1.291   .     A
C244   O281    1.296   .     A
C245   C246    1.397   .     A
C245   H262    1.084   .     S
C246   C254    1.419   .     S
C246   C247    1.397   .     A
C247   H263    1.084   .     S
C248   H264    1.084   .     S
C248   C249    1.397   .     A
C248   C421    1.370   .     S
C250   H265    1.082   .     S
C250   N277    1.366   .     A
C250   C309    1.416   .     S
C251   N276    1.367   .     A
C251   H266    1.082   .     S
C252   N276    1.366   .     A
C252   H267    1.082   .     S
C253   H268    1.082   .     S
C253   N277    1.367   .     A
C253   C310    1.416   .     S
C254   O283    1.282   .     A
C254   O282    1.282   .     A
C255   O284    1.291   .     A
C255   O285    1.290   .     A
C255   C257    1.451   .     S
C256   C759    1.405   1_554 S
C256   H792    1.084   1_554 S
C258   C259    1.397   .     A
C258   N288    1.438   .     S
C259   C782    1.388   .     S
C259   H795    1.083   .     S
C260   H272    1.079   .     S
C260   C781    1.388   1_554 S
C260   C756    1.415   1_554 S
H270   C778    1.084   .     S
H273   C781    1.083   1_554 S
N276   Zn286   2.007   .     S
N277   Zn287   2.007   .     S
O278   Zn286   1.999   .     S
O279   Zn287   1.999   .     S
O280   Zn286   1.961   .     S
O281   Zn287   1.906   .     S
O282   Zn286   1.999   .     S
O283   Zn287   1.999   .     S
O284   Zn286   1.906   .     S
O285   Zn287   1.961   .     S
N288   H289    1.046   .     S
N288   H290    1.046   .     S
C291   C307    1.419   .     S
C291   O337    1.282   .     A
C291   O336    1.282   .     A
C292   C293    1.406   .     A
C292   C816    1.414   .     S
C292   C840    1.415   .     S
C293   C297    1.416   .     A
C293   C300    1.416   .     A
C294   C298    1.389   .     A
C294   C814    1.414   1_554 S
C294   C817    1.419   1_554 S
C295   C296    1.392   .     A
C295   C816    1.419   .     S
C295   C836    1.405   .     S
C296   C297    1.389   .     A
C296   H327    1.084   .     S
C297   H332    1.082   .     S
C298   H329    1.079   .     S
C298   C315    1.387   .     A
C299   C314    1.396   .     A
C299   H319    1.083   .     S
C299   C315    1.400   .     A
C300   C302    1.471   .     S
C300   C316    1.418   .     A
C301   H333    1.084   .     S
C301   C307    1.397   .     A
C301   C477    1.370   .     S
C302   O338    1.291   .     A
C302   O339    1.296   .     A
C303   C304    1.397   .     A
C303   H320    1.084   .     S
C304   C312    1.419   .     S
C304   C305    1.397   .     A
C305   H321    1.084   .     S
C306   H322    1.084   .     S
C306   C307    1.397   .     A
C306   C479    1.370   .     S
C308   H323    1.082   .     S
C308   N335    1.366   .     A
C308   C193    1.416   1_655 S
C309   N334    1.367   .     A
C309   H324    1.082   .     S
C310   N334    1.366   .     A
C310   H325    1.082   .     S
C311   H326    1.082   .     S
C311   N335    1.367   .     A
C311   C194    1.416   1_655 S
C312   O341    1.282   .     A
C312   O340    1.282   .     A
C313   O342    1.291   .     A
C313   O343    1.290   .     A
C313   C315    1.451   .     S
C314   C817    1.405   1_554 S
C314   H850    1.084   1_554 S
C316   C317    1.397   .     A
C316   N346    1.438   .     S
C317   C840    1.388   .     S
C317   H853    1.083   .     S
C318   H330    1.079   .     S
C318   C839    1.388   1_554 S
C318   C814    1.415   1_554 S
H328   C836    1.084   .     S
H331   C839    1.083   1_554 S
N334   Zn344   2.007   .     S
N335   Zn345   2.007   .     S
O336   Zn344   1.999   .     S
O337   Zn345   1.999   .     S
O338   Zn344   1.961   .     S
O339   Zn345   1.906   .     S
O340   Zn344   1.999   .     S
O341   Zn345   1.999   .     S
O342   Zn344   1.906   .     S
O343   Zn345   1.961   .     S
N346   H347    1.046   .     S
N346   H348    1.046   .     S
C349   C365    1.419   .     S
C349   O395    1.282   .     A
C349   O394    1.282   .     A
C350   C351    1.406   .     A
C350   C874    1.414   .     S
C350   C898    1.415   .     S
C351   C355    1.416   .     A
C351   C358    1.416   .     A
C352   C356    1.389   .     A
C352   C872    1.414   1_554 S
C352   C875    1.419   1_554 S
C353   C354    1.392   .     A
C353   C874    1.419   .     S
C353   C894    1.405   .     S
C354   C355    1.389   .     A
C354   H385    1.084   .     S
C355   H390    1.082   .     S
C356   H387    1.079   .     S
C356   C373    1.387   .     A
C357   C372    1.396   .     A
C357   H377    1.083   .     S
C357   C373    1.400   .     A
C358   C360    1.471   .     S
C358   C374    1.418   .     A
C359   H391    1.084   .     S
C359   C365    1.397   .     A
C359   C13     1.370   1_565 S
C360   O396    1.291   .     A
C360   O397    1.296   .     A
C361   C362    1.397   .     A
C361   H378    1.084   .     S
C362   C370    1.419   .     S
C362   C363    1.397   .     A
C363   H379    1.084   .     S
C364   H380    1.084   .     S
C364   C365    1.397   .     A
C364   C15     1.370   1_565 S
C366   H381    1.082   .     S
C366   N393    1.366   .     A
C366   C425    1.416   .     S
C367   N392    1.367   .     A
C367   H382    1.082   .     S
C367   C482    1.416   1_455 S
C368   N392    1.366   .     A
C368   H383    1.082   .     S
C368   C485    1.416   1_455 S
C369   H384    1.082   .     S
C369   N393    1.367   .     A
C369   C426    1.416   .     S
C370   O399    1.282   .     A
C370   O398    1.282   .     A
C371   O400    1.291   .     A
C371   O401    1.290   .     A
C371   C373    1.451   .     S
C372   C875    1.405   1_554 S
C372   H908    1.084   1_554 S
C374   C375    1.397   .     A
C374   N404    1.438   .     S
C375   C898    1.388   .     S
C375   H911    1.083   .     S
C376   H388    1.079   .     S
C376   C897    1.388   1_554 S
C376   C872    1.415   1_554 S
H386   C894    1.084   .     S
H389   C897    1.083   1_554 S
N392   Zn402   2.007   .     S
N393   Zn403   2.007   .     S
O394   Zn402   1.999   .     S
O395   Zn403   1.999   .     S
O396   Zn402   1.961   .     S
O397   Zn403   1.906   .     S
O398   Zn402   1.999   .     S
O399   Zn403   1.999   .     S
O400   Zn402   1.906   .     S
O401   Zn403   1.961   .     S
N404   H405    1.046   .     S
N404   H406    1.046   .     S
C407   C423    1.419   .     S
C407   O453    1.282   .     A
C407   O452    1.282   .     A
C408   C409    1.406   .     A
C408   C932    1.414   .     S
C408   C956    1.415   .     S
C409   C413    1.416   .     A
C409   C416    1.416   .     A
C410   C414    1.389   .     A
C410   C930    1.414   1_554 S
C410   C933    1.419   1_554 S
C411   C412    1.392   .     A
C411   C932    1.419   .     S
C411   C952    1.405   .     S
C412   C413    1.389   .     A
C412   H443    1.084   .     S
C413   H448    1.082   .     S
C414   H445    1.079   .     S
C414   C431    1.387   .     A
C415   C430    1.396   .     A
C415   H435    1.083   .     S
C415   C431    1.400   .     A
C416   C418    1.471   .     S
C416   C432    1.418   .     A
C417   H449    1.084   .     S
C417   C423    1.397   .     A
C417   C71     1.370   1_565 S
C418   O454    1.291   .     A
C418   O455    1.296   .     A
C419   C420    1.397   .     A
C419   H436    1.084   .     S
C420   C428    1.419   .     S
C420   C421    1.397   .     A
C421   H437    1.084   .     S
C422   H438    1.084   .     S
C422   C423    1.397   .     A
C422   C73     1.370   1_565 S
C424   H439    1.082   .     S
C424   N451    1.366   .     A
C424   C483    1.416   .     S
C425   N450    1.367   .     A
C425   H440    1.082   .     S
C426   N450    1.366   .     A
C426   H441    1.082   .     S
C427   H442    1.082   .     S
C427   N451    1.367   .     A
C427   C484    1.416   .     S
C428   O457    1.282   .     A
C428   O456    1.282   .     A
C429   O458    1.291   .     A
C429   O459    1.290   .     A
C429   C431    1.451   .     S
C430   C933    1.405   1_554 S
C430   H966    1.084   1_554 S
C432   C433    1.397   .     A
C432   N462    1.438   .     S
C433   C956    1.388   .     S
C433   H969    1.083   .     S
C434   H446    1.079   .     S
C434   C955    1.388   1_554 S
C434   C930    1.415   1_554 S
H444   C952    1.084   .     S
H447   C955    1.083   1_554 S
N450   Zn460   2.007   .     S
N451   Zn461   2.007   .     S
O452   Zn460   1.999   .     S
O453   Zn461   1.999   .     S
O454   Zn460   1.961   .     S
O455   Zn461   1.906   .     S
O456   Zn460   1.999   .     S
O457   Zn461   1.999   .     S
O458   Zn460   1.906   .     S
O459   Zn461   1.961   .     S
N462   H463    1.046   .     S
N462   H464    1.046   .     S
C465   C481    1.419   .     S
C465   O511    1.282   .     A
C465   O510    1.282   .     A
C466   C467    1.406   .     A
C466   C990    1.414   .     S
C466   C1014   1.415   .     S
C467   C471    1.416   .     A
C467   C474    1.416   .     A
C468   C472    1.389   .     A
C468   C988    1.414   1_554 S
C468   C991    1.419   1_554 S
C469   C470    1.392   .     A
C469   C990    1.419   .     S
C469   C1010   1.405   .     S
C470   C471    1.389   .     A
C470   H501    1.084   .     S
C471   H506    1.082   .     S
C472   H503    1.079   .     S
C472   C489    1.387   .     A
C473   C488    1.396   .     A
C473   H493    1.083   .     S
C473   C489    1.400   .     A
C474   C476    1.471   .     S
C474   C490    1.418   .     A
C475   H507    1.084   .     S
C475   C481    1.397   .     A
C475   C129    1.370   1_565 S
C476   O512    1.291   .     A
C476   O513    1.296   .     A
C477   C478    1.397   .     A
C477   H494    1.084   .     S
C478   C486    1.419   .     S
C478   C479    1.397   .     A
C479   H495    1.084   .     S
C480   H496    1.084   .     S
C480   C481    1.397   .     A
C480   C131    1.370   1_565 S
C482   H497    1.082   .     S
C482   N509    1.366   .     A
C482   C367    1.416   1_655 S
C483   N508    1.367   .     A
C483   H498    1.082   .     S
C484   N508    1.366   .     A
C484   H499    1.082   .     S
C485   H500    1.082   .     S
C485   N509    1.367   .     A
C485   C368    1.416   1_655 S
C486   O515    1.282   .     A
C486   O514    1.282   .     A
C487   O516    1.291   .     A
C487   O517    1.290   .     A
C487   C489    1.451   .     S
C488   C991    1.405   1_554 S
C488   H1024   1.084   1_554 S
C490   C491    1.397   .     A
C490   N520    1.438   .     S
C491   C1014   1.388   .     S
C491   H1027   1.083   .     S
C492   H504    1.079   .     S
C492   C1013   1.388   1_554 S
C492   C988    1.415   1_554 S
H502   C1010   1.084   .     S
H505   C1013   1.083   1_554 S
N508   Zn518   2.007   .     S
N509   Zn519   2.007   .     S
O510   Zn518   1.999   .     S
O511   Zn519   1.999   .     S
O512   Zn518   1.961   .     S
O513   Zn519   1.906   .     S
O514   Zn518   1.999   .     S
O515   Zn519   1.999   .     S
O516   Zn518   1.906   .     S
O517   Zn519   1.961   .     S
N520   H521    1.046   .     S
N520   H522    1.046   .     S
C523   C539    1.419   .     S
C523   O569    1.282   .     A
C523   O568    1.282   .     A
C524   C525    1.406   .     A
C524   C4      1.414   1_556 S
C524   C28     1.415   1_556 S
C525   C529    1.416   .     A
C525   C532    1.416   .     A
C526   C530    1.389   .     A
C527   C528    1.392   .     A
C527   C4      1.419   1_556 S
C527   C24     1.405   1_556 S
C528   C529    1.389   .     A
C528   H559    1.084   .     S
C529   H564    1.082   .     S
C530   H561    1.079   .     S
C530   C547    1.387   .     A
C531   C546    1.396   .     A
C531   H551    1.083   .     S
C531   C547    1.400   .     A
C532   C534    1.471   .     S
C532   C548    1.418   .     A
C533   H565    1.084   .     S
C533   C539    1.397   .     A
C533   C709    1.370   .     S
C534   O570    1.291   .     A
C534   O571    1.296   .     A
C535   C536    1.397   .     A
C535   H552    1.084   .     S
C535   C881    1.370   1_545 S
C536   C544    1.419   .     S
C536   C537    1.397   .     A
C537   H553    1.084   .     S
C537   C886    1.370   1_545 S
C538   H554    1.084   .     S
C538   C539    1.397   .     A
C538   C711    1.370   .     S
C540   H555    1.082   .     S
C540   N567    1.366   .     A
C540   C599    1.416   .     S
C541   N566    1.367   .     A
C541   H556    1.082   .     S
C541   C656    1.416   1_455 S
C542   N566    1.366   .     A
C542   H557    1.082   .     S
C542   C659    1.416   1_455 S
C543   H558    1.082   .     S
C543   N567    1.367   .     A
C543   C600    1.416   .     S
C544   O573    1.282   .     A
C544   O572    1.282   .     A
C545   O574    1.291   .     A
C545   O575    1.290   .     A
C545   C547    1.451   .     S
C548   C549    1.397   .     A
C548   N578    1.438   .     S
C549   C28     1.388   1_556 S
C549   H41     1.083   1_556 S
C550   H562    1.079   .     S
H560   C24     1.084   1_556 S
N566   Zn576   2.007   .     S
N567   Zn577   2.007   .     S
O568   Zn576   1.999   .     S
O569   Zn577   1.999   .     S
O570   Zn576   1.961   .     S
O571   Zn577   1.906   .     S
O572   Zn576   1.999   .     S
O573   Zn577   1.999   .     S
O574   Zn576   1.906   .     S
O575   Zn577   1.961   .     S
N578   H579    1.046   .     S
N578   H580    1.046   .     S
C581   C597    1.419   .     S
C581   O627    1.282   .     A
C581   O626    1.282   .     A
C582   C583    1.406   .     A
C582   C62     1.414   1_556 S
C582   C86     1.415   1_556 S
C583   C587    1.416   .     A
C583   C590    1.416   .     A
C584   C588    1.389   .     A
C585   C586    1.392   .     A
C585   C62     1.419   1_556 S
C585   C82     1.405   1_556 S
C586   C587    1.389   .     A
C586   H617    1.084   .     S
C587   H622    1.082   .     S
C588   H619    1.079   .     S
C588   C605    1.387   .     A
C589   C604    1.396   .     A
C589   H609    1.083   .     S
C589   C605    1.400   .     A
C590   C592    1.471   .     S
C590   C606    1.418   .     A
C591   H623    1.084   .     S
C591   C597    1.397   .     A
C591   C767    1.370   .     S
C592   O628    1.291   .     A
C592   O629    1.296   .     A
C593   C594    1.397   .     A
C593   H610    1.084   .     S
C593   C939    1.370   1_545 S
C594   C602    1.419   .     S
C594   C595    1.397   .     A
C595   H611    1.084   .     S
C595   C944    1.370   1_545 S
C596   H612    1.084   .     S
C596   C597    1.397   .     A
C596   C769    1.370   .     S
C598   H613    1.082   .     S
C598   N625    1.366   .     A
C598   C657    1.416   .     S
C599   N624    1.367   .     A
C599   H614    1.082   .     S
C600   N624    1.366   .     A
C600   H615    1.082   .     S
C601   H616    1.082   .     S
C601   N625    1.367   .     A
C601   C658    1.416   .     S
C602   O631    1.282   .     A
C602   O630    1.282   .     A
C603   O632    1.291   .     A
C603   O633    1.290   .     A
C603   C605    1.451   .     S
C606   C607    1.397   .     A
C606   N636    1.438   .     S
C607   C86     1.388   1_556 S
C607   H99     1.083   1_556 S
C608   H620    1.079   .     S
H618   C82     1.084   1_556 S
N624   Zn634   2.007   .     S
N625   Zn635   2.007   .     S
O626   Zn634   1.999   .     S
O627   Zn635   1.999   .     S
O628   Zn634   1.961   .     S
O629   Zn635   1.906   .     S
O630   Zn634   1.999   .     S
O631   Zn635   1.999   .     S
O632   Zn634   1.906   .     S
O633   Zn635   1.961   .     S
N636   H637    1.046   .     S
N636   H638    1.046   .     S
C639   C655    1.419   .     S
C639   O685    1.282   .     A
C639   O684    1.282   .     A
C640   C641    1.406   .     A
C640   C120    1.414   1_556 S
C640   C144    1.415   1_556 S
C641   C645    1.416   .     A
C641   C648    1.416   .     A
C642   C646    1.389   .     A
C643   C644    1.392   .     A
C643   C120    1.419   1_556 S
C643   C140    1.405   1_556 S
C644   C645    1.389   .     A
C644   H675    1.084   .     S
C645   H680    1.082   .     S
C646   H677    1.079   .     S
C646   C663    1.387   .     A
C647   C662    1.396   .     A
C647   H667    1.083   .     S
C647   C663    1.400   .     A
C648   C650    1.471   .     S
C648   C664    1.418   .     A
C649   H681    1.084   .     S
C649   C655    1.397   .     A
C649   C825    1.370   .     S
C650   O686    1.291   .     A
C650   O687    1.296   .     A
C651   C652    1.397   .     A
C651   H668    1.084   .     S
C651   C997    1.370   1_545 S
C652   C660    1.419   .     S
C652   C653    1.397   .     A
C653   H669    1.084   .     S
C653   C1002   1.370   1_545 S
C654   H670    1.084   .     S
C654   C655    1.397   .     A
C654   C827    1.370   .     S
C656   H671    1.082   .     S
C656   N683    1.366   .     A
C656   C541    1.416   1_655 S
C657   N682    1.367   .     A
C657   H672    1.082   .     S
C658   N682    1.366   .     A
C658   H673    1.082   .     S
C659   H674    1.082   .     S
C659   N683    1.367   .     A
C659   C542    1.416   1_655 S
C660   O689    1.282   .     A
C660   O688    1.282   .     A
C661   O690    1.291   .     A
C661   O691    1.290   .     A
C661   C663    1.451   .     S
C664   C665    1.397   .     A
C664   N694    1.438   .     S
C665   C144    1.388   1_556 S
C665   H157    1.083   1_556 S
C666   H678    1.079   .     S
H676   C140    1.084   1_556 S
N682   Zn692   2.007   .     S
N683   Zn693   2.007   .     S
O684   Zn692   1.999   .     S
O685   Zn693   1.999   .     S
O686   Zn692   1.961   .     S
O687   Zn693   1.906   .     S
O688   Zn692   1.999   .     S
O689   Zn693   1.999   .     S
O690   Zn692   1.906   .     S
O691   Zn693   1.961   .     S
N694   H695    1.046   .     S
N694   H696    1.046   .     S
C697   C713    1.419   .     S
C697   O743    1.282   .     A
C697   O742    1.282   .     A
C698   C699    1.406   .     A
C698   C178    1.414   1_556 S
C698   C202    1.415   1_556 S
C699   C703    1.416   .     A
C699   C706    1.416   .     A
C700   C704    1.389   .     A
C701   C702    1.392   .     A
C701   C178    1.419   1_556 S
C701   C198    1.405   1_556 S
C702   C703    1.389   .     A
C702   H733    1.084   .     S
C703   H738    1.082   .     S
C704   H735    1.079   .     S
C704   C721    1.387   .     A
C705   C720    1.396   .     A
C705   H725    1.083   .     S
C705   C721    1.400   .     A
C706   C708    1.471   .     S
C706   C722    1.418   .     A
C707   H739    1.084   .     S
C707   C713    1.397   .     A
C707   C883    1.370   .     S
C708   O744    1.291   .     A
C708   O745    1.296   .     A
C709   C710    1.397   .     A
C709   H726    1.084   .     S
C710   C718    1.419   .     S
C710   C711    1.397   .     A
C711   H727    1.084   .     S
C712   H728    1.084   .     S
C712   C713    1.397   .     A
C712   C885    1.370   .     S
C714   H729    1.082   .     S
C714   N741    1.366   .     A
C714   C773    1.416   .     S
C715   N740    1.367   .     A
C715   H730    1.082   .     S
C715   C830    1.416   1_455 S
C716   N740    1.366   .     A
C716   H731    1.082   .     S
C716   C833    1.416   1_455 S
C717   H732    1.082   .     S
C717   N741    1.367   .     A
C717   C774    1.416   .     S
C718   O747    1.282   .     A
C718   O746    1.282   .     A
C719   O748    1.291   .     A
C719   O749    1.290   .     A
C719   C721    1.451   .     S
C722   C723    1.397   .     A
C722   N752    1.438   .     S
C723   C202    1.388   1_556 S
C723   H215    1.083   1_556 S
C724   H736    1.079   .     S
H734   C198    1.084   1_556 S
N740   Zn750   2.007   .     S
N741   Zn751   2.007   .     S
O742   Zn750   1.999   .     S
O743   Zn751   1.999   .     S
O744   Zn750   1.961   .     S
O745   Zn751   1.906   .     S
O746   Zn750   1.999   .     S
O747   Zn751   1.999   .     S
O748   Zn750   1.906   .     S
O749   Zn751   1.961   .     S
N752   H753    1.046   .     S
N752   H754    1.046   .     S
C755   C771    1.419   .     S
C755   O801    1.282   .     A
C755   O800    1.282   .     A
C756   C757    1.406   .     A
C756   C236    1.414   1_556 S
C756   C260    1.415   1_556 S
C757   C761    1.416   .     A
C757   C764    1.416   .     A
C758   C762    1.389   .     A
C759   C760    1.392   .     A
C759   C236    1.419   1_556 S
C759   C256    1.405   1_556 S
C760   C761    1.389   .     A
C760   H791    1.084   .     S
C761   H796    1.082   .     S
C762   H793    1.079   .     S
C762   C779    1.387   .     A
C763   C778    1.396   .     A
C763   H783    1.083   .     S
C763   C779    1.400   .     A
C764   C766    1.471   .     S
C764   C780    1.418   .     A
C765   H797    1.084   .     S
C765   C771    1.397   .     A
C765   C941    1.370   .     S
C766   O802    1.291   .     A
C766   O803    1.296   .     A
C767   C768    1.397   .     A
C767   H784    1.084   .     S
C768   C776    1.419   .     S
C768   C769    1.397   .     A
C769   H785    1.084   .     S
C770   H786    1.084   .     S
C770   C771    1.397   .     A
C770   C943    1.370   .     S
C772   H787    1.082   .     S
C772   N799    1.366   .     A
C772   C831    1.416   .     S
C773   N798    1.367   .     A
C773   H788    1.082   .     S
C774   N798    1.366   .     A
C774   H789    1.082   .     S
C775   H790    1.082   .     S
C775   N799    1.367   .     A
C775   C832    1.416   .     S
C776   O805    1.282   .     A
C776   O804    1.282   .     A
C777   O806    1.291   .     A
C777   O807    1.290   .     A
C777   C779    1.451   .     S
C780   C781    1.397   .     A
C780   N810    1.438   .     S
C781   C260    1.388   1_556 S
C781   H273    1.083   1_556 S
C782   H794    1.079   .     S
H792   C256    1.084   1_556 S
N798   Zn808   2.007   .     S
N799   Zn809   2.007   .     S
O800   Zn808   1.999   .     S
O801   Zn809   1.999   .     S
O802   Zn808   1.961   .     S
O803   Zn809   1.906   .     S
O804   Zn808   1.999   .     S
O805   Zn809   1.999   .     S
O806   Zn808   1.906   .     S
O807   Zn809   1.961   .     S
N810   H811    1.046   .     S
N810   H812    1.046   .     S
C813   C829    1.419   .     S
C813   O859    1.282   .     A
C813   O858    1.282   .     A
C814   C815    1.406   .     A
C814   C294    1.414   1_556 S
C814   C318    1.415   1_556 S
C815   C819    1.416   .     A
C815   C822    1.416   .     A
C816   C820    1.389   .     A
C817   C818    1.392   .     A
C817   C294    1.419   1_556 S
C817   C314    1.405   1_556 S
C818   C819    1.389   .     A
C818   H849    1.084   .     S
C819   H854    1.082   .     S
C820   H851    1.079   .     S
C820   C837    1.387   .     A
C821   C836    1.396   .     A
C821   H841    1.083   .     S
C821   C837    1.400   .     A
C822   C824    1.471   .     S
C822   C838    1.418   .     A
C823   H855    1.084   .     S
C823   C829    1.397   .     A
C823   C999    1.370   .     S
C824   O860    1.291   .     A
C824   O861    1.296   .     A
C825   C826    1.397   .     A
C825   H842    1.084   .     S
C826   C834    1.419   .     S
C826   C827    1.397   .     A
C827   H843    1.084   .     S
C828   H844    1.084   .     S
C828   C829    1.397   .     A
C828   C1001   1.370   .     S
C830   H845    1.082   .     S
C830   N857    1.366   .     A
C830   C715    1.416   1_655 S
C831   N856    1.367   .     A
C831   H846    1.082   .     S
C832   N856    1.366   .     A
C832   H847    1.082   .     S
C833   H848    1.082   .     S
C833   N857    1.367   .     A
C833   C716    1.416   1_655 S
C834   O863    1.282   .     A
C834   O862    1.282   .     A
C835   O864    1.291   .     A
C835   O865    1.290   .     A
C835   C837    1.451   .     S
C838   C839    1.397   .     A
C838   N868    1.438   .     S
C839   C318    1.388   1_556 S
C839   H331    1.083   1_556 S
C840   H852    1.079   .     S
H850   C314    1.084   1_556 S
N856   Zn866   2.007   .     S
N857   Zn867   2.007   .     S
O858   Zn866   1.999   .     S
O859   Zn867   1.999   .     S
O860   Zn866   1.961   .     S
O861   Zn867   1.906   .     S
O862   Zn866   1.999   .     S
O863   Zn867   1.999   .     S
O864   Zn866   1.906   .     S
O865   Zn867   1.961   .     S
N868   H869    1.046   .     S
N868   H870    1.046   .     S
C871   C887    1.419   .     S
C871   O917    1.282   .     A
C871   O916    1.282   .     A
C872   C873    1.406   .     A
C872   C352    1.414   1_556 S
C872   C376    1.415   1_556 S
C873   C877    1.416   .     A
C873   C880    1.416   .     A
C874   C878    1.389   .     A
C875   C876    1.392   .     A
C875   C352    1.419   1_556 S
C875   C372    1.405   1_556 S
C876   C877    1.389   .     A
C876   H907    1.084   .     S
C877   H912    1.082   .     S
C878   H909    1.079   .     S
C878   C895    1.387   .     A
C879   C894    1.396   .     A
C879   H899    1.083   .     S
C879   C895    1.400   .     A
C880   C882    1.471   .     S
C880   C896    1.418   .     A
C881   H913    1.084   .     S
C881   C887    1.397   .     A
C881   C535    1.370   1_565 S
C882   O918    1.291   .     A
C882   O919    1.296   .     A
C883   C884    1.397   .     A
C883   H900    1.084   .     S
C884   C892    1.419   .     S
C884   C885    1.397   .     A
C885   H901    1.084   .     S
C886   H902    1.084   .     S
C886   C887    1.397   .     A
C886   C537    1.370   1_565 S
C888   H903    1.082   .     S
C888   N915    1.366   .     A
C888   C947    1.416   .     S
C889   N914    1.367   .     A
C889   H904    1.082   .     S
C889   C1004   1.416   1_455 S
C890   N914    1.366   .     A
C890   H905    1.082   .     S
C890   C1007   1.416   1_455 S
C891   H906    1.082   .     S
C891   N915    1.367   .     A
C891   C948    1.416   .     S
C892   O921    1.282   .     A
C892   O920    1.282   .     A
C893   O922    1.291   .     A
C893   O923    1.290   .     A
C893   C895    1.451   .     S
C896   C897    1.397   .     A
C896   N926    1.438   .     S
C897   C376    1.388   1_556 S
C897   H389    1.083   1_556 S
C898   H910    1.079   .     S
H908   C372    1.084   1_556 S
N914   Zn924   2.007   .     S
N915   Zn925   2.007   .     S
O916   Zn924   1.999   .     S
O917   Zn925   1.999   .     S
O918   Zn924   1.961   .     S
O919   Zn925   1.906   .     S
O920   Zn924   1.999   .     S
O921   Zn925   1.999   .     S
O922   Zn924   1.906   .     S
O923   Zn925   1.961   .     S
N926   H927    1.046   .     S
N926   H928    1.046   .     S
C929   C945    1.419   .     S
C929   O975    1.282   .     A
C929   O974    1.282   .     A
C930   C931    1.406   .     A
C930   C410    1.414   1_556 S
C930   C434    1.415   1_556 S
C931   C935    1.416   .     A
C931   C938    1.416   .     A
C932   C936    1.389   .     A
C933   C934    1.392   .     A
C933   C410    1.419   1_556 S
C933   C430    1.405   1_556 S
C934   C935    1.389   .     A
C934   H965    1.084   .     S
C935   H970    1.082   .     S
C936   H967    1.079   .     S
C936   C953    1.387   .     A
C937   C952    1.396   .     A
C937   H957    1.083   .     S
C937   C953    1.400   .     A
C938   C940    1.471   .     S
C938   C954    1.418   .     A
C939   H971    1.084   .     S
C939   C945    1.397   .     A
C939   C593    1.370   1_565 S
C940   O976    1.291   .     A
C940   O977    1.296   .     A
C941   C942    1.397   .     A
C941   H958    1.084   .     S
C942   C950    1.419   .     S
C942   C943    1.397   .     A
C943   H959    1.084   .     S
C944   H960    1.084   .     S
C944   C945    1.397   .     A
C944   C595    1.370   1_565 S
C946   H961    1.082   .     S
C946   N973    1.366   .     A
C946   C1005   1.416   .     S
C947   N972    1.367   .     A
C947   H962    1.082   .     S
C948   N972    1.366   .     A
C948   H963    1.082   .     S
C949   H964    1.082   .     S
C949   N973    1.367   .     A
C949   C1006   1.416   .     S
C950   O979    1.282   .     A
C950   O978    1.282   .     A
C951   O980    1.291   .     A
C951   O981    1.290   .     A
C951   C953    1.451   .     S
C954   C955    1.397   .     A
C954   N984    1.438   .     S
C955   C434    1.388   1_556 S
C955   H447    1.083   1_556 S
C956   H968    1.079   .     S
H966   C430    1.084   1_556 S
N972   Zn982   2.007   .     S
N973   Zn983   2.007   .     S
O974   Zn982   1.999   .     S
O975   Zn983   1.999   .     S
O976   Zn982   1.961   .     S
O977   Zn983   1.906   .     S
O978   Zn982   1.999   .     S
O979   Zn983   1.999   .     S
O980   Zn982   1.906   .     S
O981   Zn983   1.961   .     S
N984   H985    1.046   .     S
N984   H986    1.046   .     S
C987   C1003   1.419   .     S
C987   O1033   1.282   .     A
C987   O1032   1.282   .     A
C988   C989    1.406   .     A
C988   C468    1.414   1_556 S
C988   C492    1.415   1_556 S
C989   C993    1.416   .     A
C989   C996    1.416   .     A
C990   C994    1.389   .     A
C991   C992    1.392   .     A
C991   C468    1.419   1_556 S
C991   C488    1.405   1_556 S
C992   C993    1.389   .     A
C992   H1023   1.084   .     S
C993   H1028   1.082   .     S
C994   H1025   1.079   .     S
C994   C1011   1.387   .     A
C995   C1010   1.396   .     A
C995   H1015   1.083   .     S
C995   C1011   1.400   .     A
C996   C998    1.471   .     S
C996   C1012   1.418   .     A
C997   H1029   1.084   .     S
C997   C1003   1.397   .     A
C997   C651    1.370   1_565 S
C998   O1034   1.291   .     A
C998   O1035   1.296   .     A
C999   C1000   1.397   .     A
C999   H1016   1.084   .     S
C1000  C1008   1.419   .     S
C1000  C1001   1.397   .     A
C1001  H1017   1.084   .     S
C1002  H1018   1.084   .     S
C1002  C1003   1.397   .     A
C1002  C653    1.370   1_565 S
C1004  H1019   1.082   .     S
C1004  N1031   1.366   .     A
C1004  C889    1.416   1_655 S
C1005  N1030   1.367   .     A
C1005  H1020   1.082   .     S
C1006  N1030   1.366   .     A
C1006  H1021   1.082   .     S
C1007  H1022   1.082   .     S
C1007  N1031   1.367   .     A
C1007  C890    1.416   1_655 S
C1008  O1037   1.282   .     A
C1008  O1036   1.282   .     A
C1009  O1038   1.291   .     A
C1009  O1039   1.290   .     A
C1009  C1011   1.451   .     S
C1012  C1013   1.397   .     A
C1012  N1042   1.438   .     S
C1013  C492    1.388   1_556 S
C1013  H505    1.083   1_556 S
C1014  H1026   1.079   .     S
H1024  C488    1.084   1_556 S
N1030  Zn1040  2.007   .     S
N1031  Zn1041  2.007   .     S
O1032  Zn1040  1.999   .     S
O1033  Zn1041  1.999   .     S
O1034  Zn1040  1.961   .     S
O1035  Zn1041  1.906   .     S
O1036  Zn1040  1.999   .     S
O1037  Zn1041  1.999   .     S
O1038  Zn1040  1.906   .     S
O1039  Zn1041  1.961   .     S
N1042  H1043   1.046   .     S
N1042  H1044   1.046   .     S
