data_str_m3_o2_o10_pcu_sym.6
_audit_creation_date              2020-01-03
_audit_creation_method            'Materials Studio'
_symmetry_space_group_name_H-M    'P1'
_symmetry_Int_Tables_number       1
_symmetry_cell_setting            triclinic
loop_
_symmetry_equiv_pos_as_xyz
  x,y,z
_cell_length_a                    25.7688
_cell_length_b                    30.0169
_cell_length_c                    28.4802
_cell_angle_alpha                 89.2897
_cell_angle_beta                  98.1619
_cell_angle_gamma                 91.0723
loop_
_atom_site_label
_atom_site_type_symbol
_atom_site_fract_x
_atom_site_fract_y
_atom_site_fract_z
_atom_site_U_iso_or_equiv
_atom_site_adp_type
_atom_site_occupancy
C1     C     0.16689   0.16394   0.25025   0.00000  Uiso   1.00
C2     C     0.14307   0.21549   0.44525   0.00000  Uiso   1.00
C3     C     0.16649   0.24975   0.02659   0.00000  Uiso   1.00
C4     C     0.16694   0.25016   0.47343   0.00000  Uiso   1.00
C5     C     0.06711   0.24989   0.23767   0.00000  Uiso   1.00
C6     C     0.26622   0.25001   0.26233   0.00000  Uiso   1.00
C7     C     0.01216   0.24974   0.23098   0.00000  Uiso   1.00
C8     C     0.32118   0.24995   0.26903   0.00000  Uiso   1.00
C9     C     0.15055   0.04604   0.28744   0.00000  Uiso   1.00
C10    C     0.15202   0.45350   0.20801   0.00000  Uiso   1.00
C11    C     0.14997   0.09204   0.28764   0.00000  Uiso   1.00
C12    C     0.16702   0.33607   0.24982   0.00000  Uiso   1.00
C13    C     0.15148   0.40747   0.20771   0.00000  Uiso   1.00
C14    C     0.16817   0.11606   0.25070   0.00000  Uiso   1.00
C15    C     0.16833   0.38400   0.24967   0.00000  Uiso   1.00
C16    C     0.18760   0.09414   0.21393   0.00000  Uiso   1.00
C17    C     0.18645   0.40653   0.29173   0.00000  Uiso   1.00
C18    C     0.18873   0.04819   0.21403   0.00000  Uiso   1.00
C19    C     0.18753   0.45251   0.29188   0.00000  Uiso   1.00
C20    C     0.16990   0.02411   0.25061   0.00000  Uiso   1.00
C21    C     0.16998   0.47601   0.25012   0.00000  Uiso   1.00
C22    C     0.12604   0.22865   0.04786   0.00000  Uiso   1.00
C23    C     0.19119   0.28483   0.44991   0.00000  Uiso   1.00
C24    C     0.12722   0.22873   0.09755   0.00000  Uiso   1.00
C25    C     0.19111   0.28383   0.40037   0.00000  Uiso   1.00
C26    C     0.20594   0.27161   0.10618   0.00000  Uiso   1.00
C27    C     0.14183   0.21632   0.39584   0.00000  Uiso   1.00
C28    C     0.20696   0.27054   0.05708   0.00000  Uiso   1.00
H29    H     0.32519   0.24948   0.19478   0.00000  Uiso   1.00
H30    H     0.20224   0.46972   0.32442   0.00000  Uiso   1.00
H31    H     0.09313   0.21257   0.02644   0.00000  Uiso   1.00
H32    H     0.20966   0.31301   0.46932   0.00000  Uiso   1.00
H33    H     0.09608   0.21210   0.11310   0.00000  Uiso   1.00
H34    H     0.21026   0.31052   0.38317   0.00000  Uiso   1.00
H35    H     0.23952   0.28666   0.04313   0.00000  Uiso   1.00
H36    H     0.12459   0.18759   0.46117   0.00000  Uiso   1.00
H37    H     0.23144   0.30627   0.16090   0.00000  Uiso   1.00
H38    H     0.10177   0.19390   0.33897   0.00000  Uiso   1.00
H39    H     0.00817   0.25014   0.30524   0.00000  Uiso   1.00
H40    H     0.13526   0.02758   0.31556   0.00000  Uiso   1.00
H41    H     0.13775   0.47149   0.17568   0.00000  Uiso   1.00
H42    H     0.13453   0.10872   0.31606   0.00000  Uiso   1.00
H43    H     0.13712   0.39031   0.17506   0.00000  Uiso   1.00
H44    H     0.20236   0.11247   0.18545   0.00000  Uiso   1.00
H45    H     0.20019   0.38867   0.32429   0.00000  Uiso   1.00
H46    H     0.20449   0.03146   0.18580   0.00000  Uiso   1.00
N47    N     0.16667   0.24999   0.12623   0.00000  Uiso   1.00
N48    N     0.16667   0.25001   0.37376   0.00000  Uiso   1.00
O49    O     0.16667   0.18454   0.28974   0.00000  Uiso   1.00
O50    O     0.11452   0.18241   0.37091   0.00000  Uiso   1.00
O51    O     0.16666   0.31547   0.21026   0.00000  Uiso   1.00
O52    O     0.16667   0.18453   0.21026   0.00000  Uiso   1.00
O53    O     0.16666   0.31547   0.28974   0.00000  Uiso   1.00
O54    O     0.09058   0.25000   0.28044   0.00000  Uiso   1.00
O55    O     0.24275   0.25000   0.21955   0.00000  Uiso   1.00
O56    O     0.09058   0.25000   0.20096   0.00000  Uiso   1.00
O57    O     0.24275   0.25001   0.29903   0.00000  Uiso   1.00
O58    O     0.24534   0.29544   0.13281   0.00000  Uiso   1.00
Zn59   Zn    0.16667   0.25001   0.30307   0.00000  Uiso   1.00
Zn60   Zn    0.16667   0.25000   0.19693   0.00000  Uiso   1.00
C61    C     0.50022   0.16394   0.25025   0.00000  Uiso   1.00
C62    C     0.47640   0.21549   0.44525   0.00000  Uiso   1.00
C63    C     0.49982   0.24975   0.02659   0.00000  Uiso   1.00
C64    C     0.50028   0.25016   0.47343   0.00000  Uiso   1.00
C65    C     0.40045   0.24989   0.23767   0.00000  Uiso   1.00
C66    C     0.59956   0.25001   0.26233   0.00000  Uiso   1.00
C67    C     0.34549   0.24974   0.23098   0.00000  Uiso   1.00
C68    C     0.65451   0.24995   0.26903   0.00000  Uiso   1.00
C69    C     0.48388   0.04604   0.28744   0.00000  Uiso   1.00
C70    C     0.48535   0.45350   0.20801   0.00000  Uiso   1.00
C71    C     0.48331   0.09204   0.28764   0.00000  Uiso   1.00
C72    C     0.50035   0.33607   0.24982   0.00000  Uiso   1.00
C73    C     0.48481   0.40747   0.20771   0.00000  Uiso   1.00
C74    C     0.50150   0.11606   0.25070   0.00000  Uiso   1.00
C75    C     0.50166   0.38400   0.24967   0.00000  Uiso   1.00
C76    C     0.52093   0.09414   0.21393   0.00000  Uiso   1.00
C77    C     0.51978   0.40653   0.29173   0.00000  Uiso   1.00
C78    C     0.52206   0.04819   0.21403   0.00000  Uiso   1.00
C79    C     0.52086   0.45251   0.29188   0.00000  Uiso   1.00
C80    C     0.50324   0.02411   0.25061   0.00000  Uiso   1.00
C81    C     0.50332   0.47601   0.25012   0.00000  Uiso   1.00
C82    C     0.45937   0.22865   0.04786   0.00000  Uiso   1.00
C83    C     0.52453   0.28483   0.44991   0.00000  Uiso   1.00
C84    C     0.46056   0.22873   0.09755   0.00000  Uiso   1.00
C85    C     0.52444   0.28383   0.40037   0.00000  Uiso   1.00
C86    C     0.53927   0.27161   0.10618   0.00000  Uiso   1.00
C87    C     0.47517   0.21632   0.39584   0.00000  Uiso   1.00
C88    C     0.54029   0.27054   0.05708   0.00000  Uiso   1.00
H89    H     0.65852   0.24948   0.19478   0.00000  Uiso   1.00
H90    H     0.53557   0.46972   0.32442   0.00000  Uiso   1.00
H91    H     0.42647   0.21257   0.02644   0.00000  Uiso   1.00
H92    H     0.54300   0.31301   0.46932   0.00000  Uiso   1.00
H93    H     0.42942   0.21210   0.11310   0.00000  Uiso   1.00
H94    H     0.54360   0.31052   0.38317   0.00000  Uiso   1.00
H95    H     0.57285   0.28666   0.04313   0.00000  Uiso   1.00
H96    H     0.45792   0.18759   0.46117   0.00000  Uiso   1.00
H97    H     0.56477   0.30627   0.16090   0.00000  Uiso   1.00
H98    H     0.43510   0.19390   0.33897   0.00000  Uiso   1.00
H99    H     0.34151   0.25014   0.30524   0.00000  Uiso   1.00
H100   H     0.46859   0.02758   0.31556   0.00000  Uiso   1.00
H101   H     0.47108   0.47149   0.17568   0.00000  Uiso   1.00
H102   H     0.46787   0.10872   0.31606   0.00000  Uiso   1.00
H103   H     0.47045   0.39031   0.17506   0.00000  Uiso   1.00
H104   H     0.53569   0.11247   0.18545   0.00000  Uiso   1.00
H105   H     0.53352   0.38867   0.32429   0.00000  Uiso   1.00
H106   H     0.53783   0.03146   0.18580   0.00000  Uiso   1.00
N107   N     0.50000   0.24999   0.12623   0.00000  Uiso   1.00
N108   N     0.50000   0.25001   0.37376   0.00000  Uiso   1.00
O109   O     0.50000   0.18454   0.28974   0.00000  Uiso   1.00
O110   O     0.44786   0.18241   0.37091   0.00000  Uiso   1.00
O111   O     0.50000   0.31547   0.21026   0.00000  Uiso   1.00
O112   O     0.50000   0.18453   0.21026   0.00000  Uiso   1.00
O113   O     0.50000   0.31547   0.28974   0.00000  Uiso   1.00
O114   O     0.42392   0.25000   0.28044   0.00000  Uiso   1.00
O115   O     0.57608   0.25000   0.21955   0.00000  Uiso   1.00
O116   O     0.42392   0.25000   0.20096   0.00000  Uiso   1.00
O117   O     0.57608   0.25001   0.29903   0.00000  Uiso   1.00
O118   O     0.57867   0.29544   0.13281   0.00000  Uiso   1.00
Zn119  Zn    0.50000   0.25001   0.30307   0.00000  Uiso   1.00
Zn120  Zn    0.50000   0.25000   0.19693   0.00000  Uiso   1.00
C121   C     0.83355   0.16394   0.25025   0.00000  Uiso   1.00
C122   C     0.80973   0.21549   0.44525   0.00000  Uiso   1.00
C123   C     0.83316   0.24975   0.02659   0.00000  Uiso   1.00
C124   C     0.83361   0.25016   0.47343   0.00000  Uiso   1.00
C125   C     0.73378   0.24989   0.23767   0.00000  Uiso   1.00
C126   C     0.93289   0.25001   0.26233   0.00000  Uiso   1.00
C127   C     0.67883   0.24974   0.23098   0.00000  Uiso   1.00
C128   C     0.98785   0.24995   0.26903   0.00000  Uiso   1.00
C129   C     0.81721   0.04604   0.28744   0.00000  Uiso   1.00
C130   C     0.81868   0.45350   0.20801   0.00000  Uiso   1.00
C131   C     0.81664   0.09204   0.28764   0.00000  Uiso   1.00
C132   C     0.83368   0.33607   0.24982   0.00000  Uiso   1.00
C133   C     0.81815   0.40747   0.20771   0.00000  Uiso   1.00
C134   C     0.83483   0.11606   0.25070   0.00000  Uiso   1.00
C135   C     0.83500   0.38400   0.24967   0.00000  Uiso   1.00
C136   C     0.85427   0.09414   0.21393   0.00000  Uiso   1.00
C137   C     0.85311   0.40653   0.29173   0.00000  Uiso   1.00
C138   C     0.85540   0.04819   0.21403   0.00000  Uiso   1.00
C139   C     0.85420   0.45251   0.29188   0.00000  Uiso   1.00
C140   C     0.83657   0.02411   0.25061   0.00000  Uiso   1.00
C141   C     0.83665   0.47601   0.25012   0.00000  Uiso   1.00
C142   C     0.79271   0.22865   0.04786   0.00000  Uiso   1.00
C143   C     0.85786   0.28483   0.44991   0.00000  Uiso   1.00
C144   C     0.79389   0.22873   0.09755   0.00000  Uiso   1.00
C145   C     0.85777   0.28383   0.40037   0.00000  Uiso   1.00
C146   C     0.87260   0.27161   0.10618   0.00000  Uiso   1.00
C147   C     0.80850   0.21632   0.39584   0.00000  Uiso   1.00
C148   C     0.87362   0.27054   0.05708   0.00000  Uiso   1.00
H149   H     0.99185   0.24948   0.19478   0.00000  Uiso   1.00
H150   H     0.86890   0.46972   0.32442   0.00000  Uiso   1.00
H151   H     0.75980   0.21257   0.02644   0.00000  Uiso   1.00
H152   H     0.87633   0.31301   0.46932   0.00000  Uiso   1.00
H153   H     0.76275   0.21210   0.11310   0.00000  Uiso   1.00
H154   H     0.87693   0.31052   0.38317   0.00000  Uiso   1.00
H155   H     0.90619   0.28666   0.04313   0.00000  Uiso   1.00
H156   H     0.79125   0.18759   0.46117   0.00000  Uiso   1.00
H157   H     0.89811   0.30627   0.16090   0.00000  Uiso   1.00
H158   H     0.76843   0.19390   0.33897   0.00000  Uiso   1.00
H159   H     0.67484   0.25014   0.30524   0.00000  Uiso   1.00
H160   H     0.80193   0.02758   0.31556   0.00000  Uiso   1.00
H161   H     0.80442   0.47149   0.17568   0.00000  Uiso   1.00
H162   H     0.80120   0.10872   0.31606   0.00000  Uiso   1.00
H163   H     0.80379   0.39031   0.17506   0.00000  Uiso   1.00
H164   H     0.86903   0.11247   0.18545   0.00000  Uiso   1.00
H165   H     0.86685   0.38867   0.32429   0.00000  Uiso   1.00
H166   H     0.87116   0.03146   0.18580   0.00000  Uiso   1.00
N167   N     0.83333   0.24999   0.12623   0.00000  Uiso   1.00
N168   N     0.83333   0.25001   0.37376   0.00000  Uiso   1.00
O169   O     0.83334   0.18454   0.28974   0.00000  Uiso   1.00
O170   O     0.78119   0.18241   0.37091   0.00000  Uiso   1.00
O171   O     0.83333   0.31547   0.21026   0.00000  Uiso   1.00
O172   O     0.83334   0.18453   0.21026   0.00000  Uiso   1.00
O173   O     0.83333   0.31547   0.28974   0.00000  Uiso   1.00
O174   O     0.75725   0.25000   0.28044   0.00000  Uiso   1.00
O175   O     0.90942   0.25000   0.21955   0.00000  Uiso   1.00
O176   O     0.75725   0.25000   0.20096   0.00000  Uiso   1.00
O177   O     0.90942   0.25001   0.29903   0.00000  Uiso   1.00
O178   O     0.91200   0.29544   0.13281   0.00000  Uiso   1.00
Zn179  Zn    0.83333   0.25001   0.30307   0.00000  Uiso   1.00
Zn180  Zn    0.83333   0.25000   0.19693   0.00000  Uiso   1.00
C181   C     0.16689   0.66394   0.25025   0.00000  Uiso   1.00
C182   C     0.14307   0.71549   0.44525   0.00000  Uiso   1.00
C183   C     0.16649   0.74975   0.02659   0.00000  Uiso   1.00
C184   C     0.16694   0.75016   0.47343   0.00000  Uiso   1.00
C185   C     0.06711   0.74989   0.23767   0.00000  Uiso   1.00
C186   C     0.26622   0.75001   0.26233   0.00000  Uiso   1.00
C187   C     0.01216   0.74974   0.23098   0.00000  Uiso   1.00
C188   C     0.32118   0.74995   0.26903   0.00000  Uiso   1.00
C189   C     0.15055   0.54604   0.28744   0.00000  Uiso   1.00
C190   C     0.15202   0.95350   0.20801   0.00000  Uiso   1.00
C191   C     0.14997   0.59204   0.28764   0.00000  Uiso   1.00
C192   C     0.16702   0.83607   0.24982   0.00000  Uiso   1.00
C193   C     0.15148   0.90747   0.20771   0.00000  Uiso   1.00
C194   C     0.16817   0.61606   0.25070   0.00000  Uiso   1.00
C195   C     0.16833   0.88400   0.24967   0.00000  Uiso   1.00
C196   C     0.18760   0.59414   0.21393   0.00000  Uiso   1.00
C197   C     0.18645   0.90653   0.29173   0.00000  Uiso   1.00
C198   C     0.18873   0.54819   0.21403   0.00000  Uiso   1.00
C199   C     0.18753   0.95251   0.29188   0.00000  Uiso   1.00
C200   C     0.16990   0.52411   0.25061   0.00000  Uiso   1.00
C201   C     0.16998   0.97601   0.25012   0.00000  Uiso   1.00
C202   C     0.12604   0.72865   0.04786   0.00000  Uiso   1.00
C203   C     0.19119   0.78483   0.44991   0.00000  Uiso   1.00
C204   C     0.12722   0.72873   0.09755   0.00000  Uiso   1.00
C205   C     0.19111   0.78383   0.40037   0.00000  Uiso   1.00
C206   C     0.20594   0.77161   0.10618   0.00000  Uiso   1.00
C207   C     0.14183   0.71632   0.39584   0.00000  Uiso   1.00
C208   C     0.20696   0.77054   0.05708   0.00000  Uiso   1.00
H209   H     0.32519   0.74948   0.19478   0.00000  Uiso   1.00
H210   H     0.20224   0.96972   0.32442   0.00000  Uiso   1.00
H211   H     0.09313   0.71257   0.02644   0.00000  Uiso   1.00
H212   H     0.20966   0.81301   0.46932   0.00000  Uiso   1.00
H213   H     0.09608   0.71210   0.11310   0.00000  Uiso   1.00
H214   H     0.21026   0.81052   0.38317   0.00000  Uiso   1.00
H215   H     0.23952   0.78666   0.04313   0.00000  Uiso   1.00
H216   H     0.12459   0.68759   0.46117   0.00000  Uiso   1.00
H217   H     0.23144   0.80627   0.16090   0.00000  Uiso   1.00
H218   H     0.10177   0.69390   0.33897   0.00000  Uiso   1.00
H219   H     0.00817   0.75014   0.30524   0.00000  Uiso   1.00
H220   H     0.13526   0.52758   0.31556   0.00000  Uiso   1.00
H221   H     0.13775   0.97149   0.17568   0.00000  Uiso   1.00
H222   H     0.13453   0.60872   0.31606   0.00000  Uiso   1.00
H223   H     0.13712   0.89031   0.17506   0.00000  Uiso   1.00
H224   H     0.20236   0.61247   0.18545   0.00000  Uiso   1.00
H225   H     0.20019   0.88867   0.32429   0.00000  Uiso   1.00
H226   H     0.20449   0.53146   0.18580   0.00000  Uiso   1.00
N227   N     0.16667   0.74999   0.12623   0.00000  Uiso   1.00
N228   N     0.16667   0.75001   0.37376   0.00000  Uiso   1.00
O229   O     0.16667   0.68454   0.28974   0.00000  Uiso   1.00
O230   O     0.11452   0.68241   0.37091   0.00000  Uiso   1.00
O231   O     0.16666   0.81547   0.21026   0.00000  Uiso   1.00
O232   O     0.16667   0.68453   0.21026   0.00000  Uiso   1.00
O233   O     0.16666   0.81547   0.28974   0.00000  Uiso   1.00
O234   O     0.09058   0.75000   0.28044   0.00000  Uiso   1.00
O235   O     0.24275   0.75000   0.21955   0.00000  Uiso   1.00
O236   O     0.09058   0.75000   0.20096   0.00000  Uiso   1.00
O237   O     0.24275   0.75001   0.29903   0.00000  Uiso   1.00
O238   O     0.24534   0.79544   0.13281   0.00000  Uiso   1.00
Zn239  Zn    0.16667   0.75001   0.30307   0.00000  Uiso   1.00
Zn240  Zn    0.16667   0.75000   0.19693   0.00000  Uiso   1.00
C241   C     0.50022   0.66394   0.25025   0.00000  Uiso   1.00
C242   C     0.47640   0.71549   0.44525   0.00000  Uiso   1.00
C243   C     0.49982   0.74975   0.02659   0.00000  Uiso   1.00
C244   C     0.50028   0.75016   0.47343   0.00000  Uiso   1.00
C245   C     0.40045   0.74989   0.23767   0.00000  Uiso   1.00
C246   C     0.59956   0.75001   0.26233   0.00000  Uiso   1.00
C247   C     0.34549   0.74974   0.23098   0.00000  Uiso   1.00
C248   C     0.65451   0.74995   0.26903   0.00000  Uiso   1.00
C249   C     0.48388   0.54604   0.28744   0.00000  Uiso   1.00
C250   C     0.48535   0.95350   0.20801   0.00000  Uiso   1.00
C251   C     0.48331   0.59204   0.28764   0.00000  Uiso   1.00
C252   C     0.50035   0.83607   0.24982   0.00000  Uiso   1.00
C253   C     0.48481   0.90747   0.20771   0.00000  Uiso   1.00
C254   C     0.50150   0.61606   0.25070   0.00000  Uiso   1.00
C255   C     0.50166   0.88400   0.24967   0.00000  Uiso   1.00
C256   C     0.52093   0.59414   0.21393   0.00000  Uiso   1.00
C257   C     0.51978   0.90653   0.29173   0.00000  Uiso   1.00
C258   C     0.52206   0.54819   0.21403   0.00000  Uiso   1.00
C259   C     0.52086   0.95251   0.29188   0.00000  Uiso   1.00
C260   C     0.50324   0.52411   0.25061   0.00000  Uiso   1.00
C261   C     0.50332   0.97601   0.25012   0.00000  Uiso   1.00
C262   C     0.45937   0.72865   0.04786   0.00000  Uiso   1.00
C263   C     0.52453   0.78483   0.44991   0.00000  Uiso   1.00
C264   C     0.46056   0.72873   0.09755   0.00000  Uiso   1.00
C265   C     0.52444   0.78383   0.40037   0.00000  Uiso   1.00
C266   C     0.53927   0.77161   0.10618   0.00000  Uiso   1.00
C267   C     0.47517   0.71632   0.39584   0.00000  Uiso   1.00
C268   C     0.54029   0.77054   0.05708   0.00000  Uiso   1.00
H269   H     0.65852   0.74948   0.19478   0.00000  Uiso   1.00
H270   H     0.53557   0.96972   0.32442   0.00000  Uiso   1.00
H271   H     0.42647   0.71257   0.02644   0.00000  Uiso   1.00
H272   H     0.54300   0.81301   0.46932   0.00000  Uiso   1.00
H273   H     0.42942   0.71210   0.11310   0.00000  Uiso   1.00
H274   H     0.54360   0.81052   0.38317   0.00000  Uiso   1.00
H275   H     0.57285   0.78666   0.04313   0.00000  Uiso   1.00
H276   H     0.45792   0.68759   0.46117   0.00000  Uiso   1.00
H277   H     0.56477   0.80627   0.16090   0.00000  Uiso   1.00
H278   H     0.43510   0.69390   0.33897   0.00000  Uiso   1.00
H279   H     0.34151   0.75014   0.30524   0.00000  Uiso   1.00
H280   H     0.46859   0.52758   0.31556   0.00000  Uiso   1.00
H281   H     0.47108   0.97149   0.17568   0.00000  Uiso   1.00
H282   H     0.46787   0.60872   0.31606   0.00000  Uiso   1.00
H283   H     0.47045   0.89031   0.17506   0.00000  Uiso   1.00
H284   H     0.53569   0.61247   0.18545   0.00000  Uiso   1.00
H285   H     0.53352   0.88867   0.32429   0.00000  Uiso   1.00
H286   H     0.53783   0.53146   0.18580   0.00000  Uiso   1.00
N287   N     0.50000   0.74999   0.12623   0.00000  Uiso   1.00
N288   N     0.50000   0.75001   0.37376   0.00000  Uiso   1.00
O289   O     0.50000   0.68454   0.28974   0.00000  Uiso   1.00
O290   O     0.44786   0.68241   0.37091   0.00000  Uiso   1.00
O291   O     0.50000   0.81547   0.21026   0.00000  Uiso   1.00
O292   O     0.50000   0.68453   0.21026   0.00000  Uiso   1.00
O293   O     0.50000   0.81547   0.28974   0.00000  Uiso   1.00
O294   O     0.42392   0.75000   0.28044   0.00000  Uiso   1.00
O295   O     0.57608   0.75000   0.21955   0.00000  Uiso   1.00
O296   O     0.42392   0.75000   0.20096   0.00000  Uiso   1.00
O297   O     0.57608   0.75001   0.29903   0.00000  Uiso   1.00
O298   O     0.57867   0.79544   0.13281   0.00000  Uiso   1.00
Zn299  Zn    0.50000   0.75001   0.30307   0.00000  Uiso   1.00
Zn300  Zn    0.50000   0.75000   0.19693   0.00000  Uiso   1.00
C301   C     0.83355   0.66394   0.25025   0.00000  Uiso   1.00
C302   C     0.80973   0.71549   0.44525   0.00000  Uiso   1.00
C303   C     0.83316   0.74975   0.02659   0.00000  Uiso   1.00
C304   C     0.83361   0.75016   0.47343   0.00000  Uiso   1.00
C305   C     0.73378   0.74989   0.23767   0.00000  Uiso   1.00
C306   C     0.93289   0.75001   0.26233   0.00000  Uiso   1.00
C307   C     0.67883   0.74974   0.23098   0.00000  Uiso   1.00
C308   C     0.98785   0.74995   0.26903   0.00000  Uiso   1.00
C309   C     0.81721   0.54604   0.28744   0.00000  Uiso   1.00
C310   C     0.81868   0.95350   0.20801   0.00000  Uiso   1.00
C311   C     0.81664   0.59204   0.28764   0.00000  Uiso   1.00
C312   C     0.83368   0.83607   0.24982   0.00000  Uiso   1.00
C313   C     0.81815   0.90747   0.20771   0.00000  Uiso   1.00
C314   C     0.83483   0.61606   0.25070   0.00000  Uiso   1.00
C315   C     0.83500   0.88400   0.24967   0.00000  Uiso   1.00
C316   C     0.85427   0.59414   0.21393   0.00000  Uiso   1.00
C317   C     0.85311   0.90653   0.29173   0.00000  Uiso   1.00
C318   C     0.85540   0.54819   0.21403   0.00000  Uiso   1.00
C319   C     0.85420   0.95251   0.29188   0.00000  Uiso   1.00
C320   C     0.83657   0.52411   0.25061   0.00000  Uiso   1.00
C321   C     0.83665   0.97601   0.25012   0.00000  Uiso   1.00
C322   C     0.79271   0.72865   0.04786   0.00000  Uiso   1.00
C323   C     0.85786   0.78483   0.44991   0.00000  Uiso   1.00
C324   C     0.79389   0.72873   0.09755   0.00000  Uiso   1.00
C325   C     0.85777   0.78383   0.40037   0.00000  Uiso   1.00
C326   C     0.87260   0.77161   0.10618   0.00000  Uiso   1.00
C327   C     0.80850   0.71632   0.39584   0.00000  Uiso   1.00
C328   C     0.87362   0.77054   0.05708   0.00000  Uiso   1.00
H329   H     0.99185   0.74948   0.19478   0.00000  Uiso   1.00
H330   H     0.86890   0.96972   0.32442   0.00000  Uiso   1.00
H331   H     0.75980   0.71257   0.02644   0.00000  Uiso   1.00
H332   H     0.87633   0.81301   0.46932   0.00000  Uiso   1.00
H333   H     0.76275   0.71210   0.11310   0.00000  Uiso   1.00
H334   H     0.87693   0.81052   0.38317   0.00000  Uiso   1.00
H335   H     0.90619   0.78666   0.04313   0.00000  Uiso   1.00
H336   H     0.79125   0.68759   0.46117   0.00000  Uiso   1.00
H337   H     0.89811   0.80627   0.16090   0.00000  Uiso   1.00
H338   H     0.76843   0.69390   0.33897   0.00000  Uiso   1.00
H339   H     0.67484   0.75014   0.30524   0.00000  Uiso   1.00
H340   H     0.80193   0.52758   0.31556   0.00000  Uiso   1.00
H341   H     0.80442   0.97149   0.17568   0.00000  Uiso   1.00
H342   H     0.80120   0.60872   0.31606   0.00000  Uiso   1.00
H343   H     0.80379   0.89031   0.17506   0.00000  Uiso   1.00
H344   H     0.86903   0.61247   0.18545   0.00000  Uiso   1.00
H345   H     0.86685   0.88867   0.32429   0.00000  Uiso   1.00
H346   H     0.87116   0.53146   0.18580   0.00000  Uiso   1.00
N347   N     0.83333   0.74999   0.12623   0.00000  Uiso   1.00
N348   N     0.83333   0.75001   0.37376   0.00000  Uiso   1.00
O349   O     0.83334   0.68454   0.28974   0.00000  Uiso   1.00
O350   O     0.78119   0.68241   0.37091   0.00000  Uiso   1.00
O351   O     0.83333   0.81547   0.21026   0.00000  Uiso   1.00
O352   O     0.83334   0.68453   0.21026   0.00000  Uiso   1.00
O353   O     0.83333   0.81547   0.28974   0.00000  Uiso   1.00
O354   O     0.75725   0.75000   0.28044   0.00000  Uiso   1.00
O355   O     0.90942   0.75000   0.21955   0.00000  Uiso   1.00
O356   O     0.75725   0.75000   0.20096   0.00000  Uiso   1.00
O357   O     0.90942   0.75001   0.29903   0.00000  Uiso   1.00
O358   O     0.91200   0.79544   0.13281   0.00000  Uiso   1.00
Zn359  Zn    0.83333   0.75001   0.30307   0.00000  Uiso   1.00
Zn360  Zn    0.83333   0.75000   0.19693   0.00000  Uiso   1.00
C361   C     0.16689   0.16394   0.75025   0.00000  Uiso   1.00
C362   C     0.14307   0.21549   0.94525   0.00000  Uiso   1.00
C363   C     0.16649   0.24975   0.52659   0.00000  Uiso   1.00
C364   C     0.16694   0.25016   0.97343   0.00000  Uiso   1.00
C365   C     0.06711   0.24989   0.73767   0.00000  Uiso   1.00
C366   C     0.26622   0.25001   0.76233   0.00000  Uiso   1.00
C367   C     0.01216   0.24974   0.73098   0.00000  Uiso   1.00
C368   C     0.32118   0.24995   0.76903   0.00000  Uiso   1.00
C369   C     0.15055   0.04604   0.78744   0.00000  Uiso   1.00
C370   C     0.15202   0.45350   0.70801   0.00000  Uiso   1.00
C371   C     0.14997   0.09204   0.78764   0.00000  Uiso   1.00
C372   C     0.16702   0.33607   0.74982   0.00000  Uiso   1.00
C373   C     0.15148   0.40747   0.70771   0.00000  Uiso   1.00
C374   C     0.16817   0.11606   0.75070   0.00000  Uiso   1.00
C375   C     0.16833   0.38400   0.74967   0.00000  Uiso   1.00
C376   C     0.18760   0.09414   0.71393   0.00000  Uiso   1.00
C377   C     0.18645   0.40653   0.79173   0.00000  Uiso   1.00
C378   C     0.18873   0.04819   0.71403   0.00000  Uiso   1.00
C379   C     0.18753   0.45251   0.79188   0.00000  Uiso   1.00
C380   C     0.16990   0.02411   0.75061   0.00000  Uiso   1.00
C381   C     0.16998   0.47601   0.75012   0.00000  Uiso   1.00
C382   C     0.12604   0.22865   0.54786   0.00000  Uiso   1.00
C383   C     0.19119   0.28483   0.94991   0.00000  Uiso   1.00
C384   C     0.12722   0.22873   0.59755   0.00000  Uiso   1.00
C385   C     0.19111   0.28383   0.90037   0.00000  Uiso   1.00
C386   C     0.20594   0.27161   0.60618   0.00000  Uiso   1.00
C387   C     0.14183   0.21632   0.89584   0.00000  Uiso   1.00
C388   C     0.20696   0.27054   0.55708   0.00000  Uiso   1.00
H389   H     0.32519   0.24948   0.69478   0.00000  Uiso   1.00
H390   H     0.20224   0.46972   0.82442   0.00000  Uiso   1.00
H391   H     0.09313   0.21257   0.52644   0.00000  Uiso   1.00
H392   H     0.20966   0.31301   0.96932   0.00000  Uiso   1.00
H393   H     0.09608   0.21210   0.61310   0.00000  Uiso   1.00
H394   H     0.21026   0.31052   0.88317   0.00000  Uiso   1.00
H395   H     0.23952   0.28666   0.54313   0.00000  Uiso   1.00
H396   H     0.12459   0.18759   0.96117   0.00000  Uiso   1.00
H397   H     0.23144   0.30627   0.66090   0.00000  Uiso   1.00
H398   H     0.10177   0.19390   0.83897   0.00000  Uiso   1.00
H399   H     0.00817   0.25014   0.80524   0.00000  Uiso   1.00
H400   H     0.13526   0.02758   0.81556   0.00000  Uiso   1.00
H401   H     0.13775   0.47149   0.67568   0.00000  Uiso   1.00
H402   H     0.13453   0.10872   0.81606   0.00000  Uiso   1.00
H403   H     0.13712   0.39031   0.67506   0.00000  Uiso   1.00
H404   H     0.20236   0.11247   0.68545   0.00000  Uiso   1.00
H405   H     0.20019   0.38867   0.82429   0.00000  Uiso   1.00
H406   H     0.20449   0.03146   0.68580   0.00000  Uiso   1.00
N407   N     0.16667   0.24999   0.62623   0.00000  Uiso   1.00
N408   N     0.16667   0.25001   0.87376   0.00000  Uiso   1.00
O409   O     0.16667   0.18454   0.78974   0.00000  Uiso   1.00
O410   O     0.11452   0.18241   0.87091   0.00000  Uiso   1.00
O411   O     0.16666   0.31547   0.71026   0.00000  Uiso   1.00
O412   O     0.16667   0.18453   0.71026   0.00000  Uiso   1.00
O413   O     0.16666   0.31547   0.78974   0.00000  Uiso   1.00
O414   O     0.09058   0.25000   0.78044   0.00000  Uiso   1.00
O415   O     0.24275   0.25000   0.71955   0.00000  Uiso   1.00
O416   O     0.09058   0.25000   0.70096   0.00000  Uiso   1.00
O417   O     0.24275   0.25001   0.79903   0.00000  Uiso   1.00
O418   O     0.24534   0.29544   0.63281   0.00000  Uiso   1.00
Zn419  Zn    0.16667   0.25001   0.80307   0.00000  Uiso   1.00
Zn420  Zn    0.16667   0.25000   0.69693   0.00000  Uiso   1.00
C421   C     0.50022   0.16394   0.75025   0.00000  Uiso   1.00
C422   C     0.47640   0.21549   0.94525   0.00000  Uiso   1.00
C423   C     0.49982   0.24975   0.52659   0.00000  Uiso   1.00
C424   C     0.50028   0.25016   0.97343   0.00000  Uiso   1.00
C425   C     0.40045   0.24989   0.73767   0.00000  Uiso   1.00
C426   C     0.59956   0.25001   0.76233   0.00000  Uiso   1.00
C427   C     0.34549   0.24974   0.73098   0.00000  Uiso   1.00
C428   C     0.65451   0.24995   0.76903   0.00000  Uiso   1.00
C429   C     0.48388   0.04604   0.78744   0.00000  Uiso   1.00
C430   C     0.48535   0.45350   0.70801   0.00000  Uiso   1.00
C431   C     0.48331   0.09204   0.78764   0.00000  Uiso   1.00
C432   C     0.50035   0.33607   0.74982   0.00000  Uiso   1.00
C433   C     0.48481   0.40747   0.70771   0.00000  Uiso   1.00
C434   C     0.50150   0.11606   0.75070   0.00000  Uiso   1.00
C435   C     0.50166   0.38400   0.74967   0.00000  Uiso   1.00
C436   C     0.52093   0.09414   0.71393   0.00000  Uiso   1.00
C437   C     0.51978   0.40653   0.79173   0.00000  Uiso   1.00
C438   C     0.52206   0.04819   0.71403   0.00000  Uiso   1.00
C439   C     0.52086   0.45251   0.79188   0.00000  Uiso   1.00
C440   C     0.50324   0.02411   0.75061   0.00000  Uiso   1.00
C441   C     0.50332   0.47601   0.75012   0.00000  Uiso   1.00
C442   C     0.45937   0.22865   0.54786   0.00000  Uiso   1.00
C443   C     0.52453   0.28483   0.94991   0.00000  Uiso   1.00
C444   C     0.46056   0.22873   0.59755   0.00000  Uiso   1.00
C445   C     0.52444   0.28383   0.90037   0.00000  Uiso   1.00
C446   C     0.53927   0.27161   0.60618   0.00000  Uiso   1.00
C447   C     0.47517   0.21632   0.89584   0.00000  Uiso   1.00
C448   C     0.54029   0.27054   0.55708   0.00000  Uiso   1.00
H449   H     0.65852   0.24948   0.69478   0.00000  Uiso   1.00
H450   H     0.53557   0.46972   0.82442   0.00000  Uiso   1.00
H451   H     0.42647   0.21257   0.52644   0.00000  Uiso   1.00
H452   H     0.54300   0.31301   0.96932   0.00000  Uiso   1.00
H453   H     0.42942   0.21210   0.61310   0.00000  Uiso   1.00
H454   H     0.54360   0.31052   0.88317   0.00000  Uiso   1.00
H455   H     0.57285   0.28666   0.54313   0.00000  Uiso   1.00
H456   H     0.45792   0.18759   0.96117   0.00000  Uiso   1.00
H457   H     0.56477   0.30627   0.66090   0.00000  Uiso   1.00
H458   H     0.43510   0.19390   0.83897   0.00000  Uiso   1.00
H459   H     0.34151   0.25014   0.80524   0.00000  Uiso   1.00
H460   H     0.46859   0.02758   0.81556   0.00000  Uiso   1.00
H461   H     0.47108   0.47149   0.67568   0.00000  Uiso   1.00
H462   H     0.46787   0.10872   0.81606   0.00000  Uiso   1.00
H463   H     0.47045   0.39031   0.67506   0.00000  Uiso   1.00
H464   H     0.53569   0.11247   0.68545   0.00000  Uiso   1.00
H465   H     0.53352   0.38867   0.82429   0.00000  Uiso   1.00
H466   H     0.53783   0.03146   0.68580   0.00000  Uiso   1.00
N467   N     0.50000   0.24999   0.62623   0.00000  Uiso   1.00
N468   N     0.50000   0.25001   0.87376   0.00000  Uiso   1.00
O469   O     0.50000   0.18454   0.78974   0.00000  Uiso   1.00
O470   O     0.44786   0.18241   0.87091   0.00000  Uiso   1.00
O471   O     0.50000   0.31547   0.71026   0.00000  Uiso   1.00
O472   O     0.50000   0.18453   0.71026   0.00000  Uiso   1.00
O473   O     0.50000   0.31547   0.78974   0.00000  Uiso   1.00
O474   O     0.42392   0.25000   0.78044   0.00000  Uiso   1.00
O475   O     0.57608   0.25000   0.71955   0.00000  Uiso   1.00
O476   O     0.42392   0.25000   0.70096   0.00000  Uiso   1.00
O477   O     0.57608   0.25001   0.79903   0.00000  Uiso   1.00
O478   O     0.57867   0.29544   0.63281   0.00000  Uiso   1.00
Zn479  Zn    0.50000   0.25001   0.80307   0.00000  Uiso   1.00
Zn480  Zn    0.50000   0.25000   0.69693   0.00000  Uiso   1.00
C481   C     0.83355   0.16394   0.75025   0.00000  Uiso   1.00
C482   C     0.80973   0.21549   0.94525   0.00000  Uiso   1.00
C483   C     0.83316   0.24975   0.52659   0.00000  Uiso   1.00
C484   C     0.83361   0.25016   0.97343   0.00000  Uiso   1.00
C485   C     0.73378   0.24989   0.73767   0.00000  Uiso   1.00
C486   C     0.93289   0.25001   0.76233   0.00000  Uiso   1.00
C487   C     0.67883   0.24974   0.73098   0.00000  Uiso   1.00
C488   C     0.98785   0.24995   0.76903   0.00000  Uiso   1.00
C489   C     0.81721   0.04604   0.78744   0.00000  Uiso   1.00
C490   C     0.81868   0.45350   0.70801   0.00000  Uiso   1.00
C491   C     0.81664   0.09204   0.78764   0.00000  Uiso   1.00
C492   C     0.83368   0.33607   0.74982   0.00000  Uiso   1.00
C493   C     0.81815   0.40747   0.70771   0.00000  Uiso   1.00
C494   C     0.83483   0.11606   0.75070   0.00000  Uiso   1.00
C495   C     0.83500   0.38400   0.74967   0.00000  Uiso   1.00
C496   C     0.85427   0.09414   0.71393   0.00000  Uiso   1.00
C497   C     0.85311   0.40653   0.79173   0.00000  Uiso   1.00
C498   C     0.85540   0.04819   0.71403   0.00000  Uiso   1.00
C499   C     0.85420   0.45251   0.79188   0.00000  Uiso   1.00
C500   C     0.83657   0.02411   0.75061   0.00000  Uiso   1.00
C501   C     0.83665   0.47601   0.75012   0.00000  Uiso   1.00
C502   C     0.79271   0.22865   0.54786   0.00000  Uiso   1.00
C503   C     0.85786   0.28483   0.94991   0.00000  Uiso   1.00
C504   C     0.79389   0.22873   0.59755   0.00000  Uiso   1.00
C505   C     0.85777   0.28383   0.90037   0.00000  Uiso   1.00
C506   C     0.87260   0.27161   0.60618   0.00000  Uiso   1.00
C507   C     0.80850   0.21632   0.89584   0.00000  Uiso   1.00
C508   C     0.87362   0.27054   0.55708   0.00000  Uiso   1.00
H509   H     0.99185   0.24948   0.69478   0.00000  Uiso   1.00
H510   H     0.86890   0.46972   0.82442   0.00000  Uiso   1.00
H511   H     0.75980   0.21257   0.52644   0.00000  Uiso   1.00
H512   H     0.87633   0.31301   0.96932   0.00000  Uiso   1.00
H513   H     0.76275   0.21210   0.61310   0.00000  Uiso   1.00
H514   H     0.87693   0.31052   0.88317   0.00000  Uiso   1.00
H515   H     0.90619   0.28666   0.54313   0.00000  Uiso   1.00
H516   H     0.79125   0.18759   0.96117   0.00000  Uiso   1.00
H517   H     0.89811   0.30627   0.66090   0.00000  Uiso   1.00
H518   H     0.76843   0.19390   0.83897   0.00000  Uiso   1.00
H519   H     0.67484   0.25014   0.80524   0.00000  Uiso   1.00
H520   H     0.80193   0.02758   0.81556   0.00000  Uiso   1.00
H521   H     0.80442   0.47149   0.67568   0.00000  Uiso   1.00
H522   H     0.80120   0.10872   0.81606   0.00000  Uiso   1.00
H523   H     0.80379   0.39031   0.67506   0.00000  Uiso   1.00
H524   H     0.86903   0.11247   0.68545   0.00000  Uiso   1.00
H525   H     0.86685   0.38867   0.82429   0.00000  Uiso   1.00
H526   H     0.87116   0.03146   0.68580   0.00000  Uiso   1.00
N527   N     0.83333   0.24999   0.62623   0.00000  Uiso   1.00
N528   N     0.83333   0.25001   0.87376   0.00000  Uiso   1.00
O529   O     0.83334   0.18454   0.78974   0.00000  Uiso   1.00
O530   O     0.78119   0.18241   0.87091   0.00000  Uiso   1.00
O531   O     0.83333   0.31547   0.71026   0.00000  Uiso   1.00
O532   O     0.83334   0.18453   0.71026   0.00000  Uiso   1.00
O533   O     0.83333   0.31547   0.78974   0.00000  Uiso   1.00
O534   O     0.75725   0.25000   0.78044   0.00000  Uiso   1.00
O535   O     0.90942   0.25000   0.71955   0.00000  Uiso   1.00
O536   O     0.75725   0.25000   0.70096   0.00000  Uiso   1.00
O537   O     0.90942   0.25001   0.79903   0.00000  Uiso   1.00
O538   O     0.91200   0.29544   0.63281   0.00000  Uiso   1.00
Zn539  Zn    0.83333   0.25001   0.80307   0.00000  Uiso   1.00
Zn540  Zn    0.83333   0.25000   0.69693   0.00000  Uiso   1.00
C541   C     0.16689   0.66394   0.75025   0.00000  Uiso   1.00
C542   C     0.14307   0.71549   0.94525   0.00000  Uiso   1.00
C543   C     0.16649   0.74975   0.52659   0.00000  Uiso   1.00
C544   C     0.16694   0.75016   0.97343   0.00000  Uiso   1.00
C545   C     0.06711   0.74989   0.73767   0.00000  Uiso   1.00
C546   C     0.26622   0.75001   0.76233   0.00000  Uiso   1.00
C547   C     0.01216   0.74974   0.73098   0.00000  Uiso   1.00
C548   C     0.32118   0.74995   0.76903   0.00000  Uiso   1.00
C549   C     0.15055   0.54604   0.78744   0.00000  Uiso   1.00
C550   C     0.15202   0.95350   0.70801   0.00000  Uiso   1.00
C551   C     0.14997   0.59204   0.78764   0.00000  Uiso   1.00
C552   C     0.16702   0.83607   0.74982   0.00000  Uiso   1.00
C553   C     0.15148   0.90747   0.70771   0.00000  Uiso   1.00
C554   C     0.16817   0.61606   0.75070   0.00000  Uiso   1.00
C555   C     0.16833   0.88400   0.74967   0.00000  Uiso   1.00
C556   C     0.18760   0.59414   0.71393   0.00000  Uiso   1.00
C557   C     0.18645   0.90653   0.79173   0.00000  Uiso   1.00
C558   C     0.18873   0.54819   0.71403   0.00000  Uiso   1.00
C559   C     0.18753   0.95251   0.79188   0.00000  Uiso   1.00
C560   C     0.16990   0.52411   0.75061   0.00000  Uiso   1.00
C561   C     0.16998   0.97601   0.75012   0.00000  Uiso   1.00
C562   C     0.12604   0.72865   0.54786   0.00000  Uiso   1.00
C563   C     0.19119   0.78483   0.94991   0.00000  Uiso   1.00
C564   C     0.12722   0.72873   0.59755   0.00000  Uiso   1.00
C565   C     0.19111   0.78383   0.90037   0.00000  Uiso   1.00
C566   C     0.20594   0.77161   0.60618   0.00000  Uiso   1.00
C567   C     0.14183   0.71632   0.89584   0.00000  Uiso   1.00
C568   C     0.20696   0.77054   0.55708   0.00000  Uiso   1.00
H569   H     0.32519   0.74948   0.69478   0.00000  Uiso   1.00
H570   H     0.20224   0.96972   0.82442   0.00000  Uiso   1.00
H571   H     0.09313   0.71257   0.52644   0.00000  Uiso   1.00
H572   H     0.20966   0.81301   0.96932   0.00000  Uiso   1.00
H573   H     0.09608   0.71210   0.61310   0.00000  Uiso   1.00
H574   H     0.21026   0.81052   0.88317   0.00000  Uiso   1.00
H575   H     0.23952   0.78666   0.54313   0.00000  Uiso   1.00
H576   H     0.12459   0.68759   0.96117   0.00000  Uiso   1.00
H577   H     0.23144   0.80627   0.66090   0.00000  Uiso   1.00
H578   H     0.10177   0.69390   0.83897   0.00000  Uiso   1.00
H579   H     0.00817   0.75014   0.80524   0.00000  Uiso   1.00
H580   H     0.13526   0.52758   0.81556   0.00000  Uiso   1.00
H581   H     0.13775   0.97149   0.67568   0.00000  Uiso   1.00
H582   H     0.13453   0.60872   0.81606   0.00000  Uiso   1.00
H583   H     0.13712   0.89031   0.67506   0.00000  Uiso   1.00
H584   H     0.20236   0.61247   0.68545   0.00000  Uiso   1.00
H585   H     0.20019   0.88867   0.82429   0.00000  Uiso   1.00
H586   H     0.20449   0.53146   0.68580   0.00000  Uiso   1.00
N587   N     0.16667   0.74999   0.62623   0.00000  Uiso   1.00
N588   N     0.16667   0.75001   0.87376   0.00000  Uiso   1.00
O589   O     0.16667   0.68454   0.78974   0.00000  Uiso   1.00
O590   O     0.11452   0.68241   0.87091   0.00000  Uiso   1.00
O591   O     0.16666   0.81547   0.71026   0.00000  Uiso   1.00
O592   O     0.16667   0.68453   0.71026   0.00000  Uiso   1.00
O593   O     0.16666   0.81547   0.78974   0.00000  Uiso   1.00
O594   O     0.09058   0.75000   0.78044   0.00000  Uiso   1.00
O595   O     0.24275   0.75000   0.71955   0.00000  Uiso   1.00
O596   O     0.09058   0.75000   0.70096   0.00000  Uiso   1.00
O597   O     0.24275   0.75001   0.79903   0.00000  Uiso   1.00
O598   O     0.24534   0.79544   0.63281   0.00000  Uiso   1.00
Zn599  Zn    0.16667   0.75001   0.80307   0.00000  Uiso   1.00
Zn600  Zn    0.16667   0.75000   0.69693   0.00000  Uiso   1.00
C601   C     0.50022   0.66394   0.75025   0.00000  Uiso   1.00
C602   C     0.47640   0.71549   0.94525   0.00000  Uiso   1.00
C603   C     0.49982   0.74975   0.52659   0.00000  Uiso   1.00
C604   C     0.50028   0.75016   0.97343   0.00000  Uiso   1.00
C605   C     0.40045   0.74989   0.73767   0.00000  Uiso   1.00
C606   C     0.59956   0.75001   0.76233   0.00000  Uiso   1.00
C607   C     0.34549   0.74974   0.73098   0.00000  Uiso   1.00
C608   C     0.65451   0.74995   0.76903   0.00000  Uiso   1.00
C609   C     0.48388   0.54604   0.78744   0.00000  Uiso   1.00
C610   C     0.48535   0.95350   0.70801   0.00000  Uiso   1.00
C611   C     0.48331   0.59204   0.78764   0.00000  Uiso   1.00
C612   C     0.50035   0.83607   0.74982   0.00000  Uiso   1.00
C613   C     0.48481   0.90747   0.70771   0.00000  Uiso   1.00
C614   C     0.50150   0.61606   0.75070   0.00000  Uiso   1.00
C615   C     0.50166   0.88400   0.74967   0.00000  Uiso   1.00
C616   C     0.52093   0.59414   0.71393   0.00000  Uiso   1.00
C617   C     0.51978   0.90653   0.79173   0.00000  Uiso   1.00
C618   C     0.52206   0.54819   0.71403   0.00000  Uiso   1.00
C619   C     0.52086   0.95251   0.79188   0.00000  Uiso   1.00
C620   C     0.50324   0.52411   0.75061   0.00000  Uiso   1.00
C621   C     0.50332   0.97601   0.75012   0.00000  Uiso   1.00
C622   C     0.45937   0.72865   0.54786   0.00000  Uiso   1.00
C623   C     0.52453   0.78483   0.94991   0.00000  Uiso   1.00
C624   C     0.46056   0.72873   0.59755   0.00000  Uiso   1.00
C625   C     0.52444   0.78383   0.90037   0.00000  Uiso   1.00
C626   C     0.53927   0.77161   0.60618   0.00000  Uiso   1.00
C627   C     0.47517   0.71632   0.89584   0.00000  Uiso   1.00
C628   C     0.54029   0.77054   0.55708   0.00000  Uiso   1.00
H629   H     0.65852   0.74948   0.69478   0.00000  Uiso   1.00
H630   H     0.53557   0.96972   0.82442   0.00000  Uiso   1.00
H631   H     0.42647   0.71257   0.52644   0.00000  Uiso   1.00
H632   H     0.54300   0.81301   0.96932   0.00000  Uiso   1.00
H633   H     0.42942   0.71210   0.61310   0.00000  Uiso   1.00
H634   H     0.54360   0.81052   0.88317   0.00000  Uiso   1.00
H635   H     0.57285   0.78666   0.54313   0.00000  Uiso   1.00
H636   H     0.45792   0.68759   0.96117   0.00000  Uiso   1.00
H637   H     0.56477   0.80627   0.66090   0.00000  Uiso   1.00
H638   H     0.43510   0.69390   0.83897   0.00000  Uiso   1.00
H639   H     0.34151   0.75014   0.80524   0.00000  Uiso   1.00
H640   H     0.46859   0.52758   0.81556   0.00000  Uiso   1.00
H641   H     0.47108   0.97149   0.67568   0.00000  Uiso   1.00
H642   H     0.46787   0.60872   0.81606   0.00000  Uiso   1.00
H643   H     0.47045   0.89031   0.67506   0.00000  Uiso   1.00
H644   H     0.53569   0.61247   0.68545   0.00000  Uiso   1.00
H645   H     0.53352   0.88867   0.82429   0.00000  Uiso   1.00
H646   H     0.53783   0.53146   0.68580   0.00000  Uiso   1.00
N647   N     0.50000   0.74999   0.62623   0.00000  Uiso   1.00
N648   N     0.50000   0.75001   0.87376   0.00000  Uiso   1.00
O649   O     0.50000   0.68454   0.78974   0.00000  Uiso   1.00
O650   O     0.44786   0.68241   0.87091   0.00000  Uiso   1.00
O651   O     0.50000   0.81547   0.71026   0.00000  Uiso   1.00
O652   O     0.50000   0.68453   0.71026   0.00000  Uiso   1.00
O653   O     0.50000   0.81547   0.78974   0.00000  Uiso   1.00
O654   O     0.42392   0.75000   0.78044   0.00000  Uiso   1.00
O655   O     0.57608   0.75000   0.71955   0.00000  Uiso   1.00
O656   O     0.42392   0.75000   0.70096   0.00000  Uiso   1.00
O657   O     0.57608   0.75001   0.79903   0.00000  Uiso   1.00
O658   O     0.57867   0.79544   0.63281   0.00000  Uiso   1.00
Zn659  Zn    0.50000   0.75001   0.80307   0.00000  Uiso   1.00
Zn660  Zn    0.50000   0.75000   0.69693   0.00000  Uiso   1.00
C661   C     0.83355   0.66394   0.75025   0.00000  Uiso   1.00
C662   C     0.80973   0.71549   0.94525   0.00000  Uiso   1.00
C663   C     0.83316   0.74975   0.52659   0.00000  Uiso   1.00
C664   C     0.83361   0.75016   0.97343   0.00000  Uiso   1.00
C665   C     0.73378   0.74989   0.73767   0.00000  Uiso   1.00
C666   C     0.93289   0.75001   0.76233   0.00000  Uiso   1.00
C667   C     0.67883   0.74974   0.73098   0.00000  Uiso   1.00
C668   C     0.98785   0.74995   0.76903   0.00000  Uiso   1.00
C669   C     0.81721   0.54604   0.78744   0.00000  Uiso   1.00
C670   C     0.81868   0.95350   0.70801   0.00000  Uiso   1.00
C671   C     0.81664   0.59204   0.78764   0.00000  Uiso   1.00
C672   C     0.83368   0.83607   0.74982   0.00000  Uiso   1.00
C673   C     0.81815   0.90747   0.70771   0.00000  Uiso   1.00
C674   C     0.83483   0.61606   0.75070   0.00000  Uiso   1.00
C675   C     0.83500   0.88400   0.74967   0.00000  Uiso   1.00
C676   C     0.85427   0.59414   0.71393   0.00000  Uiso   1.00
C677   C     0.85311   0.90653   0.79173   0.00000  Uiso   1.00
C678   C     0.85540   0.54819   0.71403   0.00000  Uiso   1.00
C679   C     0.85420   0.95251   0.79188   0.00000  Uiso   1.00
C680   C     0.83657   0.52411   0.75061   0.00000  Uiso   1.00
C681   C     0.83665   0.97601   0.75012   0.00000  Uiso   1.00
C682   C     0.79271   0.72865   0.54786   0.00000  Uiso   1.00
C683   C     0.85786   0.78483   0.94991   0.00000  Uiso   1.00
C684   C     0.79389   0.72873   0.59755   0.00000  Uiso   1.00
C685   C     0.85777   0.78383   0.90037   0.00000  Uiso   1.00
C686   C     0.87260   0.77161   0.60618   0.00000  Uiso   1.00
C687   C     0.80850   0.71632   0.89584   0.00000  Uiso   1.00
C688   C     0.87362   0.77054   0.55708   0.00000  Uiso   1.00
H689   H     0.99185   0.74948   0.69478   0.00000  Uiso   1.00
H690   H     0.86890   0.96972   0.82442   0.00000  Uiso   1.00
H691   H     0.75980   0.71257   0.52644   0.00000  Uiso   1.00
H692   H     0.87633   0.81301   0.96932   0.00000  Uiso   1.00
H693   H     0.76275   0.71210   0.61310   0.00000  Uiso   1.00
H694   H     0.87693   0.81052   0.88317   0.00000  Uiso   1.00
H695   H     0.90619   0.78666   0.54313   0.00000  Uiso   1.00
H696   H     0.79125   0.68759   0.96117   0.00000  Uiso   1.00
H697   H     0.89811   0.80627   0.66090   0.00000  Uiso   1.00
H698   H     0.76843   0.69390   0.83897   0.00000  Uiso   1.00
H699   H     0.67484   0.75014   0.80524   0.00000  Uiso   1.00
H700   H     0.80193   0.52758   0.81556   0.00000  Uiso   1.00
H701   H     0.80442   0.97149   0.67568   0.00000  Uiso   1.00
H702   H     0.80120   0.60872   0.81606   0.00000  Uiso   1.00
H703   H     0.80379   0.89031   0.67506   0.00000  Uiso   1.00
H704   H     0.86903   0.61247   0.68545   0.00000  Uiso   1.00
H705   H     0.86685   0.88867   0.82429   0.00000  Uiso   1.00
H706   H     0.87116   0.53146   0.68580   0.00000  Uiso   1.00
N707   N     0.83333   0.74999   0.62623   0.00000  Uiso   1.00
N708   N     0.83333   0.75001   0.87376   0.00000  Uiso   1.00
O709   O     0.83334   0.68454   0.78974   0.00000  Uiso   1.00
O710   O     0.78119   0.68241   0.87091   0.00000  Uiso   1.00
O711   O     0.83333   0.81547   0.71026   0.00000  Uiso   1.00
O712   O     0.83334   0.68453   0.71026   0.00000  Uiso   1.00
O713   O     0.83333   0.81547   0.78974   0.00000  Uiso   1.00
O714   O     0.75725   0.75000   0.78044   0.00000  Uiso   1.00
O715   O     0.90942   0.75000   0.71955   0.00000  Uiso   1.00
O716   O     0.75725   0.75000   0.70096   0.00000  Uiso   1.00
O717   O     0.90942   0.75001   0.79903   0.00000  Uiso   1.00
O718   O     0.91200   0.79544   0.63281   0.00000  Uiso   1.00
Zn719  Zn    0.83333   0.75001   0.80307   0.00000  Uiso   1.00
Zn720  Zn    0.83333   0.75000   0.69693   0.00000  Uiso   1.00
loop_
_geom_bond_atom_site_label_1
_geom_bond_atom_site_label_2
_geom_bond_distance
_geom_bond_site_symmetry_2
_ccdc_geom_bond_type
C1     C14     1.438   .     S
C1     O52     1.288   .     A
C1     O49     1.291   .     A
C2     C4      1.401   .     A
C2     C27     1.403   .     A
C2     H36     1.082   .     S
C3     C28     1.401   .     A
C3     C22     1.414   .     A
C3     C364    1.516   1_554 S
C4     C23     1.414   .     A
C4     C363    1.516   .     S
C5     C7      1.402   .     S
C5     O54     1.281   .     A
C5     O56     1.280   .     A
C6     O57     1.280   .     A
C6     O55     1.281   .     A
C6     C8      1.402   .     S
C7     C128    1.327   1_455 S
C7     H149    1.088   1_455 S
C8     C67     1.327   .     S
C8     H99     1.088   .     S
C9     C20     1.400   .     A
C9     C11     1.381   .     A
C9     H40     1.083   .     S
C10    H41     1.083   .     S
C10    C21     1.400   .     A
C10    C13     1.381   .     A
C11    H42     1.083   .     S
C11    C14     1.398   .     A
C12    C15     1.438   .     S
C12    O51     1.291   .     A
C12    O53     1.289   .     A
C13    C15     1.399   .     A
C13    H43     1.083   .     S
C14    C16     1.400   .     A
C15    C17     1.400   .     A
C16    H44     1.084   .     S
C16    C18     1.380   .     A
C17    C19     1.380   .     A
C17    H45     1.084   .     S
C18    H46     1.083   .     S
C18    C20     1.398   .     A
C19    C21     1.398   .     A
C19    H30     1.083   .     S
C20    C201    1.444   1_545 S
C21    C200    1.444   .     S
C22    C24     1.411   .     A
C22    H31     1.081   .     S
C23    H32     1.081   .     S
C23    C25     1.411   .     A
C24    N47     1.364   .     A
C24    H33     1.082   .     S
C25    N48     1.364   .     A
C25    H34     1.082   .     S
C26    O58     1.373   .     S
C26    C28     1.403   .     A
C26    N47     1.379   .     A
C27    N48     1.379   .     A
C27    O50     1.373   .     S
C28    H35     1.082   .     S
H29    C67     1.088   .     S
H37    O58     0.983   .     S
H38    O50     0.983   .     S
H39    C128    1.088   1_455 S
N47    Zn60    2.013   .     S
N48    Zn59    2.013   .     S
O49    Zn59    2.006   .     S
O51    Zn60    2.006   .     S
O52    Zn60    1.997   .     S
O53    Zn59    1.997   .     S
O54    Zn59    1.975   .     S
O55    Zn60    1.975   .     S
O56    Zn60    1.980   .     S
O57    Zn59    1.980   .     S
C61    C74     1.438   .     S
C61    O112    1.288   .     A
C61    O109    1.291   .     A
C62    C64     1.401   .     A
C62    C87     1.403   .     A
C62    H96     1.082   .     S
C63    C88     1.401   .     A
C63    C82     1.414   .     A
C63    C424    1.516   1_554 S
C64    C83     1.414   .     A
C64    C423    1.516   .     S
C65    C67     1.402   .     S
C65    O114    1.281   .     A
C65    O116    1.280   .     A
C66    O117    1.280   .     A
C66    O115    1.281   .     A
C66    C68     1.402   .     S
C68    C127    1.327   .     S
C68    H159    1.088   .     S
C69    C80     1.400   .     A
C69    C71     1.381   .     A
C69    H100    1.083   .     S
C70    H101    1.083   .     S
C70    C81     1.400   .     A
C70    C73     1.381   .     A
C71    H102    1.083   .     S
C71    C74     1.398   .     A
C72    C75     1.438   .     S
C72    O111    1.291   .     A
C72    O113    1.289   .     A
C73    C75     1.399   .     A
C73    H103    1.083   .     S
C74    C76     1.400   .     A
C75    C77     1.400   .     A
C76    H104    1.084   .     S
C76    C78     1.380   .     A
C77    C79     1.380   .     A
C77    H105    1.084   .     S
C78    H106    1.083   .     S
C78    C80     1.398   .     A
C79    C81     1.398   .     A
C79    H90     1.083   .     S
C80    C261    1.444   1_545 S
C81    C260    1.444   .     S
C82    C84     1.411   .     A
C82    H91     1.081   .     S
C83    H92     1.081   .     S
C83    C85     1.411   .     A
C84    N107    1.364   .     A
C84    H93     1.082   .     S
C85    N108    1.364   .     A
C85    H94     1.082   .     S
C86    O118    1.373   .     S
C86    C88     1.403   .     A
C86    N107    1.379   .     A
C87    N108    1.379   .     A
C87    O110    1.373   .     S
C88    H95     1.082   .     S
H89    C127    1.088   .     S
H97    O118    0.983   .     S
H98    O110    0.983   .     S
N107   Zn120   2.013   .     S
N108   Zn119   2.013   .     S
O109   Zn119   2.006   .     S
O111   Zn120   2.006   .     S
O112   Zn120   1.997   .     S
O113   Zn119   1.997   .     S
O114   Zn119   1.975   .     S
O115   Zn120   1.975   .     S
O116   Zn120   1.980   .     S
O117   Zn119   1.980   .     S
C121   C134    1.438   .     S
C121   O172    1.288   .     A
C121   O169    1.291   .     A
C122   C124    1.401   .     A
C122   C147    1.403   .     A
C122   H156    1.082   .     S
C123   C148    1.401   .     A
C123   C142    1.414   .     A
C123   C484    1.516   1_554 S
C124   C143    1.414   .     A
C124   C483    1.516   .     S
C125   C127    1.402   .     S
C125   O174    1.281   .     A
C125   O176    1.280   .     A
C126   O177    1.280   .     A
C126   O175    1.281   .     A
C126   C128    1.402   .     S
C128   C7      1.327   1_655 S
C128   H39     1.088   1_655 S
C129   C140    1.400   .     A
C129   C131    1.381   .     A
C129   H160    1.083   .     S
C130   H161    1.083   .     S
C130   C141    1.400   .     A
C130   C133    1.381   .     A
C131   H162    1.083   .     S
C131   C134    1.398   .     A
C132   C135    1.438   .     S
C132   O171    1.291   .     A
C132   O173    1.289   .     A
C133   C135    1.399   .     A
C133   H163    1.083   .     S
C134   C136    1.400   .     A
C135   C137    1.400   .     A
C136   H164    1.084   .     S
C136   C138    1.380   .     A
C137   C139    1.380   .     A
C137   H165    1.084   .     S
C138   H166    1.083   .     S
C138   C140    1.398   .     A
C139   C141    1.398   .     A
C139   H150    1.083   .     S
C140   C321    1.444   1_545 S
C141   C320    1.444   .     S
C142   C144    1.411   .     A
C142   H151    1.081   .     S
C143   H152    1.081   .     S
C143   C145    1.411   .     A
C144   N167    1.364   .     A
C144   H153    1.082   .     S
C145   N168    1.364   .     A
C145   H154    1.082   .     S
C146   O178    1.373   .     S
C146   C148    1.403   .     A
C146   N167    1.379   .     A
C147   N168    1.379   .     A
C147   O170    1.373   .     S
C148   H155    1.082   .     S
H149   C7      1.088   1_655 S
H157   O178    0.983   .     S
H158   O170    0.983   .     S
N167   Zn180   2.013   .     S
N168   Zn179   2.013   .     S
O169   Zn179   2.006   .     S
O171   Zn180   2.006   .     S
O172   Zn180   1.997   .     S
O173   Zn179   1.997   .     S
O174   Zn179   1.975   .     S
O175   Zn180   1.975   .     S
O176   Zn180   1.980   .     S
O177   Zn179   1.980   .     S
C181   C194    1.438   .     S
C181   O232    1.288   .     A
C181   O229    1.291   .     A
C182   C184    1.401   .     A
C182   C207    1.403   .     A
C182   H216    1.082   .     S
C183   C208    1.401   .     A
C183   C202    1.414   .     A
C183   C544    1.516   1_554 S
C184   C203    1.414   .     A
C184   C543    1.516   .     S
C185   C187    1.402   .     S
C185   O234    1.281   .     A
C185   O236    1.280   .     A
C186   O237    1.280   .     A
C186   O235    1.281   .     A
C186   C188    1.402   .     S
C187   C308    1.327   1_455 S
C187   H329    1.088   1_455 S
C188   C247    1.327   .     S
C188   H279    1.088   .     S
C189   C200    1.400   .     A
C189   C191    1.381   .     A
C189   H220    1.083   .     S
C190   H221    1.083   .     S
C190   C201    1.400   .     A
C190   C193    1.381   .     A
C191   H222    1.083   .     S
C191   C194    1.398   .     A
C192   C195    1.438   .     S
C192   O231    1.291   .     A
C192   O233    1.289   .     A
C193   C195    1.399   .     A
C193   H223    1.083   .     S
C194   C196    1.400   .     A
C195   C197    1.400   .     A
C196   H224    1.084   .     S
C196   C198    1.380   .     A
C197   C199    1.380   .     A
C197   H225    1.084   .     S
C198   H226    1.083   .     S
C198   C200    1.398   .     A
C199   C201    1.398   .     A
C199   H210    1.083   .     S
C201   C20     1.444   1_565 S
C202   C204    1.411   .     A
C202   H211    1.081   .     S
C203   H212    1.081   .     S
C203   C205    1.411   .     A
C204   N227    1.364   .     A
C204   H213    1.082   .     S
C205   N228    1.364   .     A
C205   H214    1.082   .     S
C206   O238    1.373   .     S
C206   C208    1.403   .     A
C206   N227    1.379   .     A
C207   N228    1.379   .     A
C207   O230    1.373   .     S
C208   H215    1.082   .     S
H209   C247    1.088   .     S
H217   O238    0.983   .     S
H218   O230    0.983   .     S
H219   C308    1.088   1_455 S
N227   Zn240   2.013   .     S
N228   Zn239   2.013   .     S
O229   Zn239   2.006   .     S
O231   Zn240   2.006   .     S
O232   Zn240   1.997   .     S
O233   Zn239   1.997   .     S
O234   Zn239   1.975   .     S
O235   Zn240   1.975   .     S
O236   Zn240   1.980   .     S
O237   Zn239   1.980   .     S
C241   C254    1.438   .     S
C241   O292    1.288   .     A
C241   O289    1.291   .     A
C242   C244    1.401   .     A
C242   C267    1.403   .     A
C242   H276    1.082   .     S
C243   C268    1.401   .     A
C243   C262    1.414   .     A
C243   C604    1.516   1_554 S
C244   C263    1.414   .     A
C244   C603    1.516   .     S
C245   C247    1.402   .     S
C245   O294    1.281   .     A
C245   O296    1.280   .     A
C246   O297    1.280   .     A
C246   O295    1.281   .     A
C246   C248    1.402   .     S
C248   C307    1.327   .     S
C248   H339    1.088   .     S
C249   C260    1.400   .     A
C249   C251    1.381   .     A
C249   H280    1.083   .     S
C250   H281    1.083   .     S
C250   C261    1.400   .     A
C250   C253    1.381   .     A
C251   H282    1.083   .     S
C251   C254    1.398   .     A
C252   C255    1.438   .     S
C252   O291    1.291   .     A
C252   O293    1.289   .     A
C253   C255    1.399   .     A
C253   H283    1.083   .     S
C254   C256    1.400   .     A
C255   C257    1.400   .     A
C256   H284    1.084   .     S
C256   C258    1.380   .     A
C257   C259    1.380   .     A
C257   H285    1.084   .     S
C258   H286    1.083   .     S
C258   C260    1.398   .     A
C259   C261    1.398   .     A
C259   H270    1.083   .     S
C261   C80     1.444   1_565 S
C262   C264    1.411   .     A
C262   H271    1.081   .     S
C263   H272    1.081   .     S
C263   C265    1.411   .     A
C264   N287    1.364   .     A
C264   H273    1.082   .     S
C265   N288    1.364   .     A
C265   H274    1.082   .     S
C266   O298    1.373   .     S
C266   C268    1.403   .     A
C266   N287    1.379   .     A
C267   N288    1.379   .     A
C267   O290    1.373   .     S
C268   H275    1.082   .     S
H269   C307    1.088   .     S
H277   O298    0.983   .     S
H278   O290    0.983   .     S
N287   Zn300   2.013   .     S
N288   Zn299   2.013   .     S
O289   Zn299   2.006   .     S
O291   Zn300   2.006   .     S
O292   Zn300   1.997   .     S
O293   Zn299   1.997   .     S
O294   Zn299   1.975   .     S
O295   Zn300   1.975   .     S
O296   Zn300   1.980   .     S
O297   Zn299   1.980   .     S
C301   C314    1.438   .     S
C301   O352    1.288   .     A
C301   O349    1.291   .     A
C302   C304    1.401   .     A
C302   C327    1.403   .     A
C302   H336    1.082   .     S
C303   C328    1.401   .     A
C303   C322    1.414   .     A
C303   C664    1.516   1_554 S
C304   C323    1.414   .     A
C304   C663    1.516   .     S
C305   C307    1.402   .     S
C305   O354    1.281   .     A
C305   O356    1.280   .     A
C306   O357    1.280   .     A
C306   O355    1.281   .     A
C306   C308    1.402   .     S
C308   C187    1.327   1_655 S
C308   H219    1.088   1_655 S
C309   C320    1.400   .     A
C309   C311    1.381   .     A
C309   H340    1.083   .     S
C310   H341    1.083   .     S
C310   C321    1.400   .     A
C310   C313    1.381   .     A
C311   H342    1.083   .     S
C311   C314    1.398   .     A
C312   C315    1.438   .     S
C312   O351    1.291   .     A
C312   O353    1.289   .     A
C313   C315    1.399   .     A
C313   H343    1.083   .     S
C314   C316    1.400   .     A
C315   C317    1.400   .     A
C316   H344    1.084   .     S
C316   C318    1.380   .     A
C317   C319    1.380   .     A
C317   H345    1.084   .     S
C318   H346    1.083   .     S
C318   C320    1.398   .     A
C319   C321    1.398   .     A
C319   H330    1.083   .     S
C321   C140    1.444   1_565 S
C322   C324    1.411   .     A
C322   H331    1.081   .     S
C323   H332    1.081   .     S
C323   C325    1.411   .     A
C324   N347    1.364   .     A
C324   H333    1.082   .     S
C325   N348    1.364   .     A
C325   H334    1.082   .     S
C326   O358    1.373   .     S
C326   C328    1.403   .     A
C326   N347    1.379   .     A
C327   N348    1.379   .     A
C327   O350    1.373   .     S
C328   H335    1.082   .     S
H329   C187    1.088   1_655 S
H337   O358    0.983   .     S
H338   O350    0.983   .     S
N347   Zn360   2.013   .     S
N348   Zn359   2.013   .     S
O349   Zn359   2.006   .     S
O351   Zn360   2.006   .     S
O352   Zn360   1.997   .     S
O353   Zn359   1.997   .     S
O354   Zn359   1.975   .     S
O355   Zn360   1.975   .     S
O356   Zn360   1.980   .     S
O357   Zn359   1.980   .     S
C361   C374    1.438   .     S
C361   O412    1.288   .     A
C361   O409    1.291   .     A
C362   C364    1.401   .     A
C362   C387    1.403   .     A
C362   H396    1.082   .     S
C363   C388    1.401   .     A
C363   C382    1.414   .     A
C364   C383    1.414   .     A
C364   C3      1.516   1_556 S
C365   C367    1.402   .     S
C365   O414    1.281   .     A
C365   O416    1.280   .     A
C366   O417    1.280   .     A
C366   O415    1.281   .     A
C366   C368    1.402   .     S
C367   C488    1.327   1_455 S
C367   H509    1.088   1_455 S
C368   C427    1.327   .     S
C368   H459    1.088   .     S
C369   C380    1.400   .     A
C369   C371    1.381   .     A
C369   H400    1.083   .     S
C370   H401    1.083   .     S
C370   C381    1.400   .     A
C370   C373    1.381   .     A
C371   H402    1.083   .     S
C371   C374    1.398   .     A
C372   C375    1.438   .     S
C372   O411    1.291   .     A
C372   O413    1.289   .     A
C373   C375    1.399   .     A
C373   H403    1.083   .     S
C374   C376    1.400   .     A
C375   C377    1.400   .     A
C376   H404    1.084   .     S
C376   C378    1.380   .     A
C377   C379    1.380   .     A
C377   H405    1.084   .     S
C378   H406    1.083   .     S
C378   C380    1.398   .     A
C379   C381    1.398   .     A
C379   H390    1.083   .     S
C380   C561    1.444   1_545 S
C381   C560    1.444   .     S
C382   C384    1.411   .     A
C382   H391    1.081   .     S
C383   H392    1.081   .     S
C383   C385    1.411   .     A
C384   N407    1.364   .     A
C384   H393    1.082   .     S
C385   N408    1.364   .     A
C385   H394    1.082   .     S
C386   O418    1.373   .     S
C386   C388    1.403   .     A
C386   N407    1.379   .     A
C387   N408    1.379   .     A
C387   O410    1.373   .     S
C388   H395    1.082   .     S
H389   C427    1.088   .     S
H397   O418    0.983   .     S
H398   O410    0.983   .     S
H399   C488    1.088   1_455 S
N407   Zn420   2.013   .     S
N408   Zn419   2.013   .     S
O409   Zn419   2.006   .     S
O411   Zn420   2.006   .     S
O412   Zn420   1.997   .     S
O413   Zn419   1.997   .     S
O414   Zn419   1.975   .     S
O415   Zn420   1.975   .     S
O416   Zn420   1.980   .     S
O417   Zn419   1.980   .     S
C421   C434    1.438   .     S
C421   O472    1.288   .     A
C421   O469    1.291   .     A
C422   C424    1.401   .     A
C422   C447    1.403   .     A
C422   H456    1.082   .     S
C423   C448    1.401   .     A
C423   C442    1.414   .     A
C424   C443    1.414   .     A
C424   C63     1.516   1_556 S
C425   C427    1.402   .     S
C425   O474    1.281   .     A
C425   O476    1.280   .     A
C426   O477    1.280   .     A
C426   O475    1.281   .     A
C426   C428    1.402   .     S
C428   C487    1.327   .     S
C428   H519    1.088   .     S
C429   C440    1.400   .     A
C429   C431    1.381   .     A
C429   H460    1.083   .     S
C430   H461    1.083   .     S
C430   C441    1.400   .     A
C430   C433    1.381   .     A
C431   H462    1.083   .     S
C431   C434    1.398   .     A
C432   C435    1.438   .     S
C432   O471    1.291   .     A
C432   O473    1.289   .     A
C433   C435    1.399   .     A
C433   H463    1.083   .     S
C434   C436    1.400   .     A
C435   C437    1.400   .     A
C436   H464    1.084   .     S
C436   C438    1.380   .     A
C437   C439    1.380   .     A
C437   H465    1.084   .     S
C438   H466    1.083   .     S
C438   C440    1.398   .     A
C439   C441    1.398   .     A
C439   H450    1.083   .     S
C440   C621    1.444   1_545 S
C441   C620    1.444   .     S
C442   C444    1.411   .     A
C442   H451    1.081   .     S
C443   H452    1.081   .     S
C443   C445    1.411   .     A
C444   N467    1.364   .     A
C444   H453    1.082   .     S
C445   N468    1.364   .     A
C445   H454    1.082   .     S
C446   O478    1.373   .     S
C446   C448    1.403   .     A
C446   N467    1.379   .     A
C447   N468    1.379   .     A
C447   O470    1.373   .     S
C448   H455    1.082   .     S
H449   C487    1.088   .     S
H457   O478    0.983   .     S
H458   O470    0.983   .     S
N467   Zn480   2.013   .     S
N468   Zn479   2.013   .     S
O469   Zn479   2.006   .     S
O471   Zn480   2.006   .     S
O472   Zn480   1.997   .     S
O473   Zn479   1.997   .     S
O474   Zn479   1.975   .     S
O475   Zn480   1.975   .     S
O476   Zn480   1.980   .     S
O477   Zn479   1.980   .     S
C481   C494    1.438   .     S
C481   O532    1.288   .     A
C481   O529    1.291   .     A
C482   C484    1.401   .     A
C482   C507    1.403   .     A
C482   H516    1.082   .     S
C483   C508    1.401   .     A
C483   C502    1.414   .     A
C484   C503    1.414   .     A
C484   C123    1.516   1_556 S
C485   C487    1.402   .     S
C485   O534    1.281   .     A
C485   O536    1.280   .     A
C486   O537    1.280   .     A
C486   O535    1.281   .     A
C486   C488    1.402   .     S
C488   C367    1.327   1_655 S
C488   H399    1.088   1_655 S
C489   C500    1.400   .     A
C489   C491    1.381   .     A
C489   H520    1.083   .     S
C490   H521    1.083   .     S
C490   C501    1.400   .     A
C490   C493    1.381   .     A
C491   H522    1.083   .     S
C491   C494    1.398   .     A
C492   C495    1.438   .     S
C492   O531    1.291   .     A
C492   O533    1.289   .     A
C493   C495    1.399   .     A
C493   H523    1.083   .     S
C494   C496    1.400   .     A
C495   C497    1.400   .     A
C496   H524    1.084   .     S
C496   C498    1.380   .     A
C497   C499    1.380   .     A
C497   H525    1.084   .     S
C498   H526    1.083   .     S
C498   C500    1.398   .     A
C499   C501    1.398   .     A
C499   H510    1.083   .     S
C500   C681    1.444   1_545 S
C501   C680    1.444   .     S
C502   C504    1.411   .     A
C502   H511    1.081   .     S
C503   H512    1.081   .     S
C503   C505    1.411   .     A
C504   N527    1.364   .     A
C504   H513    1.082   .     S
C505   N528    1.364   .     A
C505   H514    1.082   .     S
C506   O538    1.373   .     S
C506   C508    1.403   .     A
C506   N527    1.379   .     A
C507   N528    1.379   .     A
C507   O530    1.373   .     S
C508   H515    1.082   .     S
H509   C367    1.088   1_655 S
H517   O538    0.983   .     S
H518   O530    0.983   .     S
N527   Zn540   2.013   .     S
N528   Zn539   2.013   .     S
O529   Zn539   2.006   .     S
O531   Zn540   2.006   .     S
O532   Zn540   1.997   .     S
O533   Zn539   1.997   .     S
O534   Zn539   1.975   .     S
O535   Zn540   1.975   .     S
O536   Zn540   1.980   .     S
O537   Zn539   1.980   .     S
C541   C554    1.438   .     S
C541   O592    1.288   .     A
C541   O589    1.291   .     A
C542   C544    1.401   .     A
C542   C567    1.403   .     A
C542   H576    1.082   .     S
C543   C568    1.401   .     A
C543   C562    1.414   .     A
C544   C563    1.414   .     A
C544   C183    1.516   1_556 S
C545   C547    1.402   .     S
C545   O594    1.281   .     A
C545   O596    1.280   .     A
C546   O597    1.280   .     A
C546   O595    1.281   .     A
C546   C548    1.402   .     S
C547   C668    1.327   1_455 S
C547   H689    1.088   1_455 S
C548   C607    1.327   .     S
C548   H639    1.088   .     S
C549   C560    1.400   .     A
C549   C551    1.381   .     A
C549   H580    1.083   .     S
C550   H581    1.083   .     S
C550   C561    1.400   .     A
C550   C553    1.381   .     A
C551   H582    1.083   .     S
C551   C554    1.398   .     A
C552   C555    1.438   .     S
C552   O591    1.291   .     A
C552   O593    1.289   .     A
C553   C555    1.399   .     A
C553   H583    1.083   .     S
C554   C556    1.400   .     A
C555   C557    1.400   .     A
C556   H584    1.084   .     S
C556   C558    1.380   .     A
C557   C559    1.380   .     A
C557   H585    1.084   .     S
C558   H586    1.083   .     S
C558   C560    1.398   .     A
C559   C561    1.398   .     A
C559   H570    1.083   .     S
C561   C380    1.444   1_565 S
C562   C564    1.411   .     A
C562   H571    1.081   .     S
C563   H572    1.081   .     S
C563   C565    1.411   .     A
C564   N587    1.364   .     A
C564   H573    1.082   .     S
C565   N588    1.364   .     A
C565   H574    1.082   .     S
C566   O598    1.373   .     S
C566   C568    1.403   .     A
C566   N587    1.379   .     A
C567   N588    1.379   .     A
C567   O590    1.373   .     S
C568   H575    1.082   .     S
H569   C607    1.088   .     S
H577   O598    0.983   .     S
H578   O590    0.983   .     S
H579   C668    1.088   1_455 S
N587   Zn600   2.013   .     S
N588   Zn599   2.013   .     S
O589   Zn599   2.006   .     S
O591   Zn600   2.006   .     S
O592   Zn600   1.997   .     S
O593   Zn599   1.997   .     S
O594   Zn599   1.975   .     S
O595   Zn600   1.975   .     S
O596   Zn600   1.980   .     S
O597   Zn599   1.980   .     S
C601   C614    1.438   .     S
C601   O652    1.288   .     A
C601   O649    1.291   .     A
C602   C604    1.401   .     A
C602   C627    1.403   .     A
C602   H636    1.082   .     S
C603   C628    1.401   .     A
C603   C622    1.414   .     A
C604   C623    1.414   .     A
C604   C243    1.516   1_556 S
C605   C607    1.402   .     S
C605   O654    1.281   .     A
C605   O656    1.280   .     A
C606   O657    1.280   .     A
C606   O655    1.281   .     A
C606   C608    1.402   .     S
C608   C667    1.327   .     S
C608   H699    1.088   .     S
C609   C620    1.400   .     A
C609   C611    1.381   .     A
C609   H640    1.083   .     S
C610   H641    1.083   .     S
C610   C621    1.400   .     A
C610   C613    1.381   .     A
C611   H642    1.083   .     S
C611   C614    1.398   .     A
C612   C615    1.438   .     S
C612   O651    1.291   .     A
C612   O653    1.289   .     A
C613   C615    1.399   .     A
C613   H643    1.083   .     S
C614   C616    1.400   .     A
C615   C617    1.400   .     A
C616   H644    1.084   .     S
C616   C618    1.380   .     A
C617   C619    1.380   .     A
C617   H645    1.084   .     S
C618   H646    1.083   .     S
C618   C620    1.398   .     A
C619   C621    1.398   .     A
C619   H630    1.083   .     S
C621   C440    1.444   1_565 S
C622   C624    1.411   .     A
C622   H631    1.081   .     S
C623   H632    1.081   .     S
C623   C625    1.411   .     A
C624   N647    1.364   .     A
C624   H633    1.082   .     S
C625   N648    1.364   .     A
C625   H634    1.082   .     S
C626   O658    1.373   .     S
C626   C628    1.403   .     A
C626   N647    1.379   .     A
C627   N648    1.379   .     A
C627   O650    1.373   .     S
C628   H635    1.082   .     S
H629   C667    1.088   .     S
H637   O658    0.983   .     S
H638   O650    0.983   .     S
N647   Zn660   2.013   .     S
N648   Zn659   2.013   .     S
O649   Zn659   2.006   .     S
O651   Zn660   2.006   .     S
O652   Zn660   1.997   .     S
O653   Zn659   1.997   .     S
O654   Zn659   1.975   .     S
O655   Zn660   1.975   .     S
O656   Zn660   1.980   .     S
O657   Zn659   1.980   .     S
C661   C674    1.438   .     S
C661   O712    1.288   .     A
C661   O709    1.291   .     A
C662   C664    1.401   .     A
C662   C687    1.403   .     A
C662   H696    1.082   .     S
C663   C688    1.401   .     A
C663   C682    1.414   .     A
C664   C683    1.414   .     A
C664   C303    1.516   1_556 S
C665   C667    1.402   .     S
C665   O714    1.281   .     A
C665   O716    1.280   .     A
C666   O717    1.280   .     A
C666   O715    1.281   .     A
C666   C668    1.402   .     S
C668   C547    1.327   1_655 S
C668   H579    1.088   1_655 S
C669   C680    1.400   .     A
C669   C671    1.381   .     A
C669   H700    1.083   .     S
C670   H701    1.083   .     S
C670   C681    1.400   .     A
C670   C673    1.381   .     A
C671   H702    1.083   .     S
C671   C674    1.398   .     A
C672   C675    1.438   .     S
C672   O711    1.291   .     A
C672   O713    1.289   .     A
C673   C675    1.399   .     A
C673   H703    1.083   .     S
C674   C676    1.400   .     A
C675   C677    1.400   .     A
C676   H704    1.084   .     S
C676   C678    1.380   .     A
C677   C679    1.380   .     A
C677   H705    1.084   .     S
C678   H706    1.083   .     S
C678   C680    1.398   .     A
C679   C681    1.398   .     A
C679   H690    1.083   .     S
C681   C500    1.444   1_565 S
C682   C684    1.411   .     A
C682   H691    1.081   .     S
C683   H692    1.081   .     S
C683   C685    1.411   .     A
C684   N707    1.364   .     A
C684   H693    1.082   .     S
C685   N708    1.364   .     A
C685   H694    1.082   .     S
C686   O718    1.373   .     S
C686   C688    1.403   .     A
C686   N707    1.379   .     A
C687   N708    1.379   .     A
C687   O710    1.373   .     S
C688   H695    1.082   .     S
H689   C547    1.088   1_655 S
H697   O718    0.983   .     S
H698   O710    0.983   .     S
N707   Zn720   2.013   .     S
N708   Zn719   2.013   .     S
O709   Zn719   2.006   .     S
O711   Zn720   2.006   .     S
O712   Zn720   1.997   .     S
O713   Zn719   1.997   .     S
O714   Zn719   1.975   .     S
O715   Zn720   1.975   .     S
O716   Zn720   1.980   .     S
O717   Zn719   1.980   .     S
