data_str_m3_o1_o10_pcu_sym.85
_audit_creation_date              2020-01-03
_audit_creation_method            'Materials Studio'
_symmetry_space_group_name_H-M    'P1'
_symmetry_Int_Tables_number       1
_symmetry_cell_setting            triclinic
loop_
_symmetry_equiv_pos_as_xyz
  x,y,z
_cell_length_a                    25.7382
_cell_length_b                    32.1119
_cell_length_c                    29.7403
_cell_angle_alpha                 89.4875
_cell_angle_beta                  97.8333
_cell_angle_gamma                 91.0084
loop_
_atom_site_label
_atom_site_type_symbol
_atom_site_fract_x
_atom_site_fract_y
_atom_site_fract_z
_atom_site_U_iso_or_equiv
_atom_site_adp_type
_atom_site_occupancy
O1     O     0.16666   0.10558   0.20487   0.00000  Uiso   1.00
O2     O     0.16667   0.22775   0.12846   0.00000  Uiso   1.00
O3     O     0.16666   0.10559   0.12843   0.00000  Uiso   1.00
O4     O     0.16667   0.22774   0.20490   0.00000  Uiso   1.00
C5     C     0.16648   0.08670   0.16675   0.00000  Uiso   1.00
C6     C     0.16685   0.24663   0.16658   0.00000  Uiso   1.00
O7     O     0.09058   0.16666   0.19595   0.00000  Uiso   1.00
O8     O     0.24275   0.16667   0.13739   0.00000  Uiso   1.00
O9     O     0.09058   0.16667   0.11950   0.00000  Uiso   1.00
O10    O     0.24275   0.16666   0.21383   0.00000  Uiso   1.00
C11    C     0.06720   0.16616   0.15493   0.00000  Uiso   1.00
C12    C     0.26613   0.16717   0.17840   0.00000  Uiso   1.00
Zn13   Zn    0.16667   0.16666   0.21771   0.00000  Uiso   1.00
Zn14   Zn    0.16667   0.16667   0.11563   0.00000  Uiso   1.00
N15    N     0.16665   0.16666   0.28573   0.00000  Uiso   1.00
N16    N     0.16668   0.16668   0.04760   0.00000  Uiso   1.00
C17    C     0.01230   0.16384   0.14881   0.00000  Uiso   1.00
C18    C     0.32104   0.16950   0.18452   0.00000  Uiso   1.00
C19    C     0.15383   0.02149   0.12568   0.00000  Uiso   1.00
C20    C     0.17951   0.31184   0.20765   0.00000  Uiso   1.00
C21    C     0.15422   0.31217   0.12554   0.00000  Uiso   1.00
C22    C     0.17911   0.02116   0.20779   0.00000  Uiso   1.00
C23    C     0.16700   0.29082   0.16653   0.00000  Uiso   1.00
C24    C     0.16633   0.04251   0.16681   0.00000  Uiso   1.00
C25    C     0.20685   0.18551   0.02785   0.00000  Uiso   1.00
C26    C     0.12649   0.14783   0.30548   0.00000  Uiso   1.00
C27    C     0.20651   0.18513   0.31344   0.00000  Uiso   1.00
C28    C     0.12682   0.14820   0.01989   0.00000  Uiso   1.00
H29    H     0.32558   0.15653   0.11521   0.00000  Uiso   1.00
H30    H     0.00775   0.17680   0.21812   0.00000  Uiso   1.00
H31    H     0.14347   0.03788   0.09380   0.00000  Uiso   1.00
H32    H     0.18987   0.29545   0.23954   0.00000  Uiso   1.00
H33    H     0.14410   0.29603   0.09362   0.00000  Uiso   1.00
H34    H     0.18924   0.03730   0.23972   0.00000  Uiso   1.00
N35    N     0.24988   0.20621   0.05467   0.00000  Uiso   1.00
O36    O     0.29710   0.20134   0.04477   0.00000  Uiso   1.00
O37    O     0.24108   0.23813   0.07887   0.00000  Uiso   1.00
N38    N     0.08346   0.12712   0.27866   0.00000  Uiso   1.00
O39    O     0.03623   0.13199   0.28855   0.00000  Uiso   1.00
O40    O     0.09226   0.09519   0.25448   0.00000  Uiso   1.00
H41    H     0.23803   0.20024   0.29850   0.00000  Uiso   1.00
H42    H     0.09531   0.13309   0.03483   0.00000  Uiso   1.00
O43    O     0.50000   0.10558   0.20487   0.00000  Uiso   1.00
O44    O     0.50000   0.22775   0.12846   0.00000  Uiso   1.00
O45    O     0.50000   0.10559   0.12843   0.00000  Uiso   1.00
O46    O     0.50000   0.22774   0.20490   0.00000  Uiso   1.00
C47    C     0.49982   0.08670   0.16675   0.00000  Uiso   1.00
C48    C     0.50018   0.24663   0.16658   0.00000  Uiso   1.00
O49    O     0.42392   0.16666   0.19595   0.00000  Uiso   1.00
O50    O     0.57608   0.16667   0.13739   0.00000  Uiso   1.00
O51    O     0.42392   0.16667   0.11950   0.00000  Uiso   1.00
O52    O     0.57608   0.16666   0.21383   0.00000  Uiso   1.00
C53    C     0.40054   0.16616   0.15493   0.00000  Uiso   1.00
C54    C     0.59946   0.16717   0.17840   0.00000  Uiso   1.00
Zn55   Zn    0.50000   0.16666   0.21771   0.00000  Uiso   1.00
Zn56   Zn    0.50000   0.16667   0.11563   0.00000  Uiso   1.00
N57    N     0.49999   0.16666   0.28573   0.00000  Uiso   1.00
N58    N     0.50001   0.16668   0.04760   0.00000  Uiso   1.00
C59    C     0.34563   0.16384   0.14881   0.00000  Uiso   1.00
C60    C     0.65437   0.16950   0.18452   0.00000  Uiso   1.00
C61    C     0.48716   0.02149   0.12568   0.00000  Uiso   1.00
C62    C     0.51284   0.31184   0.20765   0.00000  Uiso   1.00
C63    C     0.48755   0.31217   0.12554   0.00000  Uiso   1.00
C64    C     0.51245   0.02116   0.20779   0.00000  Uiso   1.00
C65    C     0.50034   0.29082   0.16653   0.00000  Uiso   1.00
C66    C     0.49966   0.04251   0.16681   0.00000  Uiso   1.00
C67    C     0.54018   0.18551   0.02785   0.00000  Uiso   1.00
C68    C     0.45982   0.14783   0.30548   0.00000  Uiso   1.00
C69    C     0.53985   0.18513   0.31344   0.00000  Uiso   1.00
C70    C     0.46015   0.14820   0.01989   0.00000  Uiso   1.00
H71    H     0.65892   0.15653   0.11521   0.00000  Uiso   1.00
H72    H     0.34108   0.17680   0.21812   0.00000  Uiso   1.00
H73    H     0.47680   0.03788   0.09380   0.00000  Uiso   1.00
H74    H     0.52320   0.29545   0.23954   0.00000  Uiso   1.00
H75    H     0.47743   0.29603   0.09362   0.00000  Uiso   1.00
H76    H     0.52257   0.03730   0.23972   0.00000  Uiso   1.00
N77    N     0.58321   0.20621   0.05467   0.00000  Uiso   1.00
O78    O     0.63044   0.20134   0.04477   0.00000  Uiso   1.00
O79    O     0.57441   0.23813   0.07887   0.00000  Uiso   1.00
N80    N     0.41680   0.12712   0.27866   0.00000  Uiso   1.00
O81    O     0.36957   0.13199   0.28855   0.00000  Uiso   1.00
O82    O     0.42560   0.09519   0.25448   0.00000  Uiso   1.00
H83    H     0.57136   0.20024   0.29850   0.00000  Uiso   1.00
H84    H     0.42864   0.13309   0.03483   0.00000  Uiso   1.00
O85    O     0.83333   0.10558   0.20487   0.00000  Uiso   1.00
O86    O     0.83334   0.22775   0.12846   0.00000  Uiso   1.00
O87    O     0.83333   0.10559   0.12843   0.00000  Uiso   1.00
O88    O     0.83334   0.22774   0.20490   0.00000  Uiso   1.00
C89    C     0.83315   0.08670   0.16675   0.00000  Uiso   1.00
C90    C     0.83352   0.24663   0.16658   0.00000  Uiso   1.00
O91    O     0.75725   0.16666   0.19595   0.00000  Uiso   1.00
O92    O     0.90942   0.16667   0.13739   0.00000  Uiso   1.00
O93    O     0.75725   0.16667   0.11950   0.00000  Uiso   1.00
O94    O     0.90942   0.16666   0.21383   0.00000  Uiso   1.00
C95    C     0.73387   0.16616   0.15493   0.00000  Uiso   1.00
C96    C     0.93280   0.16717   0.17840   0.00000  Uiso   1.00
Zn97   Zn    0.83333   0.16666   0.21771   0.00000  Uiso   1.00
Zn98   Zn    0.83333   0.16667   0.11563   0.00000  Uiso   1.00
N99    N     0.83332   0.16666   0.28573   0.00000  Uiso   1.00
N100   N     0.83335   0.16668   0.04760   0.00000  Uiso   1.00
C101   C     0.67896   0.16384   0.14881   0.00000  Uiso   1.00
C102   C     0.98770   0.16950   0.18452   0.00000  Uiso   1.00
C103   C     0.82049   0.02149   0.12568   0.00000  Uiso   1.00
C104   C     0.84617   0.31184   0.20765   0.00000  Uiso   1.00
C105   C     0.82089   0.31217   0.12554   0.00000  Uiso   1.00
C106   C     0.84578   0.02116   0.20779   0.00000  Uiso   1.00
C107   C     0.83367   0.29082   0.16653   0.00000  Uiso   1.00
C108   C     0.83300   0.04251   0.16681   0.00000  Uiso   1.00
C109   C     0.87351   0.18551   0.02785   0.00000  Uiso   1.00
C110   C     0.79316   0.14783   0.30548   0.00000  Uiso   1.00
C111   C     0.87318   0.18513   0.31344   0.00000  Uiso   1.00
C112   C     0.79349   0.14820   0.01989   0.00000  Uiso   1.00
H113   H     0.99225   0.15653   0.11521   0.00000  Uiso   1.00
H114   H     0.67442   0.17680   0.21812   0.00000  Uiso   1.00
H115   H     0.81013   0.03788   0.09380   0.00000  Uiso   1.00
H116   H     0.85653   0.29545   0.23954   0.00000  Uiso   1.00
H117   H     0.81076   0.29603   0.09362   0.00000  Uiso   1.00
H118   H     0.85590   0.03730   0.23972   0.00000  Uiso   1.00
N119   N     0.91654   0.20621   0.05467   0.00000  Uiso   1.00
O120   O     0.96377   0.20134   0.04477   0.00000  Uiso   1.00
O121   O     0.90775   0.23813   0.07887   0.00000  Uiso   1.00
N122   N     0.75013   0.12712   0.27866   0.00000  Uiso   1.00
O123   O     0.70290   0.13199   0.28855   0.00000  Uiso   1.00
O124   O     0.75893   0.09519   0.25448   0.00000  Uiso   1.00
H125   H     0.90469   0.20024   0.29850   0.00000  Uiso   1.00
H126   H     0.76197   0.13309   0.03483   0.00000  Uiso   1.00
O127   O     0.16666   0.43892   0.20487   0.00000  Uiso   1.00
O128   O     0.16667   0.56108   0.12846   0.00000  Uiso   1.00
O129   O     0.16666   0.43893   0.12843   0.00000  Uiso   1.00
O130   O     0.16667   0.56107   0.20490   0.00000  Uiso   1.00
C131   C     0.16648   0.42004   0.16675   0.00000  Uiso   1.00
C132   C     0.16685   0.57996   0.16658   0.00000  Uiso   1.00
O133   O     0.09058   0.50000   0.19595   0.00000  Uiso   1.00
O134   O     0.24275   0.50000   0.13739   0.00000  Uiso   1.00
O135   O     0.09058   0.50000   0.11950   0.00000  Uiso   1.00
O136   O     0.24275   0.50000   0.21383   0.00000  Uiso   1.00
C137   C     0.06720   0.49949   0.15493   0.00000  Uiso   1.00
C138   C     0.26613   0.50051   0.17840   0.00000  Uiso   1.00
Zn139  Zn    0.16667   0.49999   0.21771   0.00000  Uiso   1.00
Zn140  Zn    0.16667   0.50001   0.11563   0.00000  Uiso   1.00
N141   N     0.16665   0.49999   0.28573   0.00000  Uiso   1.00
N142   N     0.16668   0.50001   0.04760   0.00000  Uiso   1.00
C143   C     0.01230   0.49717   0.14881   0.00000  Uiso   1.00
C144   C     0.32104   0.50283   0.18452   0.00000  Uiso   1.00
C145   C     0.15383   0.35482   0.12568   0.00000  Uiso   1.00
C146   C     0.17951   0.64518   0.20765   0.00000  Uiso   1.00
C147   C     0.15422   0.64550   0.12554   0.00000  Uiso   1.00
C148   C     0.17911   0.35450   0.20779   0.00000  Uiso   1.00
C149   C     0.16700   0.62415   0.16653   0.00000  Uiso   1.00
C150   C     0.16633   0.37585   0.16681   0.00000  Uiso   1.00
C151   C     0.20685   0.51884   0.02785   0.00000  Uiso   1.00
C152   C     0.12649   0.48116   0.30548   0.00000  Uiso   1.00
C153   C     0.20651   0.51847   0.31344   0.00000  Uiso   1.00
C154   C     0.12682   0.48153   0.01989   0.00000  Uiso   1.00
H155   H     0.32558   0.48987   0.11521   0.00000  Uiso   1.00
H156   H     0.00775   0.51014   0.21812   0.00000  Uiso   1.00
H157   H     0.14347   0.37121   0.09380   0.00000  Uiso   1.00
H158   H     0.18987   0.62879   0.23954   0.00000  Uiso   1.00
H159   H     0.14410   0.62936   0.09362   0.00000  Uiso   1.00
H160   H     0.18924   0.37064   0.23972   0.00000  Uiso   1.00
N161   N     0.24988   0.53954   0.05467   0.00000  Uiso   1.00
O162   O     0.29710   0.53468   0.04477   0.00000  Uiso   1.00
O163   O     0.24108   0.57147   0.07887   0.00000  Uiso   1.00
N164   N     0.08346   0.46045   0.27866   0.00000  Uiso   1.00
O165   O     0.03623   0.46533   0.28855   0.00000  Uiso   1.00
O166   O     0.09226   0.42852   0.25448   0.00000  Uiso   1.00
H167   H     0.23803   0.53357   0.29850   0.00000  Uiso   1.00
H168   H     0.09531   0.46643   0.03483   0.00000  Uiso   1.00
O169   O     0.50000   0.43892   0.20487   0.00000  Uiso   1.00
O170   O     0.50000   0.56108   0.12846   0.00000  Uiso   1.00
O171   O     0.50000   0.43893   0.12843   0.00000  Uiso   1.00
O172   O     0.50000   0.56107   0.20490   0.00000  Uiso   1.00
C173   C     0.49982   0.42004   0.16675   0.00000  Uiso   1.00
C174   C     0.50018   0.57996   0.16658   0.00000  Uiso   1.00
O175   O     0.42392   0.50000   0.19595   0.00000  Uiso   1.00
O176   O     0.57608   0.50000   0.13739   0.00000  Uiso   1.00
O177   O     0.42392   0.50000   0.11950   0.00000  Uiso   1.00
O178   O     0.57608   0.50000   0.21383   0.00000  Uiso   1.00
C179   C     0.40054   0.49949   0.15493   0.00000  Uiso   1.00
C180   C     0.59946   0.50051   0.17840   0.00000  Uiso   1.00
Zn181  Zn    0.50000   0.49999   0.21771   0.00000  Uiso   1.00
Zn182  Zn    0.50000   0.50001   0.11563   0.00000  Uiso   1.00
N183   N     0.49999   0.49999   0.28573   0.00000  Uiso   1.00
N184   N     0.50001   0.50001   0.04760   0.00000  Uiso   1.00
C185   C     0.34563   0.49717   0.14881   0.00000  Uiso   1.00
C186   C     0.65437   0.50283   0.18452   0.00000  Uiso   1.00
C187   C     0.48716   0.35482   0.12568   0.00000  Uiso   1.00
C188   C     0.51284   0.64518   0.20765   0.00000  Uiso   1.00
C189   C     0.48755   0.64550   0.12554   0.00000  Uiso   1.00
C190   C     0.51245   0.35450   0.20779   0.00000  Uiso   1.00
C191   C     0.50034   0.62415   0.16653   0.00000  Uiso   1.00
C192   C     0.49966   0.37585   0.16681   0.00000  Uiso   1.00
C193   C     0.54018   0.51884   0.02785   0.00000  Uiso   1.00
C194   C     0.45982   0.48116   0.30548   0.00000  Uiso   1.00
C195   C     0.53985   0.51847   0.31344   0.00000  Uiso   1.00
C196   C     0.46015   0.48153   0.01989   0.00000  Uiso   1.00
H197   H     0.65892   0.48987   0.11521   0.00000  Uiso   1.00
H198   H     0.34108   0.51014   0.21812   0.00000  Uiso   1.00
H199   H     0.47680   0.37121   0.09380   0.00000  Uiso   1.00
H200   H     0.52320   0.62879   0.23954   0.00000  Uiso   1.00
H201   H     0.47743   0.62936   0.09362   0.00000  Uiso   1.00
H202   H     0.52257   0.37064   0.23972   0.00000  Uiso   1.00
N203   N     0.58321   0.53954   0.05467   0.00000  Uiso   1.00
O204   O     0.63044   0.53468   0.04477   0.00000  Uiso   1.00
O205   O     0.57441   0.57147   0.07887   0.00000  Uiso   1.00
N206   N     0.41680   0.46045   0.27866   0.00000  Uiso   1.00
O207   O     0.36957   0.46533   0.28855   0.00000  Uiso   1.00
O208   O     0.42560   0.42852   0.25448   0.00000  Uiso   1.00
H209   H     0.57136   0.53357   0.29850   0.00000  Uiso   1.00
H210   H     0.42864   0.46643   0.03483   0.00000  Uiso   1.00
O211   O     0.83333   0.43892   0.20487   0.00000  Uiso   1.00
O212   O     0.83334   0.56108   0.12846   0.00000  Uiso   1.00
O213   O     0.83333   0.43893   0.12843   0.00000  Uiso   1.00
O214   O     0.83334   0.56107   0.20490   0.00000  Uiso   1.00
C215   C     0.83315   0.42004   0.16675   0.00000  Uiso   1.00
C216   C     0.83352   0.57996   0.16658   0.00000  Uiso   1.00
O217   O     0.75725   0.50000   0.19595   0.00000  Uiso   1.00
O218   O     0.90942   0.50000   0.13739   0.00000  Uiso   1.00
O219   O     0.75725   0.50000   0.11950   0.00000  Uiso   1.00
O220   O     0.90942   0.50000   0.21383   0.00000  Uiso   1.00
C221   C     0.73387   0.49949   0.15493   0.00000  Uiso   1.00
C222   C     0.93280   0.50051   0.17840   0.00000  Uiso   1.00
Zn223  Zn    0.83333   0.49999   0.21771   0.00000  Uiso   1.00
Zn224  Zn    0.83333   0.50001   0.11563   0.00000  Uiso   1.00
N225   N     0.83332   0.49999   0.28573   0.00000  Uiso   1.00
N226   N     0.83335   0.50001   0.04760   0.00000  Uiso   1.00
C227   C     0.67896   0.49717   0.14881   0.00000  Uiso   1.00
C228   C     0.98770   0.50283   0.18452   0.00000  Uiso   1.00
C229   C     0.82049   0.35482   0.12568   0.00000  Uiso   1.00
C230   C     0.84617   0.64518   0.20765   0.00000  Uiso   1.00
C231   C     0.82089   0.64550   0.12554   0.00000  Uiso   1.00
C232   C     0.84578   0.35450   0.20779   0.00000  Uiso   1.00
C233   C     0.83367   0.62415   0.16653   0.00000  Uiso   1.00
C234   C     0.83300   0.37585   0.16681   0.00000  Uiso   1.00
C235   C     0.87351   0.51884   0.02785   0.00000  Uiso   1.00
C236   C     0.79316   0.48116   0.30548   0.00000  Uiso   1.00
C237   C     0.87318   0.51847   0.31344   0.00000  Uiso   1.00
C238   C     0.79349   0.48153   0.01989   0.00000  Uiso   1.00
H239   H     0.99225   0.48987   0.11521   0.00000  Uiso   1.00
H240   H     0.67442   0.51014   0.21812   0.00000  Uiso   1.00
H241   H     0.81013   0.37121   0.09380   0.00000  Uiso   1.00
H242   H     0.85653   0.62879   0.23954   0.00000  Uiso   1.00
H243   H     0.81076   0.62936   0.09362   0.00000  Uiso   1.00
H244   H     0.85590   0.37064   0.23972   0.00000  Uiso   1.00
N245   N     0.91654   0.53954   0.05467   0.00000  Uiso   1.00
O246   O     0.96377   0.53468   0.04477   0.00000  Uiso   1.00
O247   O     0.90775   0.57147   0.07887   0.00000  Uiso   1.00
N248   N     0.75013   0.46045   0.27866   0.00000  Uiso   1.00
O249   O     0.70290   0.46533   0.28855   0.00000  Uiso   1.00
O250   O     0.75893   0.42852   0.25448   0.00000  Uiso   1.00
H251   H     0.90469   0.53357   0.29850   0.00000  Uiso   1.00
H252   H     0.76197   0.46643   0.03483   0.00000  Uiso   1.00
O253   O     0.16666   0.77225   0.20487   0.00000  Uiso   1.00
O254   O     0.16667   0.89442   0.12846   0.00000  Uiso   1.00
O255   O     0.16666   0.77226   0.12843   0.00000  Uiso   1.00
O256   O     0.16667   0.89441   0.20490   0.00000  Uiso   1.00
C257   C     0.16648   0.75337   0.16675   0.00000  Uiso   1.00
C258   C     0.16685   0.91330   0.16658   0.00000  Uiso   1.00
O259   O     0.09058   0.83333   0.19595   0.00000  Uiso   1.00
O260   O     0.24275   0.83334   0.13739   0.00000  Uiso   1.00
O261   O     0.09058   0.83334   0.11950   0.00000  Uiso   1.00
O262   O     0.24275   0.83333   0.21383   0.00000  Uiso   1.00
C263   C     0.06720   0.83283   0.15493   0.00000  Uiso   1.00
C264   C     0.26613   0.83384   0.17840   0.00000  Uiso   1.00
Zn265  Zn    0.16667   0.83333   0.21771   0.00000  Uiso   1.00
Zn266  Zn    0.16667   0.83334   0.11563   0.00000  Uiso   1.00
N267   N     0.16665   0.83332   0.28573   0.00000  Uiso   1.00
N268   N     0.16668   0.83334   0.04760   0.00000  Uiso   1.00
C269   C     0.01230   0.83050   0.14881   0.00000  Uiso   1.00
C270   C     0.32104   0.83617   0.18452   0.00000  Uiso   1.00
C271   C     0.15383   0.68816   0.12568   0.00000  Uiso   1.00
C272   C     0.17951   0.97851   0.20765   0.00000  Uiso   1.00
C273   C     0.15422   0.97884   0.12554   0.00000  Uiso   1.00
C274   C     0.17911   0.68783   0.20779   0.00000  Uiso   1.00
C275   C     0.16700   0.95749   0.16653   0.00000  Uiso   1.00
C276   C     0.16633   0.70918   0.16681   0.00000  Uiso   1.00
C277   C     0.20685   0.85217   0.02785   0.00000  Uiso   1.00
C278   C     0.12649   0.81449   0.30548   0.00000  Uiso   1.00
C279   C     0.20651   0.85180   0.31344   0.00000  Uiso   1.00
C280   C     0.12682   0.81487   0.01989   0.00000  Uiso   1.00
H281   H     0.32558   0.82320   0.11521   0.00000  Uiso   1.00
H282   H     0.00775   0.84347   0.21812   0.00000  Uiso   1.00
H283   H     0.14347   0.70455   0.09380   0.00000  Uiso   1.00
H284   H     0.18987   0.96212   0.23954   0.00000  Uiso   1.00
H285   H     0.14410   0.96270   0.09362   0.00000  Uiso   1.00
H286   H     0.18924   0.70397   0.23972   0.00000  Uiso   1.00
N287   N     0.24988   0.87288   0.05467   0.00000  Uiso   1.00
O288   O     0.29710   0.86801   0.04477   0.00000  Uiso   1.00
O289   O     0.24108   0.90480   0.07887   0.00000  Uiso   1.00
N290   N     0.08346   0.79378   0.27866   0.00000  Uiso   1.00
O291   O     0.03623   0.79866   0.28855   0.00000  Uiso   1.00
O292   O     0.09226   0.76185   0.25448   0.00000  Uiso   1.00
H293   H     0.23803   0.86691   0.29850   0.00000  Uiso   1.00
H294   H     0.09531   0.79976   0.03483   0.00000  Uiso   1.00
O295   O     0.50000   0.77225   0.20487   0.00000  Uiso   1.00
O296   O     0.50000   0.89442   0.12846   0.00000  Uiso   1.00
O297   O     0.50000   0.77226   0.12843   0.00000  Uiso   1.00
O298   O     0.50000   0.89441   0.20490   0.00000  Uiso   1.00
C299   C     0.49982   0.75337   0.16675   0.00000  Uiso   1.00
C300   C     0.50018   0.91330   0.16658   0.00000  Uiso   1.00
O301   O     0.42392   0.83333   0.19595   0.00000  Uiso   1.00
O302   O     0.57608   0.83334   0.13739   0.00000  Uiso   1.00
O303   O     0.42392   0.83334   0.11950   0.00000  Uiso   1.00
O304   O     0.57608   0.83333   0.21383   0.00000  Uiso   1.00
C305   C     0.40054   0.83283   0.15493   0.00000  Uiso   1.00
C306   C     0.59946   0.83384   0.17840   0.00000  Uiso   1.00
Zn307  Zn    0.50000   0.83333   0.21771   0.00000  Uiso   1.00
Zn308  Zn    0.50000   0.83334   0.11563   0.00000  Uiso   1.00
N309   N     0.49999   0.83332   0.28573   0.00000  Uiso   1.00
N310   N     0.50001   0.83334   0.04760   0.00000  Uiso   1.00
C311   C     0.34563   0.83050   0.14881   0.00000  Uiso   1.00
C312   C     0.65437   0.83617   0.18452   0.00000  Uiso   1.00
C313   C     0.48716   0.68816   0.12568   0.00000  Uiso   1.00
C314   C     0.51284   0.97851   0.20765   0.00000  Uiso   1.00
C315   C     0.48755   0.97884   0.12554   0.00000  Uiso   1.00
C316   C     0.51245   0.68783   0.20779   0.00000  Uiso   1.00
C317   C     0.50034   0.95749   0.16653   0.00000  Uiso   1.00
C318   C     0.49966   0.70918   0.16681   0.00000  Uiso   1.00
C319   C     0.54018   0.85217   0.02785   0.00000  Uiso   1.00
C320   C     0.45982   0.81449   0.30548   0.00000  Uiso   1.00
C321   C     0.53985   0.85180   0.31344   0.00000  Uiso   1.00
C322   C     0.46015   0.81487   0.01989   0.00000  Uiso   1.00
H323   H     0.65892   0.82320   0.11521   0.00000  Uiso   1.00
H324   H     0.34108   0.84347   0.21812   0.00000  Uiso   1.00
H325   H     0.47680   0.70455   0.09380   0.00000  Uiso   1.00
H326   H     0.52320   0.96212   0.23954   0.00000  Uiso   1.00
H327   H     0.47743   0.96270   0.09362   0.00000  Uiso   1.00
H328   H     0.52257   0.70397   0.23972   0.00000  Uiso   1.00
N329   N     0.58321   0.87288   0.05467   0.00000  Uiso   1.00
O330   O     0.63044   0.86801   0.04477   0.00000  Uiso   1.00
O331   O     0.57441   0.90480   0.07887   0.00000  Uiso   1.00
N332   N     0.41680   0.79378   0.27866   0.00000  Uiso   1.00
O333   O     0.36957   0.79866   0.28855   0.00000  Uiso   1.00
O334   O     0.42560   0.76185   0.25448   0.00000  Uiso   1.00
H335   H     0.57136   0.86691   0.29850   0.00000  Uiso   1.00
H336   H     0.42864   0.79976   0.03483   0.00000  Uiso   1.00
O337   O     0.83333   0.77225   0.20487   0.00000  Uiso   1.00
O338   O     0.83334   0.89442   0.12846   0.00000  Uiso   1.00
O339   O     0.83333   0.77226   0.12843   0.00000  Uiso   1.00
O340   O     0.83334   0.89441   0.20490   0.00000  Uiso   1.00
C341   C     0.83315   0.75337   0.16675   0.00000  Uiso   1.00
C342   C     0.83352   0.91330   0.16658   0.00000  Uiso   1.00
O343   O     0.75725   0.83333   0.19595   0.00000  Uiso   1.00
O344   O     0.90942   0.83334   0.13739   0.00000  Uiso   1.00
O345   O     0.75725   0.83334   0.11950   0.00000  Uiso   1.00
O346   O     0.90942   0.83333   0.21383   0.00000  Uiso   1.00
C347   C     0.73387   0.83283   0.15493   0.00000  Uiso   1.00
C348   C     0.93280   0.83384   0.17840   0.00000  Uiso   1.00
Zn349  Zn    0.83333   0.83333   0.21771   0.00000  Uiso   1.00
Zn350  Zn    0.83333   0.83334   0.11563   0.00000  Uiso   1.00
N351   N     0.83332   0.83332   0.28573   0.00000  Uiso   1.00
N352   N     0.83335   0.83334   0.04760   0.00000  Uiso   1.00
C353   C     0.67896   0.83050   0.14881   0.00000  Uiso   1.00
C354   C     0.98770   0.83617   0.18452   0.00000  Uiso   1.00
C355   C     0.82049   0.68816   0.12568   0.00000  Uiso   1.00
C356   C     0.84617   0.97851   0.20765   0.00000  Uiso   1.00
C357   C     0.82089   0.97884   0.12554   0.00000  Uiso   1.00
C358   C     0.84578   0.68783   0.20779   0.00000  Uiso   1.00
C359   C     0.83367   0.95749   0.16653   0.00000  Uiso   1.00
C360   C     0.83300   0.70918   0.16681   0.00000  Uiso   1.00
C361   C     0.87351   0.85217   0.02785   0.00000  Uiso   1.00
C362   C     0.79316   0.81449   0.30548   0.00000  Uiso   1.00
C363   C     0.87318   0.85180   0.31344   0.00000  Uiso   1.00
C364   C     0.79349   0.81487   0.01989   0.00000  Uiso   1.00
H365   H     0.99225   0.82320   0.11521   0.00000  Uiso   1.00
H366   H     0.67442   0.84347   0.21812   0.00000  Uiso   1.00
H367   H     0.81013   0.70455   0.09380   0.00000  Uiso   1.00
H368   H     0.85653   0.96212   0.23954   0.00000  Uiso   1.00
H369   H     0.81076   0.96270   0.09362   0.00000  Uiso   1.00
H370   H     0.85590   0.70397   0.23972   0.00000  Uiso   1.00
N371   N     0.91654   0.87288   0.05467   0.00000  Uiso   1.00
O372   O     0.96377   0.86801   0.04477   0.00000  Uiso   1.00
O373   O     0.90775   0.90480   0.07887   0.00000  Uiso   1.00
N374   N     0.75013   0.79378   0.27866   0.00000  Uiso   1.00
O375   O     0.70290   0.79866   0.28855   0.00000  Uiso   1.00
O376   O     0.75893   0.76185   0.25448   0.00000  Uiso   1.00
H377   H     0.90469   0.86691   0.29850   0.00000  Uiso   1.00
H378   H     0.76197   0.79976   0.03483   0.00000  Uiso   1.00
O379   O     0.16666   0.10558   0.53821   0.00000  Uiso   1.00
O380   O     0.16667   0.22775   0.46179   0.00000  Uiso   1.00
O381   O     0.16666   0.10559   0.46176   0.00000  Uiso   1.00
O382   O     0.16667   0.22774   0.53824   0.00000  Uiso   1.00
C383   C     0.16648   0.08670   0.50009   0.00000  Uiso   1.00
C384   C     0.16685   0.24663   0.49991   0.00000  Uiso   1.00
O385   O     0.09058   0.16666   0.52928   0.00000  Uiso   1.00
O386   O     0.24275   0.16667   0.47072   0.00000  Uiso   1.00
O387   O     0.09058   0.16667   0.45284   0.00000  Uiso   1.00
O388   O     0.24275   0.16666   0.54716   0.00000  Uiso   1.00
C389   C     0.06720   0.16616   0.48827   0.00000  Uiso   1.00
C390   C     0.26613   0.16717   0.51173   0.00000  Uiso   1.00
Zn391  Zn    0.16667   0.16666   0.55104   0.00000  Uiso   1.00
Zn392  Zn    0.16667   0.16667   0.44896   0.00000  Uiso   1.00
N393   N     0.16665   0.16666   0.61907   0.00000  Uiso   1.00
N394   N     0.16668   0.16668   0.38093   0.00000  Uiso   1.00
C395   C     0.01230   0.16384   0.48214   0.00000  Uiso   1.00
C396   C     0.32104   0.16950   0.51786   0.00000  Uiso   1.00
C397   C     0.15383   0.02149   0.45901   0.00000  Uiso   1.00
C398   C     0.17951   0.31184   0.54099   0.00000  Uiso   1.00
C399   C     0.15422   0.31217   0.45887   0.00000  Uiso   1.00
C400   C     0.17911   0.02116   0.54113   0.00000  Uiso   1.00
C401   C     0.16700   0.29082   0.49986   0.00000  Uiso   1.00
C402   C     0.16633   0.04251   0.50014   0.00000  Uiso   1.00
C403   C     0.20685   0.18551   0.36119   0.00000  Uiso   1.00
C404   C     0.12649   0.14783   0.63881   0.00000  Uiso   1.00
C405   C     0.20651   0.18513   0.64677   0.00000  Uiso   1.00
C406   C     0.12682   0.14820   0.35323   0.00000  Uiso   1.00
H407   H     0.32558   0.15653   0.44854   0.00000  Uiso   1.00
H408   H     0.00775   0.17680   0.55146   0.00000  Uiso   1.00
H409   H     0.14347   0.03788   0.42713   0.00000  Uiso   1.00
H410   H     0.18987   0.29545   0.57287   0.00000  Uiso   1.00
H411   H     0.14410   0.29603   0.42695   0.00000  Uiso   1.00
H412   H     0.18924   0.03730   0.57305   0.00000  Uiso   1.00
N413   N     0.24988   0.20621   0.38800   0.00000  Uiso   1.00
O414   O     0.29710   0.20134   0.37811   0.00000  Uiso   1.00
O415   O     0.24108   0.23813   0.41220   0.00000  Uiso   1.00
N416   N     0.08346   0.12712   0.61199   0.00000  Uiso   1.00
O417   O     0.03623   0.13199   0.62188   0.00000  Uiso   1.00
O418   O     0.09226   0.09519   0.58781   0.00000  Uiso   1.00
H419   H     0.23803   0.20024   0.63183   0.00000  Uiso   1.00
H420   H     0.09531   0.13309   0.36817   0.00000  Uiso   1.00
O421   O     0.50000   0.10558   0.53821   0.00000  Uiso   1.00
O422   O     0.50000   0.22775   0.46179   0.00000  Uiso   1.00
O423   O     0.50000   0.10559   0.46176   0.00000  Uiso   1.00
O424   O     0.50000   0.22774   0.53824   0.00000  Uiso   1.00
C425   C     0.49982   0.08670   0.50009   0.00000  Uiso   1.00
C426   C     0.50018   0.24663   0.49991   0.00000  Uiso   1.00
O427   O     0.42392   0.16666   0.52928   0.00000  Uiso   1.00
O428   O     0.57608   0.16667   0.47072   0.00000  Uiso   1.00
O429   O     0.42392   0.16667   0.45284   0.00000  Uiso   1.00
O430   O     0.57608   0.16666   0.54716   0.00000  Uiso   1.00
C431   C     0.40054   0.16616   0.48827   0.00000  Uiso   1.00
C432   C     0.59946   0.16717   0.51173   0.00000  Uiso   1.00
Zn433  Zn    0.50000   0.16666   0.55104   0.00000  Uiso   1.00
Zn434  Zn    0.50000   0.16667   0.44896   0.00000  Uiso   1.00
N435   N     0.49999   0.16666   0.61907   0.00000  Uiso   1.00
N436   N     0.50001   0.16668   0.38093   0.00000  Uiso   1.00
C437   C     0.34563   0.16384   0.48214   0.00000  Uiso   1.00
C438   C     0.65437   0.16950   0.51786   0.00000  Uiso   1.00
C439   C     0.48716   0.02149   0.45901   0.00000  Uiso   1.00
C440   C     0.51284   0.31184   0.54099   0.00000  Uiso   1.00
C441   C     0.48755   0.31217   0.45887   0.00000  Uiso   1.00
C442   C     0.51245   0.02116   0.54113   0.00000  Uiso   1.00
C443   C     0.50034   0.29082   0.49986   0.00000  Uiso   1.00
C444   C     0.49966   0.04251   0.50014   0.00000  Uiso   1.00
C445   C     0.54018   0.18551   0.36119   0.00000  Uiso   1.00
C446   C     0.45982   0.14783   0.63881   0.00000  Uiso   1.00
C447   C     0.53985   0.18513   0.64677   0.00000  Uiso   1.00
C448   C     0.46015   0.14820   0.35323   0.00000  Uiso   1.00
H449   H     0.65892   0.15653   0.44854   0.00000  Uiso   1.00
H450   H     0.34108   0.17680   0.55146   0.00000  Uiso   1.00
H451   H     0.47680   0.03788   0.42713   0.00000  Uiso   1.00
H452   H     0.52320   0.29545   0.57287   0.00000  Uiso   1.00
H453   H     0.47743   0.29603   0.42695   0.00000  Uiso   1.00
H454   H     0.52257   0.03730   0.57305   0.00000  Uiso   1.00
N455   N     0.58321   0.20621   0.38800   0.00000  Uiso   1.00
O456   O     0.63044   0.20134   0.37811   0.00000  Uiso   1.00
O457   O     0.57441   0.23813   0.41220   0.00000  Uiso   1.00
N458   N     0.41680   0.12712   0.61199   0.00000  Uiso   1.00
O459   O     0.36957   0.13199   0.62188   0.00000  Uiso   1.00
O460   O     0.42560   0.09519   0.58781   0.00000  Uiso   1.00
H461   H     0.57136   0.20024   0.63183   0.00000  Uiso   1.00
H462   H     0.42864   0.13309   0.36817   0.00000  Uiso   1.00
O463   O     0.83333   0.10558   0.53821   0.00000  Uiso   1.00
O464   O     0.83334   0.22775   0.46179   0.00000  Uiso   1.00
O465   O     0.83333   0.10559   0.46176   0.00000  Uiso   1.00
O466   O     0.83334   0.22774   0.53824   0.00000  Uiso   1.00
C467   C     0.83315   0.08670   0.50009   0.00000  Uiso   1.00
C468   C     0.83352   0.24663   0.49991   0.00000  Uiso   1.00
O469   O     0.75725   0.16666   0.52928   0.00000  Uiso   1.00
O470   O     0.90942   0.16667   0.47072   0.00000  Uiso   1.00
O471   O     0.75725   0.16667   0.45284   0.00000  Uiso   1.00
O472   O     0.90942   0.16666   0.54716   0.00000  Uiso   1.00
C473   C     0.73387   0.16616   0.48827   0.00000  Uiso   1.00
C474   C     0.93280   0.16717   0.51173   0.00000  Uiso   1.00
Zn475  Zn    0.83333   0.16666   0.55104   0.00000  Uiso   1.00
Zn476  Zn    0.83333   0.16667   0.44896   0.00000  Uiso   1.00
N477   N     0.83332   0.16666   0.61907   0.00000  Uiso   1.00
N478   N     0.83335   0.16668   0.38093   0.00000  Uiso   1.00
C479   C     0.67896   0.16384   0.48214   0.00000  Uiso   1.00
C480   C     0.98770   0.16950   0.51786   0.00000  Uiso   1.00
C481   C     0.82049   0.02149   0.45901   0.00000  Uiso   1.00
C482   C     0.84617   0.31184   0.54099   0.00000  Uiso   1.00
C483   C     0.82089   0.31217   0.45887   0.00000  Uiso   1.00
C484   C     0.84578   0.02116   0.54113   0.00000  Uiso   1.00
C485   C     0.83367   0.29082   0.49986   0.00000  Uiso   1.00
C486   C     0.83300   0.04251   0.50014   0.00000  Uiso   1.00
C487   C     0.87351   0.18551   0.36119   0.00000  Uiso   1.00
C488   C     0.79316   0.14783   0.63881   0.00000  Uiso   1.00
C489   C     0.87318   0.18513   0.64677   0.00000  Uiso   1.00
C490   C     0.79349   0.14820   0.35323   0.00000  Uiso   1.00
H491   H     0.99225   0.15653   0.44854   0.00000  Uiso   1.00
H492   H     0.67442   0.17680   0.55146   0.00000  Uiso   1.00
H493   H     0.81013   0.03788   0.42713   0.00000  Uiso   1.00
H494   H     0.85653   0.29545   0.57287   0.00000  Uiso   1.00
H495   H     0.81076   0.29603   0.42695   0.00000  Uiso   1.00
H496   H     0.85590   0.03730   0.57305   0.00000  Uiso   1.00
N497   N     0.91654   0.20621   0.38800   0.00000  Uiso   1.00
O498   O     0.96377   0.20134   0.37811   0.00000  Uiso   1.00
O499   O     0.90775   0.23813   0.41220   0.00000  Uiso   1.00
N500   N     0.75013   0.12712   0.61199   0.00000  Uiso   1.00
O501   O     0.70290   0.13199   0.62188   0.00000  Uiso   1.00
O502   O     0.75893   0.09519   0.58781   0.00000  Uiso   1.00
H503   H     0.90469   0.20024   0.63183   0.00000  Uiso   1.00
H504   H     0.76197   0.13309   0.36817   0.00000  Uiso   1.00
O505   O     0.16666   0.43892   0.53821   0.00000  Uiso   1.00
O506   O     0.16667   0.56108   0.46179   0.00000  Uiso   1.00
O507   O     0.16666   0.43893   0.46176   0.00000  Uiso   1.00
O508   O     0.16667   0.56107   0.53824   0.00000  Uiso   1.00
C509   C     0.16648   0.42004   0.50009   0.00000  Uiso   1.00
C510   C     0.16685   0.57996   0.49991   0.00000  Uiso   1.00
O511   O     0.09058   0.50000   0.52928   0.00000  Uiso   1.00
O512   O     0.24275   0.50000   0.47072   0.00000  Uiso   1.00
O513   O     0.09058   0.50000   0.45284   0.00000  Uiso   1.00
O514   O     0.24275   0.50000   0.54716   0.00000  Uiso   1.00
C515   C     0.06720   0.49949   0.48827   0.00000  Uiso   1.00
C516   C     0.26613   0.50051   0.51173   0.00000  Uiso   1.00
Zn517  Zn    0.16667   0.49999   0.55104   0.00000  Uiso   1.00
Zn518  Zn    0.16667   0.50001   0.44896   0.00000  Uiso   1.00
N519   N     0.16665   0.49999   0.61907   0.00000  Uiso   1.00
N520   N     0.16668   0.50001   0.38093   0.00000  Uiso   1.00
C521   C     0.01230   0.49717   0.48214   0.00000  Uiso   1.00
C522   C     0.32104   0.50283   0.51786   0.00000  Uiso   1.00
C523   C     0.15383   0.35482   0.45901   0.00000  Uiso   1.00
C524   C     0.17951   0.64518   0.54099   0.00000  Uiso   1.00
C525   C     0.15422   0.64550   0.45887   0.00000  Uiso   1.00
C526   C     0.17911   0.35450   0.54113   0.00000  Uiso   1.00
C527   C     0.16700   0.62415   0.49986   0.00000  Uiso   1.00
C528   C     0.16633   0.37585   0.50014   0.00000  Uiso   1.00
C529   C     0.20685   0.51884   0.36119   0.00000  Uiso   1.00
C530   C     0.12649   0.48116   0.63881   0.00000  Uiso   1.00
C531   C     0.20651   0.51847   0.64677   0.00000  Uiso   1.00
C532   C     0.12682   0.48153   0.35323   0.00000  Uiso   1.00
H533   H     0.32558   0.48987   0.44854   0.00000  Uiso   1.00
H534   H     0.00775   0.51014   0.55146   0.00000  Uiso   1.00
H535   H     0.14347   0.37121   0.42713   0.00000  Uiso   1.00
H536   H     0.18987   0.62879   0.57287   0.00000  Uiso   1.00
H537   H     0.14410   0.62936   0.42695   0.00000  Uiso   1.00
H538   H     0.18924   0.37064   0.57305   0.00000  Uiso   1.00
N539   N     0.24988   0.53954   0.38800   0.00000  Uiso   1.00
O540   O     0.29710   0.53468   0.37811   0.00000  Uiso   1.00
O541   O     0.24108   0.57147   0.41220   0.00000  Uiso   1.00
N542   N     0.08346   0.46045   0.61199   0.00000  Uiso   1.00
O543   O     0.03623   0.46533   0.62188   0.00000  Uiso   1.00
O544   O     0.09226   0.42852   0.58781   0.00000  Uiso   1.00
H545   H     0.23803   0.53357   0.63183   0.00000  Uiso   1.00
H546   H     0.09531   0.46643   0.36817   0.00000  Uiso   1.00
O547   O     0.50000   0.43892   0.53821   0.00000  Uiso   1.00
O548   O     0.50000   0.56108   0.46179   0.00000  Uiso   1.00
O549   O     0.50000   0.43893   0.46176   0.00000  Uiso   1.00
O550   O     0.50000   0.56107   0.53824   0.00000  Uiso   1.00
C551   C     0.49982   0.42004   0.50009   0.00000  Uiso   1.00
C552   C     0.50018   0.57996   0.49991   0.00000  Uiso   1.00
O553   O     0.42392   0.50000   0.52928   0.00000  Uiso   1.00
O554   O     0.57608   0.50000   0.47072   0.00000  Uiso   1.00
O555   O     0.42392   0.50000   0.45284   0.00000  Uiso   1.00
O556   O     0.57608   0.50000   0.54716   0.00000  Uiso   1.00
C557   C     0.40054   0.49949   0.48827   0.00000  Uiso   1.00
C558   C     0.59946   0.50051   0.51173   0.00000  Uiso   1.00
Zn559  Zn    0.50000   0.49999   0.55104   0.00000  Uiso   1.00
Zn560  Zn    0.50000   0.50001   0.44896   0.00000  Uiso   1.00
N561   N     0.49999   0.49999   0.61907   0.00000  Uiso   1.00
N562   N     0.50001   0.50001   0.38093   0.00000  Uiso   1.00
C563   C     0.34563   0.49717   0.48214   0.00000  Uiso   1.00
C564   C     0.65437   0.50283   0.51786   0.00000  Uiso   1.00
C565   C     0.48716   0.35482   0.45901   0.00000  Uiso   1.00
C566   C     0.51284   0.64518   0.54099   0.00000  Uiso   1.00
C567   C     0.48755   0.64550   0.45887   0.00000  Uiso   1.00
C568   C     0.51245   0.35450   0.54113   0.00000  Uiso   1.00
C569   C     0.50034   0.62415   0.49986   0.00000  Uiso   1.00
C570   C     0.49966   0.37585   0.50014   0.00000  Uiso   1.00
C571   C     0.54018   0.51884   0.36119   0.00000  Uiso   1.00
C572   C     0.45982   0.48116   0.63881   0.00000  Uiso   1.00
C573   C     0.53985   0.51847   0.64677   0.00000  Uiso   1.00
C574   C     0.46015   0.48153   0.35323   0.00000  Uiso   1.00
H575   H     0.65892   0.48987   0.44854   0.00000  Uiso   1.00
H576   H     0.34108   0.51014   0.55146   0.00000  Uiso   1.00
H577   H     0.47680   0.37121   0.42713   0.00000  Uiso   1.00
H578   H     0.52320   0.62879   0.57287   0.00000  Uiso   1.00
H579   H     0.47743   0.62936   0.42695   0.00000  Uiso   1.00
H580   H     0.52257   0.37064   0.57305   0.00000  Uiso   1.00
N581   N     0.58321   0.53954   0.38800   0.00000  Uiso   1.00
O582   O     0.63044   0.53468   0.37811   0.00000  Uiso   1.00
O583   O     0.57441   0.57147   0.41220   0.00000  Uiso   1.00
N584   N     0.41680   0.46045   0.61199   0.00000  Uiso   1.00
O585   O     0.36957   0.46533   0.62188   0.00000  Uiso   1.00
O586   O     0.42560   0.42852   0.58781   0.00000  Uiso   1.00
H587   H     0.57136   0.53357   0.63183   0.00000  Uiso   1.00
H588   H     0.42864   0.46643   0.36817   0.00000  Uiso   1.00
O589   O     0.83333   0.43892   0.53821   0.00000  Uiso   1.00
O590   O     0.83334   0.56108   0.46179   0.00000  Uiso   1.00
O591   O     0.83333   0.43893   0.46176   0.00000  Uiso   1.00
O592   O     0.83334   0.56107   0.53824   0.00000  Uiso   1.00
C593   C     0.83315   0.42004   0.50009   0.00000  Uiso   1.00
C594   C     0.83352   0.57996   0.49991   0.00000  Uiso   1.00
O595   O     0.75725   0.50000   0.52928   0.00000  Uiso   1.00
O596   O     0.90942   0.50000   0.47072   0.00000  Uiso   1.00
O597   O     0.75725   0.50000   0.45284   0.00000  Uiso   1.00
O598   O     0.90942   0.50000   0.54716   0.00000  Uiso   1.00
C599   C     0.73387   0.49949   0.48827   0.00000  Uiso   1.00
C600   C     0.93280   0.50051   0.51173   0.00000  Uiso   1.00
Zn601  Zn    0.83333   0.49999   0.55104   0.00000  Uiso   1.00
Zn602  Zn    0.83333   0.50001   0.44896   0.00000  Uiso   1.00
N603   N     0.83332   0.49999   0.61907   0.00000  Uiso   1.00
N604   N     0.83335   0.50001   0.38093   0.00000  Uiso   1.00
C605   C     0.67896   0.49717   0.48214   0.00000  Uiso   1.00
C606   C     0.98770   0.50283   0.51786   0.00000  Uiso   1.00
C607   C     0.82049   0.35482   0.45901   0.00000  Uiso   1.00
C608   C     0.84617   0.64518   0.54099   0.00000  Uiso   1.00
C609   C     0.82089   0.64550   0.45887   0.00000  Uiso   1.00
C610   C     0.84578   0.35450   0.54113   0.00000  Uiso   1.00
C611   C     0.83367   0.62415   0.49986   0.00000  Uiso   1.00
C612   C     0.83300   0.37585   0.50014   0.00000  Uiso   1.00
C613   C     0.87351   0.51884   0.36119   0.00000  Uiso   1.00
C614   C     0.79316   0.48116   0.63881   0.00000  Uiso   1.00
C615   C     0.87318   0.51847   0.64677   0.00000  Uiso   1.00
C616   C     0.79349   0.48153   0.35323   0.00000  Uiso   1.00
H617   H     0.99225   0.48987   0.44854   0.00000  Uiso   1.00
H618   H     0.67442   0.51014   0.55146   0.00000  Uiso   1.00
H619   H     0.81013   0.37121   0.42713   0.00000  Uiso   1.00
H620   H     0.85653   0.62879   0.57287   0.00000  Uiso   1.00
H621   H     0.81076   0.62936   0.42695   0.00000  Uiso   1.00
H622   H     0.85590   0.37064   0.57305   0.00000  Uiso   1.00
N623   N     0.91654   0.53954   0.38800   0.00000  Uiso   1.00
O624   O     0.96377   0.53468   0.37811   0.00000  Uiso   1.00
O625   O     0.90775   0.57147   0.41220   0.00000  Uiso   1.00
N626   N     0.75013   0.46045   0.61199   0.00000  Uiso   1.00
O627   O     0.70290   0.46533   0.62188   0.00000  Uiso   1.00
O628   O     0.75893   0.42852   0.58781   0.00000  Uiso   1.00
H629   H     0.90469   0.53357   0.63183   0.00000  Uiso   1.00
H630   H     0.76197   0.46643   0.36817   0.00000  Uiso   1.00
O631   O     0.16666   0.77225   0.53821   0.00000  Uiso   1.00
O632   O     0.16667   0.89442   0.46179   0.00000  Uiso   1.00
O633   O     0.16666   0.77226   0.46176   0.00000  Uiso   1.00
O634   O     0.16667   0.89441   0.53824   0.00000  Uiso   1.00
C635   C     0.16648   0.75337   0.50009   0.00000  Uiso   1.00
C636   C     0.16685   0.91330   0.49991   0.00000  Uiso   1.00
O637   O     0.09058   0.83333   0.52928   0.00000  Uiso   1.00
O638   O     0.24275   0.83334   0.47072   0.00000  Uiso   1.00
O639   O     0.09058   0.83334   0.45284   0.00000  Uiso   1.00
O640   O     0.24275   0.83333   0.54716   0.00000  Uiso   1.00
C641   C     0.06720   0.83283   0.48827   0.00000  Uiso   1.00
C642   C     0.26613   0.83384   0.51173   0.00000  Uiso   1.00
Zn643  Zn    0.16667   0.83333   0.55104   0.00000  Uiso   1.00
Zn644  Zn    0.16667   0.83334   0.44896   0.00000  Uiso   1.00
N645   N     0.16665   0.83332   0.61907   0.00000  Uiso   1.00
N646   N     0.16668   0.83334   0.38093   0.00000  Uiso   1.00
C647   C     0.01230   0.83050   0.48214   0.00000  Uiso   1.00
C648   C     0.32104   0.83617   0.51786   0.00000  Uiso   1.00
C649   C     0.15383   0.68816   0.45901   0.00000  Uiso   1.00
C650   C     0.17951   0.97851   0.54099   0.00000  Uiso   1.00
C651   C     0.15422   0.97884   0.45887   0.00000  Uiso   1.00
C652   C     0.17911   0.68783   0.54113   0.00000  Uiso   1.00
C653   C     0.16700   0.95749   0.49986   0.00000  Uiso   1.00
C654   C     0.16633   0.70918   0.50014   0.00000  Uiso   1.00
C655   C     0.20685   0.85217   0.36119   0.00000  Uiso   1.00
C656   C     0.12649   0.81449   0.63881   0.00000  Uiso   1.00
C657   C     0.20651   0.85180   0.64677   0.00000  Uiso   1.00
C658   C     0.12682   0.81487   0.35323   0.00000  Uiso   1.00
H659   H     0.32558   0.82320   0.44854   0.00000  Uiso   1.00
H660   H     0.00775   0.84347   0.55146   0.00000  Uiso   1.00
H661   H     0.14347   0.70455   0.42713   0.00000  Uiso   1.00
H662   H     0.18987   0.96212   0.57287   0.00000  Uiso   1.00
H663   H     0.14410   0.96270   0.42695   0.00000  Uiso   1.00
H664   H     0.18924   0.70397   0.57305   0.00000  Uiso   1.00
N665   N     0.24988   0.87288   0.38800   0.00000  Uiso   1.00
O666   O     0.29710   0.86801   0.37811   0.00000  Uiso   1.00
O667   O     0.24108   0.90480   0.41220   0.00000  Uiso   1.00
N668   N     0.08346   0.79378   0.61199   0.00000  Uiso   1.00
O669   O     0.03623   0.79866   0.62188   0.00000  Uiso   1.00
O670   O     0.09226   0.76185   0.58781   0.00000  Uiso   1.00
H671   H     0.23803   0.86691   0.63183   0.00000  Uiso   1.00
H672   H     0.09531   0.79976   0.36817   0.00000  Uiso   1.00
O673   O     0.50000   0.77225   0.53821   0.00000  Uiso   1.00
O674   O     0.50000   0.89442   0.46179   0.00000  Uiso   1.00
O675   O     0.50000   0.77226   0.46176   0.00000  Uiso   1.00
O676   O     0.50000   0.89441   0.53824   0.00000  Uiso   1.00
C677   C     0.49982   0.75337   0.50009   0.00000  Uiso   1.00
C678   C     0.50018   0.91330   0.49991   0.00000  Uiso   1.00
O679   O     0.42392   0.83333   0.52928   0.00000  Uiso   1.00
O680   O     0.57608   0.83334   0.47072   0.00000  Uiso   1.00
O681   O     0.42392   0.83334   0.45284   0.00000  Uiso   1.00
O682   O     0.57608   0.83333   0.54716   0.00000  Uiso   1.00
C683   C     0.40054   0.83283   0.48827   0.00000  Uiso   1.00
C684   C     0.59946   0.83384   0.51173   0.00000  Uiso   1.00
Zn685  Zn    0.50000   0.83333   0.55104   0.00000  Uiso   1.00
Zn686  Zn    0.50000   0.83334   0.44896   0.00000  Uiso   1.00
N687   N     0.49999   0.83332   0.61907   0.00000  Uiso   1.00
N688   N     0.50001   0.83334   0.38093   0.00000  Uiso   1.00
C689   C     0.34563   0.83050   0.48214   0.00000  Uiso   1.00
C690   C     0.65437   0.83617   0.51786   0.00000  Uiso   1.00
C691   C     0.48716   0.68816   0.45901   0.00000  Uiso   1.00
C692   C     0.51284   0.97851   0.54099   0.00000  Uiso   1.00
C693   C     0.48755   0.97884   0.45887   0.00000  Uiso   1.00
C694   C     0.51245   0.68783   0.54113   0.00000  Uiso   1.00
C695   C     0.50034   0.95749   0.49986   0.00000  Uiso   1.00
C696   C     0.49966   0.70918   0.50014   0.00000  Uiso   1.00
C697   C     0.54018   0.85217   0.36119   0.00000  Uiso   1.00
C698   C     0.45982   0.81449   0.63881   0.00000  Uiso   1.00
C699   C     0.53985   0.85180   0.64677   0.00000  Uiso   1.00
C700   C     0.46015   0.81487   0.35323   0.00000  Uiso   1.00
H701   H     0.65892   0.82320   0.44854   0.00000  Uiso   1.00
H702   H     0.34108   0.84347   0.55146   0.00000  Uiso   1.00
H703   H     0.47680   0.70455   0.42713   0.00000  Uiso   1.00
H704   H     0.52320   0.96212   0.57287   0.00000  Uiso   1.00
H705   H     0.47743   0.96270   0.42695   0.00000  Uiso   1.00
H706   H     0.52257   0.70397   0.57305   0.00000  Uiso   1.00
N707   N     0.58321   0.87288   0.38800   0.00000  Uiso   1.00
O708   O     0.63044   0.86801   0.37811   0.00000  Uiso   1.00
O709   O     0.57441   0.90480   0.41220   0.00000  Uiso   1.00
N710   N     0.41680   0.79378   0.61199   0.00000  Uiso   1.00
O711   O     0.36957   0.79866   0.62188   0.00000  Uiso   1.00
O712   O     0.42560   0.76185   0.58781   0.00000  Uiso   1.00
H713   H     0.57136   0.86691   0.63183   0.00000  Uiso   1.00
H714   H     0.42864   0.79976   0.36817   0.00000  Uiso   1.00
O715   O     0.83333   0.77225   0.53821   0.00000  Uiso   1.00
O716   O     0.83334   0.89442   0.46179   0.00000  Uiso   1.00
O717   O     0.83333   0.77226   0.46176   0.00000  Uiso   1.00
O718   O     0.83334   0.89441   0.53824   0.00000  Uiso   1.00
C719   C     0.83315   0.75337   0.50009   0.00000  Uiso   1.00
C720   C     0.83352   0.91330   0.49991   0.00000  Uiso   1.00
O721   O     0.75725   0.83333   0.52928   0.00000  Uiso   1.00
O722   O     0.90942   0.83334   0.47072   0.00000  Uiso   1.00
O723   O     0.75725   0.83334   0.45284   0.00000  Uiso   1.00
O724   O     0.90942   0.83333   0.54716   0.00000  Uiso   1.00
C725   C     0.73387   0.83283   0.48827   0.00000  Uiso   1.00
C726   C     0.93280   0.83384   0.51173   0.00000  Uiso   1.00
Zn727  Zn    0.83333   0.83333   0.55104   0.00000  Uiso   1.00
Zn728  Zn    0.83333   0.83334   0.44896   0.00000  Uiso   1.00
N729   N     0.83332   0.83332   0.61907   0.00000  Uiso   1.00
N730   N     0.83335   0.83334   0.38093   0.00000  Uiso   1.00
C731   C     0.67896   0.83050   0.48214   0.00000  Uiso   1.00
C732   C     0.98770   0.83617   0.51786   0.00000  Uiso   1.00
C733   C     0.82049   0.68816   0.45901   0.00000  Uiso   1.00
C734   C     0.84617   0.97851   0.54099   0.00000  Uiso   1.00
C735   C     0.82089   0.97884   0.45887   0.00000  Uiso   1.00
C736   C     0.84578   0.68783   0.54113   0.00000  Uiso   1.00
C737   C     0.83367   0.95749   0.49986   0.00000  Uiso   1.00
C738   C     0.83300   0.70918   0.50014   0.00000  Uiso   1.00
C739   C     0.87351   0.85217   0.36119   0.00000  Uiso   1.00
C740   C     0.79316   0.81449   0.63881   0.00000  Uiso   1.00
C741   C     0.87318   0.85180   0.64677   0.00000  Uiso   1.00
C742   C     0.79349   0.81487   0.35323   0.00000  Uiso   1.00
H743   H     0.99225   0.82320   0.44854   0.00000  Uiso   1.00
H744   H     0.67442   0.84347   0.55146   0.00000  Uiso   1.00
H745   H     0.81013   0.70455   0.42713   0.00000  Uiso   1.00
H746   H     0.85653   0.96212   0.57287   0.00000  Uiso   1.00
H747   H     0.81076   0.96270   0.42695   0.00000  Uiso   1.00
H748   H     0.85590   0.70397   0.57305   0.00000  Uiso   1.00
N749   N     0.91654   0.87288   0.38800   0.00000  Uiso   1.00
O750   O     0.96377   0.86801   0.37811   0.00000  Uiso   1.00
O751   O     0.90775   0.90480   0.41220   0.00000  Uiso   1.00
N752   N     0.75013   0.79378   0.61199   0.00000  Uiso   1.00
O753   O     0.70290   0.79866   0.62188   0.00000  Uiso   1.00
O754   O     0.75893   0.76185   0.58781   0.00000  Uiso   1.00
H755   H     0.90469   0.86691   0.63183   0.00000  Uiso   1.00
H756   H     0.76197   0.79976   0.36817   0.00000  Uiso   1.00
O757   O     0.16666   0.10558   0.87154   0.00000  Uiso   1.00
O758   O     0.16667   0.22775   0.79513   0.00000  Uiso   1.00
O759   O     0.16666   0.10559   0.79510   0.00000  Uiso   1.00
O760   O     0.16667   0.22774   0.87157   0.00000  Uiso   1.00
C761   C     0.16648   0.08670   0.83342   0.00000  Uiso   1.00
C762   C     0.16685   0.24663   0.83325   0.00000  Uiso   1.00
O763   O     0.09058   0.16666   0.86261   0.00000  Uiso   1.00
O764   O     0.24275   0.16667   0.80405   0.00000  Uiso   1.00
O765   O     0.09058   0.16667   0.78617   0.00000  Uiso   1.00
O766   O     0.24275   0.16666   0.88050   0.00000  Uiso   1.00
C767   C     0.06720   0.16616   0.82160   0.00000  Uiso   1.00
C768   C     0.26613   0.16717   0.84507   0.00000  Uiso   1.00
Zn769  Zn    0.16667   0.16666   0.88437   0.00000  Uiso   1.00
Zn770  Zn    0.16667   0.16667   0.78229   0.00000  Uiso   1.00
N771   N     0.16665   0.16666   0.95240   0.00000  Uiso   1.00
N772   N     0.16668   0.16668   0.71427   0.00000  Uiso   1.00
C773   C     0.01230   0.16384   0.81548   0.00000  Uiso   1.00
C774   C     0.32104   0.16950   0.85119   0.00000  Uiso   1.00
C775   C     0.15383   0.02149   0.79235   0.00000  Uiso   1.00
C776   C     0.17951   0.31184   0.87432   0.00000  Uiso   1.00
C777   C     0.15422   0.31217   0.79221   0.00000  Uiso   1.00
C778   C     0.17911   0.02116   0.87446   0.00000  Uiso   1.00
C779   C     0.16700   0.29082   0.83319   0.00000  Uiso   1.00
C780   C     0.16633   0.04251   0.83347   0.00000  Uiso   1.00
C781   C     0.20685   0.18551   0.69452   0.00000  Uiso   1.00
C782   C     0.12649   0.14783   0.97215   0.00000  Uiso   1.00
C783   C     0.20651   0.18513   0.98011   0.00000  Uiso   1.00
C784   C     0.12682   0.14820   0.68656   0.00000  Uiso   1.00
H785   H     0.32558   0.15653   0.78188   0.00000  Uiso   1.00
H786   H     0.00775   0.17680   0.88479   0.00000  Uiso   1.00
H787   H     0.14347   0.03788   0.76046   0.00000  Uiso   1.00
H788   H     0.18987   0.29545   0.90621   0.00000  Uiso   1.00
H789   H     0.14410   0.29603   0.76028   0.00000  Uiso   1.00
H790   H     0.18924   0.03730   0.90638   0.00000  Uiso   1.00
N791   N     0.24988   0.20621   0.72134   0.00000  Uiso   1.00
O792   O     0.29710   0.20134   0.71144   0.00000  Uiso   1.00
O793   O     0.24108   0.23813   0.74554   0.00000  Uiso   1.00
N794   N     0.08346   0.12712   0.94533   0.00000  Uiso   1.00
O795   O     0.03623   0.13199   0.95522   0.00000  Uiso   1.00
O796   O     0.09226   0.09519   0.92115   0.00000  Uiso   1.00
H797   H     0.23803   0.20024   0.96517   0.00000  Uiso   1.00
H798   H     0.09531   0.13309   0.70150   0.00000  Uiso   1.00
O799   O     0.50000   0.10558   0.87154   0.00000  Uiso   1.00
O800   O     0.50000   0.22775   0.79513   0.00000  Uiso   1.00
O801   O     0.50000   0.10559   0.79510   0.00000  Uiso   1.00
O802   O     0.50000   0.22774   0.87157   0.00000  Uiso   1.00
C803   C     0.49982   0.08670   0.83342   0.00000  Uiso   1.00
C804   C     0.50018   0.24663   0.83325   0.00000  Uiso   1.00
O805   O     0.42392   0.16666   0.86261   0.00000  Uiso   1.00
O806   O     0.57608   0.16667   0.80405   0.00000  Uiso   1.00
O807   O     0.42392   0.16667   0.78617   0.00000  Uiso   1.00
O808   O     0.57608   0.16666   0.88050   0.00000  Uiso   1.00
C809   C     0.40054   0.16616   0.82160   0.00000  Uiso   1.00
C810   C     0.59946   0.16717   0.84507   0.00000  Uiso   1.00
Zn811  Zn    0.50000   0.16666   0.88437   0.00000  Uiso   1.00
Zn812  Zn    0.50000   0.16667   0.78229   0.00000  Uiso   1.00
N813   N     0.49999   0.16666   0.95240   0.00000  Uiso   1.00
N814   N     0.50001   0.16668   0.71427   0.00000  Uiso   1.00
C815   C     0.34563   0.16384   0.81548   0.00000  Uiso   1.00
C816   C     0.65437   0.16950   0.85119   0.00000  Uiso   1.00
C817   C     0.48716   0.02149   0.79235   0.00000  Uiso   1.00
C818   C     0.51284   0.31184   0.87432   0.00000  Uiso   1.00
C819   C     0.48755   0.31217   0.79221   0.00000  Uiso   1.00
C820   C     0.51245   0.02116   0.87446   0.00000  Uiso   1.00
C821   C     0.50034   0.29082   0.83319   0.00000  Uiso   1.00
C822   C     0.49966   0.04251   0.83347   0.00000  Uiso   1.00
C823   C     0.54018   0.18551   0.69452   0.00000  Uiso   1.00
C824   C     0.45982   0.14783   0.97215   0.00000  Uiso   1.00
C825   C     0.53985   0.18513   0.98011   0.00000  Uiso   1.00
C826   C     0.46015   0.14820   0.68656   0.00000  Uiso   1.00
H827   H     0.65892   0.15653   0.78188   0.00000  Uiso   1.00
H828   H     0.34108   0.17680   0.88479   0.00000  Uiso   1.00
H829   H     0.47680   0.03788   0.76046   0.00000  Uiso   1.00
H830   H     0.52320   0.29545   0.90621   0.00000  Uiso   1.00
H831   H     0.47743   0.29603   0.76028   0.00000  Uiso   1.00
H832   H     0.52257   0.03730   0.90638   0.00000  Uiso   1.00
N833   N     0.58321   0.20621   0.72134   0.00000  Uiso   1.00
O834   O     0.63044   0.20134   0.71144   0.00000  Uiso   1.00
O835   O     0.57441   0.23813   0.74554   0.00000  Uiso   1.00
N836   N     0.41680   0.12712   0.94533   0.00000  Uiso   1.00
O837   O     0.36957   0.13199   0.95522   0.00000  Uiso   1.00
O838   O     0.42560   0.09519   0.92115   0.00000  Uiso   1.00
H839   H     0.57136   0.20024   0.96517   0.00000  Uiso   1.00
H840   H     0.42864   0.13309   0.70150   0.00000  Uiso   1.00
O841   O     0.83333   0.10558   0.87154   0.00000  Uiso   1.00
O842   O     0.83334   0.22775   0.79513   0.00000  Uiso   1.00
O843   O     0.83333   0.10559   0.79510   0.00000  Uiso   1.00
O844   O     0.83334   0.22774   0.87157   0.00000  Uiso   1.00
C845   C     0.83315   0.08670   0.83342   0.00000  Uiso   1.00
C846   C     0.83352   0.24663   0.83325   0.00000  Uiso   1.00
O847   O     0.75725   0.16666   0.86261   0.00000  Uiso   1.00
O848   O     0.90942   0.16667   0.80405   0.00000  Uiso   1.00
O849   O     0.75725   0.16667   0.78617   0.00000  Uiso   1.00
O850   O     0.90942   0.16666   0.88050   0.00000  Uiso   1.00
C851   C     0.73387   0.16616   0.82160   0.00000  Uiso   1.00
C852   C     0.93280   0.16717   0.84507   0.00000  Uiso   1.00
Zn853  Zn    0.83333   0.16666   0.88437   0.00000  Uiso   1.00
Zn854  Zn    0.83333   0.16667   0.78229   0.00000  Uiso   1.00
N855   N     0.83332   0.16666   0.95240   0.00000  Uiso   1.00
N856   N     0.83335   0.16668   0.71427   0.00000  Uiso   1.00
C857   C     0.67896   0.16384   0.81548   0.00000  Uiso   1.00
C858   C     0.98770   0.16950   0.85119   0.00000  Uiso   1.00
C859   C     0.82049   0.02149   0.79235   0.00000  Uiso   1.00
C860   C     0.84617   0.31184   0.87432   0.00000  Uiso   1.00
C861   C     0.82089   0.31217   0.79221   0.00000  Uiso   1.00
C862   C     0.84578   0.02116   0.87446   0.00000  Uiso   1.00
C863   C     0.83367   0.29082   0.83319   0.00000  Uiso   1.00
C864   C     0.83300   0.04251   0.83347   0.00000  Uiso   1.00
C865   C     0.87351   0.18551   0.69452   0.00000  Uiso   1.00
C866   C     0.79316   0.14783   0.97215   0.00000  Uiso   1.00
C867   C     0.87318   0.18513   0.98011   0.00000  Uiso   1.00
C868   C     0.79349   0.14820   0.68656   0.00000  Uiso   1.00
H869   H     0.99225   0.15653   0.78188   0.00000  Uiso   1.00
H870   H     0.67442   0.17680   0.88479   0.00000  Uiso   1.00
H871   H     0.81013   0.03788   0.76046   0.00000  Uiso   1.00
H872   H     0.85653   0.29545   0.90621   0.00000  Uiso   1.00
H873   H     0.81076   0.29603   0.76028   0.00000  Uiso   1.00
H874   H     0.85590   0.03730   0.90638   0.00000  Uiso   1.00
N875   N     0.91654   0.20621   0.72134   0.00000  Uiso   1.00
O876   O     0.96377   0.20134   0.71144   0.00000  Uiso   1.00
O877   O     0.90775   0.23813   0.74554   0.00000  Uiso   1.00
N878   N     0.75013   0.12712   0.94533   0.00000  Uiso   1.00
O879   O     0.70290   0.13199   0.95522   0.00000  Uiso   1.00
O880   O     0.75893   0.09519   0.92115   0.00000  Uiso   1.00
H881   H     0.90469   0.20024   0.96517   0.00000  Uiso   1.00
H882   H     0.76197   0.13309   0.70150   0.00000  Uiso   1.00
O883   O     0.16666   0.43892   0.87154   0.00000  Uiso   1.00
O884   O     0.16667   0.56108   0.79513   0.00000  Uiso   1.00
O885   O     0.16666   0.43893   0.79510   0.00000  Uiso   1.00
O886   O     0.16667   0.56107   0.87157   0.00000  Uiso   1.00
C887   C     0.16648   0.42004   0.83342   0.00000  Uiso   1.00
C888   C     0.16685   0.57996   0.83325   0.00000  Uiso   1.00
O889   O     0.09058   0.50000   0.86261   0.00000  Uiso   1.00
O890   O     0.24275   0.50000   0.80405   0.00000  Uiso   1.00
O891   O     0.09058   0.50000   0.78617   0.00000  Uiso   1.00
O892   O     0.24275   0.50000   0.88050   0.00000  Uiso   1.00
C893   C     0.06720   0.49949   0.82160   0.00000  Uiso   1.00
C894   C     0.26613   0.50051   0.84507   0.00000  Uiso   1.00
Zn895  Zn    0.16667   0.49999   0.88437   0.00000  Uiso   1.00
Zn896  Zn    0.16667   0.50001   0.78229   0.00000  Uiso   1.00
N897   N     0.16665   0.49999   0.95240   0.00000  Uiso   1.00
N898   N     0.16668   0.50001   0.71427   0.00000  Uiso   1.00
C899   C     0.01230   0.49717   0.81548   0.00000  Uiso   1.00
C900   C     0.32104   0.50283   0.85119   0.00000  Uiso   1.00
C901   C     0.15383   0.35482   0.79235   0.00000  Uiso   1.00
C902   C     0.17951   0.64518   0.87432   0.00000  Uiso   1.00
C903   C     0.15422   0.64550   0.79221   0.00000  Uiso   1.00
C904   C     0.17911   0.35450   0.87446   0.00000  Uiso   1.00
C905   C     0.16700   0.62415   0.83319   0.00000  Uiso   1.00
C906   C     0.16633   0.37585   0.83347   0.00000  Uiso   1.00
C907   C     0.20685   0.51884   0.69452   0.00000  Uiso   1.00
C908   C     0.12649   0.48116   0.97215   0.00000  Uiso   1.00
C909   C     0.20651   0.51847   0.98011   0.00000  Uiso   1.00
C910   C     0.12682   0.48153   0.68656   0.00000  Uiso   1.00
H911   H     0.32558   0.48987   0.78188   0.00000  Uiso   1.00
H912   H     0.00775   0.51014   0.88479   0.00000  Uiso   1.00
H913   H     0.14347   0.37121   0.76046   0.00000  Uiso   1.00
H914   H     0.18987   0.62879   0.90621   0.00000  Uiso   1.00
H915   H     0.14410   0.62936   0.76028   0.00000  Uiso   1.00
H916   H     0.18924   0.37064   0.90638   0.00000  Uiso   1.00
N917   N     0.24988   0.53954   0.72134   0.00000  Uiso   1.00
O918   O     0.29710   0.53468   0.71144   0.00000  Uiso   1.00
O919   O     0.24108   0.57147   0.74554   0.00000  Uiso   1.00
N920   N     0.08346   0.46045   0.94533   0.00000  Uiso   1.00
O921   O     0.03623   0.46533   0.95522   0.00000  Uiso   1.00
O922   O     0.09226   0.42852   0.92115   0.00000  Uiso   1.00
H923   H     0.23803   0.53357   0.96517   0.00000  Uiso   1.00
H924   H     0.09531   0.46643   0.70150   0.00000  Uiso   1.00
O925   O     0.50000   0.43892   0.87154   0.00000  Uiso   1.00
O926   O     0.50000   0.56108   0.79513   0.00000  Uiso   1.00
O927   O     0.50000   0.43893   0.79510   0.00000  Uiso   1.00
O928   O     0.50000   0.56107   0.87157   0.00000  Uiso   1.00
C929   C     0.49982   0.42004   0.83342   0.00000  Uiso   1.00
C930   C     0.50018   0.57996   0.83325   0.00000  Uiso   1.00
O931   O     0.42392   0.50000   0.86261   0.00000  Uiso   1.00
O932   O     0.57608   0.50000   0.80405   0.00000  Uiso   1.00
O933   O     0.42392   0.50000   0.78617   0.00000  Uiso   1.00
O934   O     0.57608   0.50000   0.88050   0.00000  Uiso   1.00
C935   C     0.40054   0.49949   0.82160   0.00000  Uiso   1.00
C936   C     0.59946   0.50051   0.84507   0.00000  Uiso   1.00
Zn937  Zn    0.50000   0.49999   0.88437   0.00000  Uiso   1.00
Zn938  Zn    0.50000   0.50001   0.78229   0.00000  Uiso   1.00
N939   N     0.49999   0.49999   0.95240   0.00000  Uiso   1.00
N940   N     0.50001   0.50001   0.71427   0.00000  Uiso   1.00
C941   C     0.34563   0.49717   0.81548   0.00000  Uiso   1.00
C942   C     0.65437   0.50283   0.85119   0.00000  Uiso   1.00
C943   C     0.48716   0.35482   0.79235   0.00000  Uiso   1.00
C944   C     0.51284   0.64518   0.87432   0.00000  Uiso   1.00
C945   C     0.48755   0.64550   0.79221   0.00000  Uiso   1.00
C946   C     0.51245   0.35450   0.87446   0.00000  Uiso   1.00
C947   C     0.50034   0.62415   0.83319   0.00000  Uiso   1.00
C948   C     0.49966   0.37585   0.83347   0.00000  Uiso   1.00
C949   C     0.54018   0.51884   0.69452   0.00000  Uiso   1.00
C950   C     0.45982   0.48116   0.97215   0.00000  Uiso   1.00
C951   C     0.53985   0.51847   0.98011   0.00000  Uiso   1.00
C952   C     0.46015   0.48153   0.68656   0.00000  Uiso   1.00
H953   H     0.65892   0.48987   0.78188   0.00000  Uiso   1.00
H954   H     0.34108   0.51014   0.88479   0.00000  Uiso   1.00
H955   H     0.47680   0.37121   0.76046   0.00000  Uiso   1.00
H956   H     0.52320   0.62879   0.90621   0.00000  Uiso   1.00
H957   H     0.47743   0.62936   0.76028   0.00000  Uiso   1.00
H958   H     0.52257   0.37064   0.90638   0.00000  Uiso   1.00
N959   N     0.58321   0.53954   0.72134   0.00000  Uiso   1.00
O960   O     0.63044   0.53468   0.71144   0.00000  Uiso   1.00
O961   O     0.57441   0.57147   0.74554   0.00000  Uiso   1.00
N962   N     0.41680   0.46045   0.94533   0.00000  Uiso   1.00
O963   O     0.36957   0.46533   0.95522   0.00000  Uiso   1.00
O964   O     0.42560   0.42852   0.92115   0.00000  Uiso   1.00
H965   H     0.57136   0.53357   0.96517   0.00000  Uiso   1.00
H966   H     0.42864   0.46643   0.70150   0.00000  Uiso   1.00
O967   O     0.83333   0.43892   0.87154   0.00000  Uiso   1.00
O968   O     0.83334   0.56108   0.79513   0.00000  Uiso   1.00
O969   O     0.83333   0.43893   0.79510   0.00000  Uiso   1.00
O970   O     0.83334   0.56107   0.87157   0.00000  Uiso   1.00
C971   C     0.83315   0.42004   0.83342   0.00000  Uiso   1.00
C972   C     0.83352   0.57996   0.83325   0.00000  Uiso   1.00
O973   O     0.75725   0.50000   0.86261   0.00000  Uiso   1.00
O974   O     0.90942   0.50000   0.80405   0.00000  Uiso   1.00
O975   O     0.75725   0.50000   0.78617   0.00000  Uiso   1.00
O976   O     0.90942   0.50000   0.88050   0.00000  Uiso   1.00
C977   C     0.73387   0.49949   0.82160   0.00000  Uiso   1.00
C978   C     0.93280   0.50051   0.84507   0.00000  Uiso   1.00
Zn979  Zn    0.83333   0.49999   0.88437   0.00000  Uiso   1.00
Zn980  Zn    0.83333   0.50001   0.78229   0.00000  Uiso   1.00
N981   N     0.83332   0.49999   0.95240   0.00000  Uiso   1.00
N982   N     0.83335   0.50001   0.71427   0.00000  Uiso   1.00
C983   C     0.67896   0.49717   0.81548   0.00000  Uiso   1.00
C984   C     0.98770   0.50283   0.85119   0.00000  Uiso   1.00
C985   C     0.82049   0.35482   0.79235   0.00000  Uiso   1.00
C986   C     0.84617   0.64518   0.87432   0.00000  Uiso   1.00
C987   C     0.82089   0.64550   0.79221   0.00000  Uiso   1.00
C988   C     0.84578   0.35450   0.87446   0.00000  Uiso   1.00
C989   C     0.83367   0.62415   0.83319   0.00000  Uiso   1.00
C990   C     0.83300   0.37585   0.83347   0.00000  Uiso   1.00
C991   C     0.87351   0.51884   0.69452   0.00000  Uiso   1.00
C992   C     0.79316   0.48116   0.97215   0.00000  Uiso   1.00
C993   C     0.87318   0.51847   0.98011   0.00000  Uiso   1.00
C994   C     0.79349   0.48153   0.68656   0.00000  Uiso   1.00
H995   H     0.99225   0.48987   0.78188   0.00000  Uiso   1.00
H996   H     0.67442   0.51014   0.88479   0.00000  Uiso   1.00
H997   H     0.81013   0.37121   0.76046   0.00000  Uiso   1.00
H998   H     0.85653   0.62879   0.90621   0.00000  Uiso   1.00
H999   H     0.81076   0.62936   0.76028   0.00000  Uiso   1.00
H1000  H     0.85590   0.37064   0.90638   0.00000  Uiso   1.00
N1001  N     0.91654   0.53954   0.72134   0.00000  Uiso   1.00
O1002  O     0.96377   0.53468   0.71144   0.00000  Uiso   1.00
O1003  O     0.90775   0.57147   0.74554   0.00000  Uiso   1.00
N1004  N     0.75013   0.46045   0.94533   0.00000  Uiso   1.00
O1005  O     0.70290   0.46533   0.95522   0.00000  Uiso   1.00
O1006  O     0.75893   0.42852   0.92115   0.00000  Uiso   1.00
H1007  H     0.90469   0.53357   0.96517   0.00000  Uiso   1.00
H1008  H     0.76197   0.46643   0.70150   0.00000  Uiso   1.00
O1009  O     0.16666   0.77225   0.87154   0.00000  Uiso   1.00
O1010  O     0.16667   0.89442   0.79513   0.00000  Uiso   1.00
O1011  O     0.16666   0.77226   0.79510   0.00000  Uiso   1.00
O1012  O     0.16667   0.89441   0.87157   0.00000  Uiso   1.00
C1013  C     0.16648   0.75337   0.83342   0.00000  Uiso   1.00
C1014  C     0.16685   0.91330   0.83325   0.00000  Uiso   1.00
O1015  O     0.09058   0.83333   0.86261   0.00000  Uiso   1.00
O1016  O     0.24275   0.83334   0.80405   0.00000  Uiso   1.00
O1017  O     0.09058   0.83334   0.78617   0.00000  Uiso   1.00
O1018  O     0.24275   0.83333   0.88050   0.00000  Uiso   1.00
C1019  C     0.06720   0.83283   0.82160   0.00000  Uiso   1.00
C1020  C     0.26613   0.83384   0.84507   0.00000  Uiso   1.00
Zn1021 Zn    0.16667   0.83333   0.88437   0.00000  Uiso   1.00
Zn1022 Zn    0.16667   0.83334   0.78229   0.00000  Uiso   1.00
N1023  N     0.16665   0.83332   0.95240   0.00000  Uiso   1.00
N1024  N     0.16668   0.83334   0.71427   0.00000  Uiso   1.00
C1025  C     0.01230   0.83050   0.81548   0.00000  Uiso   1.00
C1026  C     0.32104   0.83617   0.85119   0.00000  Uiso   1.00
C1027  C     0.15383   0.68816   0.79235   0.00000  Uiso   1.00
C1028  C     0.17951   0.97851   0.87432   0.00000  Uiso   1.00
C1029  C     0.15422   0.97884   0.79221   0.00000  Uiso   1.00
C1030  C     0.17911   0.68783   0.87446   0.00000  Uiso   1.00
C1031  C     0.16700   0.95749   0.83319   0.00000  Uiso   1.00
C1032  C     0.16633   0.70918   0.83347   0.00000  Uiso   1.00
C1033  C     0.20685   0.85217   0.69452   0.00000  Uiso   1.00
C1034  C     0.12649   0.81449   0.97215   0.00000  Uiso   1.00
C1035  C     0.20651   0.85180   0.98011   0.00000  Uiso   1.00
C1036  C     0.12682   0.81487   0.68656   0.00000  Uiso   1.00
H1037  H     0.32558   0.82320   0.78188   0.00000  Uiso   1.00
H1038  H     0.00775   0.84347   0.88479   0.00000  Uiso   1.00
H1039  H     0.14347   0.70455   0.76046   0.00000  Uiso   1.00
H1040  H     0.18987   0.96212   0.90621   0.00000  Uiso   1.00
H1041  H     0.14410   0.96270   0.76028   0.00000  Uiso   1.00
H1042  H     0.18924   0.70397   0.90638   0.00000  Uiso   1.00
N1043  N     0.24988   0.87288   0.72134   0.00000  Uiso   1.00
O1044  O     0.29710   0.86801   0.71144   0.00000  Uiso   1.00
O1045  O     0.24108   0.90480   0.74554   0.00000  Uiso   1.00
N1046  N     0.08346   0.79378   0.94533   0.00000  Uiso   1.00
O1047  O     0.03623   0.79866   0.95522   0.00000  Uiso   1.00
O1048  O     0.09226   0.76185   0.92115   0.00000  Uiso   1.00
H1049  H     0.23803   0.86691   0.96517   0.00000  Uiso   1.00
H1050  H     0.09531   0.79976   0.70150   0.00000  Uiso   1.00
O1051  O     0.50000   0.77225   0.87154   0.00000  Uiso   1.00
O1052  O     0.50000   0.89442   0.79513   0.00000  Uiso   1.00
O1053  O     0.50000   0.77226   0.79510   0.00000  Uiso   1.00
O1054  O     0.50000   0.89441   0.87157   0.00000  Uiso   1.00
C1055  C     0.49982   0.75337   0.83342   0.00000  Uiso   1.00
C1056  C     0.50018   0.91330   0.83325   0.00000  Uiso   1.00
O1057  O     0.42392   0.83333   0.86261   0.00000  Uiso   1.00
O1058  O     0.57608   0.83334   0.80405   0.00000  Uiso   1.00
O1059  O     0.42392   0.83334   0.78617   0.00000  Uiso   1.00
O1060  O     0.57608   0.83333   0.88050   0.00000  Uiso   1.00
C1061  C     0.40054   0.83283   0.82160   0.00000  Uiso   1.00
C1062  C     0.59946   0.83384   0.84507   0.00000  Uiso   1.00
Zn1063 Zn    0.50000   0.83333   0.88437   0.00000  Uiso   1.00
Zn1064 Zn    0.50000   0.83334   0.78229   0.00000  Uiso   1.00
N1065  N     0.49999   0.83332   0.95240   0.00000  Uiso   1.00
N1066  N     0.50001   0.83334   0.71427   0.00000  Uiso   1.00
C1067  C     0.34563   0.83050   0.81548   0.00000  Uiso   1.00
C1068  C     0.65437   0.83617   0.85119   0.00000  Uiso   1.00
C1069  C     0.48716   0.68816   0.79235   0.00000  Uiso   1.00
C1070  C     0.51284   0.97851   0.87432   0.00000  Uiso   1.00
C1071  C     0.48755   0.97884   0.79221   0.00000  Uiso   1.00
C1072  C     0.51245   0.68783   0.87446   0.00000  Uiso   1.00
C1073  C     0.50034   0.95749   0.83319   0.00000  Uiso   1.00
C1074  C     0.49966   0.70918   0.83347   0.00000  Uiso   1.00
C1075  C     0.54018   0.85217   0.69452   0.00000  Uiso   1.00
C1076  C     0.45982   0.81449   0.97215   0.00000  Uiso   1.00
C1077  C     0.53985   0.85180   0.98011   0.00000  Uiso   1.00
C1078  C     0.46015   0.81487   0.68656   0.00000  Uiso   1.00
H1079  H     0.65892   0.82320   0.78188   0.00000  Uiso   1.00
H1080  H     0.34108   0.84347   0.88479   0.00000  Uiso   1.00
H1081  H     0.47680   0.70455   0.76046   0.00000  Uiso   1.00
H1082  H     0.52320   0.96212   0.90621   0.00000  Uiso   1.00
H1083  H     0.47743   0.96270   0.76028   0.00000  Uiso   1.00
H1084  H     0.52257   0.70397   0.90638   0.00000  Uiso   1.00
N1085  N     0.58321   0.87288   0.72134   0.00000  Uiso   1.00
O1086  O     0.63044   0.86801   0.71144   0.00000  Uiso   1.00
O1087  O     0.57441   0.90480   0.74554   0.00000  Uiso   1.00
N1088  N     0.41680   0.79378   0.94533   0.00000  Uiso   1.00
O1089  O     0.36957   0.79866   0.95522   0.00000  Uiso   1.00
O1090  O     0.42560   0.76185   0.92115   0.00000  Uiso   1.00
H1091  H     0.57136   0.86691   0.96517   0.00000  Uiso   1.00
H1092  H     0.42864   0.79976   0.70150   0.00000  Uiso   1.00
O1093  O     0.83333   0.77225   0.87154   0.00000  Uiso   1.00
O1094  O     0.83334   0.89442   0.79513   0.00000  Uiso   1.00
O1095  O     0.83333   0.77226   0.79510   0.00000  Uiso   1.00
O1096  O     0.83334   0.89441   0.87157   0.00000  Uiso   1.00
C1097  C     0.83315   0.75337   0.83342   0.00000  Uiso   1.00
C1098  C     0.83352   0.91330   0.83325   0.00000  Uiso   1.00
O1099  O     0.75725   0.83333   0.86261   0.00000  Uiso   1.00
O1100  O     0.90942   0.83334   0.80405   0.00000  Uiso   1.00
O1101  O     0.75725   0.83334   0.78617   0.00000  Uiso   1.00
O1102  O     0.90942   0.83333   0.88050   0.00000  Uiso   1.00
C1103  C     0.73387   0.83283   0.82160   0.00000  Uiso   1.00
C1104  C     0.93280   0.83384   0.84507   0.00000  Uiso   1.00
Zn1105 Zn    0.83333   0.83333   0.88437   0.00000  Uiso   1.00
Zn1106 Zn    0.83333   0.83334   0.78229   0.00000  Uiso   1.00
N1107  N     0.83332   0.83332   0.95240   0.00000  Uiso   1.00
N1108  N     0.83335   0.83334   0.71427   0.00000  Uiso   1.00
C1109  C     0.67896   0.83050   0.81548   0.00000  Uiso   1.00
C1110  C     0.98770   0.83617   0.85119   0.00000  Uiso   1.00
C1111  C     0.82049   0.68816   0.79235   0.00000  Uiso   1.00
C1112  C     0.84617   0.97851   0.87432   0.00000  Uiso   1.00
C1113  C     0.82089   0.97884   0.79221   0.00000  Uiso   1.00
C1114  C     0.84578   0.68783   0.87446   0.00000  Uiso   1.00
C1115  C     0.83367   0.95749   0.83319   0.00000  Uiso   1.00
C1116  C     0.83300   0.70918   0.83347   0.00000  Uiso   1.00
C1117  C     0.87351   0.85217   0.69452   0.00000  Uiso   1.00
C1118  C     0.79316   0.81449   0.97215   0.00000  Uiso   1.00
C1119  C     0.87318   0.85180   0.98011   0.00000  Uiso   1.00
C1120  C     0.79349   0.81487   0.68656   0.00000  Uiso   1.00
H1121  H     0.99225   0.82320   0.78188   0.00000  Uiso   1.00
H1122  H     0.67442   0.84347   0.88479   0.00000  Uiso   1.00
H1123  H     0.81013   0.70455   0.76046   0.00000  Uiso   1.00
H1124  H     0.85653   0.96212   0.90621   0.00000  Uiso   1.00
H1125  H     0.81076   0.96270   0.76028   0.00000  Uiso   1.00
H1126  H     0.85590   0.70397   0.90638   0.00000  Uiso   1.00
N1127  N     0.91654   0.87288   0.72134   0.00000  Uiso   1.00
O1128  O     0.96377   0.86801   0.71144   0.00000  Uiso   1.00
O1129  O     0.90775   0.90480   0.74554   0.00000  Uiso   1.00
N1130  N     0.75013   0.79378   0.94533   0.00000  Uiso   1.00
O1131  O     0.70290   0.79866   0.95522   0.00000  Uiso   1.00
O1132  O     0.75893   0.76185   0.92115   0.00000  Uiso   1.00
H1133  H     0.90469   0.86691   0.96517   0.00000  Uiso   1.00
H1134  H     0.76197   0.79976   0.70150   0.00000  Uiso   1.00
loop_
_geom_bond_atom_site_label_1
_geom_bond_atom_site_label_2
_geom_bond_distance
_geom_bond_site_symmetry_2
_ccdc_geom_bond_type
O1     C5      1.290   .     A
O1     Zn13    2.001   .     S
O2     C6      1.290   .     A
O2     Zn14    2.001   .     S
O3     Zn14    1.995   .     S
O3     C5      1.287   .     A
O4     C6      1.287   .     A
O4     Zn13    1.995   .     S
C5     C24     1.419   .     S
C6     C23     1.419   .     S
O7     C11     1.285   .     A
O7     Zn13    1.977   .     S
O8     C12     1.285   .     A
O8     Zn14    1.977   .     S
O9     Zn14    1.977   .     S
O9     C11     1.283   .     A
O10    C12     1.283   .     A
O10    Zn13    1.977   .     S
C11    C17     1.401   .     S
C12    C18     1.401   .     S
Zn13   N15     2.023   .     S
Zn14   N16     2.023   .     S
N15    C27     1.357   .     A
N15    C26     1.384   .     A
N16    C28     1.357   .     A
N16    C25     1.384   .     A
C17    C102    1.324   1_455 S
C17    H113    1.086   1_455 S
C18    C59     1.324   .     S
C18    H72     1.086   .     S
C19    H31     1.084   .     S
C19    C24     1.398   .     A
C19    C273    1.370   1_545 S
C20    C23     1.398   .     A
C20    H32     1.084   .     S
C20    C148    1.370   .     S
C21    C23     1.396   .     A
C21    H33     1.084   .     S
C21    C145    1.370   .     S
C22    H34     1.084   .     S
C22    C24     1.396   .     A
C22    C272    1.370   1_545 S
C25    N35     1.431   .     S
C25    C783    1.419   1_554 S
C26    N38     1.431   .     S
C26    C406    1.419   .     S
C27    H41     1.082   .     S
C27    C403    1.419   .     S
C28    H42     1.082   .     S
C28    C782    1.419   1_554 S
H29    C59     1.086   .     S
H30    C102    1.086   1_455 S
N35    O36     1.301   .     A
N35    O37     1.298   .     A
N38    O40     1.298   .     A
N38    O39     1.301   .     A
O43    C47     1.290   .     A
O43    Zn55    2.001   .     S
O44    C48     1.290   .     A
O44    Zn56    2.001   .     S
O45    Zn56    1.995   .     S
O45    C47     1.287   .     A
O46    C48     1.287   .     A
O46    Zn55    1.995   .     S
C47    C66     1.419   .     S
C48    C65     1.419   .     S
O49    C53     1.285   .     A
O49    Zn55    1.977   .     S
O50    C54     1.285   .     A
O50    Zn56    1.977   .     S
O51    Zn56    1.977   .     S
O51    C53     1.283   .     A
O52    C54     1.283   .     A
O52    Zn55    1.977   .     S
C53    C59     1.401   .     S
C54    C60     1.401   .     S
Zn55   N57     2.023   .     S
Zn56   N58     2.023   .     S
N57    C69     1.357   .     A
N57    C68     1.384   .     A
N58    C70     1.357   .     A
N58    C67     1.384   .     A
C60    C101    1.324   .     S
C60    H114    1.086   .     S
C61    H73     1.084   .     S
C61    C66     1.398   .     A
C61    C315    1.370   1_545 S
C62    C65     1.398   .     A
C62    H74     1.084   .     S
C62    C190    1.370   .     S
C63    C65     1.396   .     A
C63    H75     1.084   .     S
C63    C187    1.370   .     S
C64    H76     1.084   .     S
C64    C66     1.396   .     A
C64    C314    1.370   1_545 S
C67    N77     1.431   .     S
C67    C825    1.419   1_554 S
C68    N80     1.431   .     S
C68    C448    1.419   .     S
C69    H83     1.082   .     S
C69    C445    1.419   .     S
C70    H84     1.082   .     S
C70    C824    1.419   1_554 S
H71    C101    1.086   .     S
N77    O78     1.301   .     A
N77    O79     1.298   .     A
N80    O82     1.298   .     A
N80    O81     1.301   .     A
O85    C89     1.290   .     A
O85    Zn97    2.001   .     S
O86    C90     1.290   .     A
O86    Zn98    2.001   .     S
O87    Zn98    1.995   .     S
O87    C89     1.287   .     A
O88    C90     1.287   .     A
O88    Zn97    1.995   .     S
C89    C108    1.419   .     S
C90    C107    1.419   .     S
O91    C95     1.285   .     A
O91    Zn97    1.977   .     S
O92    C96     1.285   .     A
O92    Zn98    1.977   .     S
O93    Zn98    1.977   .     S
O93    C95     1.283   .     A
O94    C96     1.283   .     A
O94    Zn97    1.977   .     S
C95    C101    1.401   .     S
C96    C102    1.401   .     S
Zn97   N99     2.023   .     S
Zn98   N100    2.023   .     S
N99    C111    1.357   .     A
N99    C110    1.384   .     A
N100   C112    1.357   .     A
N100   C109    1.384   .     A
C102   C17     1.324   1_655 S
C102   H30     1.086   1_655 S
C103   H115    1.084   .     S
C103   C108    1.398   .     A
C103   C357    1.370   1_545 S
C104   C107    1.398   .     A
C104   H116    1.084   .     S
C104   C232    1.370   .     S
C105   C107    1.396   .     A
C105   H117    1.084   .     S
C105   C229    1.370   .     S
C106   H118    1.084   .     S
C106   C108    1.396   .     A
C106   C356    1.370   1_545 S
C109   N119    1.431   .     S
C109   C867    1.419   1_554 S
C110   N122    1.431   .     S
C110   C490    1.419   .     S
C111   H125    1.082   .     S
C111   C487    1.419   .     S
C112   H126    1.082   .     S
C112   C866    1.419   1_554 S
H113   C17     1.086   1_655 S
N119   O120    1.301   .     A
N119   O121    1.298   .     A
N122   O124    1.298   .     A
N122   O123    1.301   .     A
O127   C131    1.290   .     A
O127   Zn139   2.001   .     S
O128   C132    1.290   .     A
O128   Zn140   2.001   .     S
O129   Zn140   1.995   .     S
O129   C131    1.287   .     A
O130   C132    1.287   .     A
O130   Zn139   1.995   .     S
C131   C150    1.419   .     S
C132   C149    1.419   .     S
O133   C137    1.285   .     A
O133   Zn139   1.977   .     S
O134   C138    1.285   .     A
O134   Zn140   1.977   .     S
O135   Zn140   1.977   .     S
O135   C137    1.283   .     A
O136   C138    1.283   .     A
O136   Zn139   1.977   .     S
C137   C143    1.401   .     S
C138   C144    1.401   .     S
Zn139  N141    2.023   .     S
Zn140  N142    2.023   .     S
N141   C153    1.357   .     A
N141   C152    1.384   .     A
N142   C154    1.357   .     A
N142   C151    1.384   .     A
C143   C228    1.324   1_455 S
C143   H239    1.086   1_455 S
C144   C185    1.324   .     S
C144   H198    1.086   .     S
C145   H157    1.084   .     S
C145   C150    1.398   .     A
C146   C149    1.398   .     A
C146   H158    1.084   .     S
C146   C274    1.370   .     S
C147   C149    1.396   .     A
C147   H159    1.084   .     S
C147   C271    1.370   .     S
C148   H160    1.084   .     S
C148   C150    1.396   .     A
C151   N161    1.431   .     S
C151   C909    1.419   1_554 S
C152   N164    1.431   .     S
C152   C532    1.419   .     S
C153   H167    1.082   .     S
C153   C529    1.419   .     S
C154   H168    1.082   .     S
C154   C908    1.419   1_554 S
H155   C185    1.086   .     S
H156   C228    1.086   1_455 S
N161   O162    1.301   .     A
N161   O163    1.298   .     A
N164   O166    1.298   .     A
N164   O165    1.301   .     A
O169   C173    1.290   .     A
O169   Zn181   2.001   .     S
O170   C174    1.290   .     A
O170   Zn182   2.001   .     S
O171   Zn182   1.995   .     S
O171   C173    1.287   .     A
O172   C174    1.287   .     A
O172   Zn181   1.995   .     S
C173   C192    1.419   .     S
C174   C191    1.419   .     S
O175   C179    1.285   .     A
O175   Zn181   1.977   .     S
O176   C180    1.285   .     A
O176   Zn182   1.977   .     S
O177   Zn182   1.977   .     S
O177   C179    1.283   .     A
O178   C180    1.283   .     A
O178   Zn181   1.977   .     S
C179   C185    1.401   .     S
C180   C186    1.401   .     S
Zn181  N183    2.023   .     S
Zn182  N184    2.023   .     S
N183   C195    1.357   .     A
N183   C194    1.384   .     A
N184   C196    1.357   .     A
N184   C193    1.384   .     A
C186   C227    1.324   .     S
C186   H240    1.086   .     S
C187   H199    1.084   .     S
C187   C192    1.398   .     A
C188   C191    1.398   .     A
C188   H200    1.084   .     S
C188   C316    1.370   .     S
C189   C191    1.396   .     A
C189   H201    1.084   .     S
C189   C313    1.370   .     S
C190   H202    1.084   .     S
C190   C192    1.396   .     A
C193   N203    1.431   .     S
C193   C951    1.419   1_554 S
C194   N206    1.431   .     S
C194   C574    1.419   .     S
C195   H209    1.082   .     S
C195   C571    1.419   .     S
C196   H210    1.082   .     S
C196   C950    1.419   1_554 S
H197   C227    1.086   .     S
N203   O204    1.301   .     A
N203   O205    1.298   .     A
N206   O208    1.298   .     A
N206   O207    1.301   .     A
O211   C215    1.290   .     A
O211   Zn223   2.001   .     S
O212   C216    1.290   .     A
O212   Zn224   2.001   .     S
O213   Zn224   1.995   .     S
O213   C215    1.287   .     A
O214   C216    1.287   .     A
O214   Zn223   1.995   .     S
C215   C234    1.419   .     S
C216   C233    1.419   .     S
O217   C221    1.285   .     A
O217   Zn223   1.977   .     S
O218   C222    1.285   .     A
O218   Zn224   1.977   .     S
O219   Zn224   1.977   .     S
O219   C221    1.283   .     A
O220   C222    1.283   .     A
O220   Zn223   1.977   .     S
C221   C227    1.401   .     S
C222   C228    1.401   .     S
Zn223  N225    2.023   .     S
Zn224  N226    2.023   .     S
N225   C237    1.357   .     A
N225   C236    1.384   .     A
N226   C238    1.357   .     A
N226   C235    1.384   .     A
C228   C143    1.324   1_655 S
C228   H156    1.086   1_655 S
C229   H241    1.084   .     S
C229   C234    1.398   .     A
C230   C233    1.398   .     A
C230   H242    1.084   .     S
C230   C358    1.370   .     S
C231   C233    1.396   .     A
C231   H243    1.084   .     S
C231   C355    1.370   .     S
C232   H244    1.084   .     S
C232   C234    1.396   .     A
C235   N245    1.431   .     S
C235   C993    1.419   1_554 S
C236   N248    1.431   .     S
C236   C616    1.419   .     S
C237   H251    1.082   .     S
C237   C613    1.419   .     S
C238   H252    1.082   .     S
C238   C992    1.419   1_554 S
H239   C143    1.086   1_655 S
N245   O246    1.301   .     A
N245   O247    1.298   .     A
N248   O250    1.298   .     A
N248   O249    1.301   .     A
O253   C257    1.290   .     A
O253   Zn265   2.001   .     S
O254   C258    1.290   .     A
O254   Zn266   2.001   .     S
O255   Zn266   1.995   .     S
O255   C257    1.287   .     A
O256   C258    1.287   .     A
O256   Zn265   1.995   .     S
C257   C276    1.419   .     S
C258   C275    1.419   .     S
O259   C263    1.285   .     A
O259   Zn265   1.977   .     S
O260   C264    1.285   .     A
O260   Zn266   1.977   .     S
O261   Zn266   1.977   .     S
O261   C263    1.283   .     A
O262   C264    1.283   .     A
O262   Zn265   1.977   .     S
C263   C269    1.401   .     S
C264   C270    1.401   .     S
Zn265  N267    2.023   .     S
Zn266  N268    2.023   .     S
N267   C279    1.357   .     A
N267   C278    1.384   .     A
N268   C280    1.357   .     A
N268   C277    1.384   .     A
C269   C354    1.324   1_455 S
C269   H365    1.086   1_455 S
C270   C311    1.324   .     S
C270   H324    1.086   .     S
C271   H283    1.084   .     S
C271   C276    1.398   .     A
C272   C275    1.398   .     A
C272   H284    1.084   .     S
C272   C22     1.370   1_565 S
C273   C275    1.396   .     A
C273   H285    1.084   .     S
C273   C19     1.370   1_565 S
C274   H286    1.084   .     S
C274   C276    1.396   .     A
C277   N287    1.431   .     S
C277   C1035   1.419   1_554 S
C278   N290    1.431   .     S
C278   C658    1.419   .     S
C279   H293    1.082   .     S
C279   C655    1.419   .     S
C280   H294    1.082   .     S
C280   C1034   1.419   1_554 S
H281   C311    1.086   .     S
H282   C354    1.086   1_455 S
N287   O288    1.301   .     A
N287   O289    1.298   .     A
N290   O292    1.298   .     A
N290   O291    1.301   .     A
O295   C299    1.290   .     A
O295   Zn307   2.001   .     S
O296   C300    1.290   .     A
O296   Zn308   2.001   .     S
O297   Zn308   1.995   .     S
O297   C299    1.287   .     A
O298   C300    1.287   .     A
O298   Zn307   1.995   .     S
C299   C318    1.419   .     S
C300   C317    1.419   .     S
O301   C305    1.285   .     A
O301   Zn307   1.977   .     S
O302   C306    1.285   .     A
O302   Zn308   1.977   .     S
O303   Zn308   1.977   .     S
O303   C305    1.283   .     A
O304   C306    1.283   .     A
O304   Zn307   1.977   .     S
C305   C311    1.401   .     S
C306   C312    1.401   .     S
Zn307  N309    2.023   .     S
Zn308  N310    2.023   .     S
N309   C321    1.357   .     A
N309   C320    1.384   .     A
N310   C322    1.357   .     A
N310   C319    1.384   .     A
C312   C353    1.324   .     S
C312   H366    1.086   .     S
C313   H325    1.084   .     S
C313   C318    1.398   .     A
C314   C317    1.398   .     A
C314   H326    1.084   .     S
C314   C64     1.370   1_565 S
C315   C317    1.396   .     A
C315   H327    1.084   .     S
C315   C61     1.370   1_565 S
C316   H328    1.084   .     S
C316   C318    1.396   .     A
C319   N329    1.431   .     S
C319   C1077   1.419   1_554 S
C320   N332    1.431   .     S
C320   C700    1.419   .     S
C321   H335    1.082   .     S
C321   C697    1.419   .     S
C322   H336    1.082   .     S
C322   C1076   1.419   1_554 S
H323   C353    1.086   .     S
N329   O330    1.301   .     A
N329   O331    1.298   .     A
N332   O334    1.298   .     A
N332   O333    1.301   .     A
O337   C341    1.290   .     A
O337   Zn349   2.001   .     S
O338   C342    1.290   .     A
O338   Zn350   2.001   .     S
O339   Zn350   1.995   .     S
O339   C341    1.287   .     A
O340   C342    1.287   .     A
O340   Zn349   1.995   .     S
C341   C360    1.419   .     S
C342   C359    1.419   .     S
O343   C347    1.285   .     A
O343   Zn349   1.977   .     S
O344   C348    1.285   .     A
O344   Zn350   1.977   .     S
O345   Zn350   1.977   .     S
O345   C347    1.283   .     A
O346   C348    1.283   .     A
O346   Zn349   1.977   .     S
C347   C353    1.401   .     S
C348   C354    1.401   .     S
Zn349  N351    2.023   .     S
Zn350  N352    2.023   .     S
N351   C363    1.357   .     A
N351   C362    1.384   .     A
N352   C364    1.357   .     A
N352   C361    1.384   .     A
C354   C269    1.324   1_655 S
C354   H282    1.086   1_655 S
C355   H367    1.084   .     S
C355   C360    1.398   .     A
C356   C359    1.398   .     A
C356   H368    1.084   .     S
C356   C106    1.370   1_565 S
C357   C359    1.396   .     A
C357   H369    1.084   .     S
C357   C103    1.370   1_565 S
C358   H370    1.084   .     S
C358   C360    1.396   .     A
C361   N371    1.431   .     S
C361   C1119   1.419   1_554 S
C362   N374    1.431   .     S
C362   C742    1.419   .     S
C363   H377    1.082   .     S
C363   C739    1.419   .     S
C364   H378    1.082   .     S
C364   C1118   1.419   1_554 S
H365   C269    1.086   1_655 S
N371   O372    1.301   .     A
N371   O373    1.298   .     A
N374   O376    1.298   .     A
N374   O375    1.301   .     A
O379   C383    1.290   .     A
O379   Zn391   2.001   .     S
O380   C384    1.290   .     A
O380   Zn392   2.001   .     S
O381   Zn392   1.995   .     S
O381   C383    1.287   .     A
O382   C384    1.287   .     A
O382   Zn391   1.995   .     S
C383   C402    1.419   .     S
C384   C401    1.419   .     S
O385   C389    1.285   .     A
O385   Zn391   1.977   .     S
O386   C390    1.285   .     A
O386   Zn392   1.977   .     S
O387   Zn392   1.977   .     S
O387   C389    1.283   .     A
O388   C390    1.283   .     A
O388   Zn391   1.977   .     S
C389   C395    1.401   .     S
C390   C396    1.401   .     S
Zn391  N393    2.023   .     S
Zn392  N394    2.023   .     S
N393   C405    1.357   .     A
N393   C404    1.384   .     A
N394   C406    1.357   .     A
N394   C403    1.384   .     A
C395   C480    1.324   1_455 S
C395   H491    1.086   1_455 S
C396   C437    1.324   .     S
C396   H450    1.086   .     S
C397   H409    1.084   .     S
C397   C402    1.398   .     A
C397   C651    1.370   1_545 S
C398   C401    1.398   .     A
C398   H410    1.084   .     S
C398   C526    1.370   .     S
C399   C401    1.396   .     A
C399   H411    1.084   .     S
C399   C523    1.370   .     S
C400   H412    1.084   .     S
C400   C402    1.396   .     A
C400   C650    1.370   1_545 S
C403   N413    1.431   .     S
C404   N416    1.431   .     S
C404   C784    1.419   .     S
C405   H419    1.082   .     S
C405   C781    1.419   .     S
C406   H420    1.082   .     S
H407   C437    1.086   .     S
H408   C480    1.086   1_455 S
N413   O414    1.301   .     A
N413   O415    1.298   .     A
N416   O418    1.298   .     A
N416   O417    1.301   .     A
O421   C425    1.290   .     A
O421   Zn433   2.001   .     S
O422   C426    1.290   .     A
O422   Zn434   2.001   .     S
O423   Zn434   1.995   .     S
O423   C425    1.287   .     A
O424   C426    1.287   .     A
O424   Zn433   1.995   .     S
C425   C444    1.419   .     S
C426   C443    1.419   .     S
O427   C431    1.285   .     A
O427   Zn433   1.977   .     S
O428   C432    1.285   .     A
O428   Zn434   1.977   .     S
O429   Zn434   1.977   .     S
O429   C431    1.283   .     A
O430   C432    1.283   .     A
O430   Zn433   1.977   .     S
C431   C437    1.401   .     S
C432   C438    1.401   .     S
Zn433  N435    2.023   .     S
Zn434  N436    2.023   .     S
N435   C447    1.357   .     A
N435   C446    1.384   .     A
N436   C448    1.357   .     A
N436   C445    1.384   .     A
C438   C479    1.324   .     S
C438   H492    1.086   .     S
C439   H451    1.084   .     S
C439   C444    1.398   .     A
C439   C693    1.370   1_545 S
C440   C443    1.398   .     A
C440   H452    1.084   .     S
C440   C568    1.370   .     S
C441   C443    1.396   .     A
C441   H453    1.084   .     S
C441   C565    1.370   .     S
C442   H454    1.084   .     S
C442   C444    1.396   .     A
C442   C692    1.370   1_545 S
C445   N455    1.431   .     S
C446   N458    1.431   .     S
C446   C826    1.419   .     S
C447   H461    1.082   .     S
C447   C823    1.419   .     S
C448   H462    1.082   .     S
H449   C479    1.086   .     S
N455   O456    1.301   .     A
N455   O457    1.298   .     A
N458   O460    1.298   .     A
N458   O459    1.301   .     A
O463   C467    1.290   .     A
O463   Zn475   2.001   .     S
O464   C468    1.290   .     A
O464   Zn476   2.001   .     S
O465   Zn476   1.995   .     S
O465   C467    1.287   .     A
O466   C468    1.287   .     A
O466   Zn475   1.995   .     S
C467   C486    1.419   .     S
C468   C485    1.419   .     S
O469   C473    1.285   .     A
O469   Zn475   1.977   .     S
O470   C474    1.285   .     A
O470   Zn476   1.977   .     S
O471   Zn476   1.977   .     S
O471   C473    1.283   .     A
O472   C474    1.283   .     A
O472   Zn475   1.977   .     S
C473   C479    1.401   .     S
C474   C480    1.401   .     S
Zn475  N477    2.023   .     S
Zn476  N478    2.023   .     S
N477   C489    1.357   .     A
N477   C488    1.384   .     A
N478   C490    1.357   .     A
N478   C487    1.384   .     A
C480   C395    1.324   1_655 S
C480   H408    1.086   1_655 S
C481   H493    1.084   .     S
C481   C486    1.398   .     A
C481   C735    1.370   1_545 S
C482   C485    1.398   .     A
C482   H494    1.084   .     S
C482   C610    1.370   .     S
C483   C485    1.396   .     A
C483   H495    1.084   .     S
C483   C607    1.370   .     S
C484   H496    1.084   .     S
C484   C486    1.396   .     A
C484   C734    1.370   1_545 S
C487   N497    1.431   .     S
C488   N500    1.431   .     S
C488   C868    1.419   .     S
C489   H503    1.082   .     S
C489   C865    1.419   .     S
C490   H504    1.082   .     S
H491   C395    1.086   1_655 S
N497   O498    1.301   .     A
N497   O499    1.298   .     A
N500   O502    1.298   .     A
N500   O501    1.301   .     A
O505   C509    1.290   .     A
O505   Zn517   2.001   .     S
O506   C510    1.290   .     A
O506   Zn518   2.001   .     S
O507   Zn518   1.995   .     S
O507   C509    1.287   .     A
O508   C510    1.287   .     A
O508   Zn517   1.995   .     S
C509   C528    1.419   .     S
C510   C527    1.419   .     S
O511   C515    1.285   .     A
O511   Zn517   1.977   .     S
O512   C516    1.285   .     A
O512   Zn518   1.977   .     S
O513   Zn518   1.977   .     S
O513   C515    1.283   .     A
O514   C516    1.283   .     A
O514   Zn517   1.977   .     S
C515   C521    1.401   .     S
C516   C522    1.401   .     S
Zn517  N519    2.023   .     S
Zn518  N520    2.023   .     S
N519   C531    1.357   .     A
N519   C530    1.384   .     A
N520   C532    1.357   .     A
N520   C529    1.384   .     A
C521   C606    1.324   1_455 S
C521   H617    1.086   1_455 S
C522   C563    1.324   .     S
C522   H576    1.086   .     S
C523   H535    1.084   .     S
C523   C528    1.398   .     A
C524   C527    1.398   .     A
C524   H536    1.084   .     S
C524   C652    1.370   .     S
C525   C527    1.396   .     A
C525   H537    1.084   .     S
C525   C649    1.370   .     S
C526   H538    1.084   .     S
C526   C528    1.396   .     A
C529   N539    1.431   .     S
C530   N542    1.431   .     S
C530   C910    1.419   .     S
C531   H545    1.082   .     S
C531   C907    1.419   .     S
C532   H546    1.082   .     S
H533   C563    1.086   .     S
H534   C606    1.086   1_455 S
N539   O540    1.301   .     A
N539   O541    1.298   .     A
N542   O544    1.298   .     A
N542   O543    1.301   .     A
O547   C551    1.290   .     A
O547   Zn559   2.001   .     S
O548   C552    1.290   .     A
O548   Zn560   2.001   .     S
O549   Zn560   1.995   .     S
O549   C551    1.287   .     A
O550   C552    1.287   .     A
O550   Zn559   1.995   .     S
C551   C570    1.419   .     S
C552   C569    1.419   .     S
O553   C557    1.285   .     A
O553   Zn559   1.977   .     S
O554   C558    1.285   .     A
O554   Zn560   1.977   .     S
O555   Zn560   1.977   .     S
O555   C557    1.283   .     A
O556   C558    1.283   .     A
O556   Zn559   1.977   .     S
C557   C563    1.401   .     S
C558   C564    1.401   .     S
Zn559  N561    2.023   .     S
Zn560  N562    2.023   .     S
N561   C573    1.357   .     A
N561   C572    1.384   .     A
N562   C574    1.357   .     A
N562   C571    1.384   .     A
C564   C605    1.324   .     S
C564   H618    1.086   .     S
C565   H577    1.084   .     S
C565   C570    1.398   .     A
C566   C569    1.398   .     A
C566   H578    1.084   .     S
C566   C694    1.370   .     S
C567   C569    1.396   .     A
C567   H579    1.084   .     S
C567   C691    1.370   .     S
C568   H580    1.084   .     S
C568   C570    1.396   .     A
C571   N581    1.431   .     S
C572   N584    1.431   .     S
C572   C952    1.419   .     S
C573   H587    1.082   .     S
C573   C949    1.419   .     S
C574   H588    1.082   .     S
H575   C605    1.086   .     S
N581   O582    1.301   .     A
N581   O583    1.298   .     A
N584   O586    1.298   .     A
N584   O585    1.301   .     A
O589   C593    1.290   .     A
O589   Zn601   2.001   .     S
O590   C594    1.290   .     A
O590   Zn602   2.001   .     S
O591   Zn602   1.995   .     S
O591   C593    1.287   .     A
O592   C594    1.287   .     A
O592   Zn601   1.995   .     S
C593   C612    1.419   .     S
C594   C611    1.419   .     S
O595   C599    1.285   .     A
O595   Zn601   1.977   .     S
O596   C600    1.285   .     A
O596   Zn602   1.977   .     S
O597   Zn602   1.977   .     S
O597   C599    1.283   .     A
O598   C600    1.283   .     A
O598   Zn601   1.977   .     S
C599   C605    1.401   .     S
C600   C606    1.401   .     S
Zn601  N603    2.023   .     S
Zn602  N604    2.023   .     S
N603   C615    1.357   .     A
N603   C614    1.384   .     A
N604   C616    1.357   .     A
N604   C613    1.384   .     A
C606   C521    1.324   1_655 S
C606   H534    1.086   1_655 S
C607   H619    1.084   .     S
C607   C612    1.398   .     A
C608   C611    1.398   .     A
C608   H620    1.084   .     S
C608   C736    1.370   .     S
C609   C611    1.396   .     A
C609   H621    1.084   .     S
C609   C733    1.370   .     S
C610   H622    1.084   .     S
C610   C612    1.396   .     A
C613   N623    1.431   .     S
C614   N626    1.431   .     S
C614   C994    1.419   .     S
C615   H629    1.082   .     S
C615   C991    1.419   .     S
C616   H630    1.082   .     S
H617   C521    1.086   1_655 S
N623   O624    1.301   .     A
N623   O625    1.298   .     A
N626   O628    1.298   .     A
N626   O627    1.301   .     A
O631   C635    1.290   .     A
O631   Zn643   2.001   .     S
O632   C636    1.290   .     A
O632   Zn644   2.001   .     S
O633   Zn644   1.995   .     S
O633   C635    1.287   .     A
O634   C636    1.287   .     A
O634   Zn643   1.995   .     S
C635   C654    1.419   .     S
C636   C653    1.419   .     S
O637   C641    1.285   .     A
O637   Zn643   1.977   .     S
O638   C642    1.285   .     A
O638   Zn644   1.977   .     S
O639   Zn644   1.977   .     S
O639   C641    1.283   .     A
O640   C642    1.283   .     A
O640   Zn643   1.977   .     S
C641   C647    1.401   .     S
C642   C648    1.401   .     S
Zn643  N645    2.023   .     S
Zn644  N646    2.023   .     S
N645   C657    1.357   .     A
N645   C656    1.384   .     A
N646   C658    1.357   .     A
N646   C655    1.384   .     A
C647   C732    1.324   1_455 S
C647   H743    1.086   1_455 S
C648   C689    1.324   .     S
C648   H702    1.086   .     S
C649   H661    1.084   .     S
C649   C654    1.398   .     A
C650   C653    1.398   .     A
C650   H662    1.084   .     S
C650   C400    1.370   1_565 S
C651   C653    1.396   .     A
C651   H663    1.084   .     S
C651   C397    1.370   1_565 S
C652   H664    1.084   .     S
C652   C654    1.396   .     A
C655   N665    1.431   .     S
C656   N668    1.431   .     S
C656   C1036   1.419   .     S
C657   H671    1.082   .     S
C657   C1033   1.419   .     S
C658   H672    1.082   .     S
H659   C689    1.086   .     S
H660   C732    1.086   1_455 S
N665   O666    1.301   .     A
N665   O667    1.298   .     A
N668   O670    1.298   .     A
N668   O669    1.301   .     A
O673   C677    1.290   .     A
O673   Zn685   2.001   .     S
O674   C678    1.290   .     A
O674   Zn686   2.001   .     S
O675   Zn686   1.995   .     S
O675   C677    1.287   .     A
O676   C678    1.287   .     A
O676   Zn685   1.995   .     S
C677   C696    1.419   .     S
C678   C695    1.419   .     S
O679   C683    1.285   .     A
O679   Zn685   1.977   .     S
O680   C684    1.285   .     A
O680   Zn686   1.977   .     S
O681   Zn686   1.977   .     S
O681   C683    1.283   .     A
O682   C684    1.283   .     A
O682   Zn685   1.977   .     S
C683   C689    1.401   .     S
C684   C690    1.401   .     S
Zn685  N687    2.023   .     S
Zn686  N688    2.023   .     S
N687   C699    1.357   .     A
N687   C698    1.384   .     A
N688   C700    1.357   .     A
N688   C697    1.384   .     A
C690   C731    1.324   .     S
C690   H744    1.086   .     S
C691   H703    1.084   .     S
C691   C696    1.398   .     A
C692   C695    1.398   .     A
C692   H704    1.084   .     S
C692   C442    1.370   1_565 S
C693   C695    1.396   .     A
C693   H705    1.084   .     S
C693   C439    1.370   1_565 S
C694   H706    1.084   .     S
C694   C696    1.396   .     A
C697   N707    1.431   .     S
C698   N710    1.431   .     S
C698   C1078   1.419   .     S
C699   H713    1.082   .     S
C699   C1075   1.419   .     S
C700   H714    1.082   .     S
H701   C731    1.086   .     S
N707   O708    1.301   .     A
N707   O709    1.298   .     A
N710   O712    1.298   .     A
N710   O711    1.301   .     A
O715   C719    1.290   .     A
O715   Zn727   2.001   .     S
O716   C720    1.290   .     A
O716   Zn728   2.001   .     S
O717   Zn728   1.995   .     S
O717   C719    1.287   .     A
O718   C720    1.287   .     A
O718   Zn727   1.995   .     S
C719   C738    1.419   .     S
C720   C737    1.419   .     S
O721   C725    1.285   .     A
O721   Zn727   1.977   .     S
O722   C726    1.285   .     A
O722   Zn728   1.977   .     S
O723   Zn728   1.977   .     S
O723   C725    1.283   .     A
O724   C726    1.283   .     A
O724   Zn727   1.977   .     S
C725   C731    1.401   .     S
C726   C732    1.401   .     S
Zn727  N729    2.023   .     S
Zn728  N730    2.023   .     S
N729   C741    1.357   .     A
N729   C740    1.384   .     A
N730   C742    1.357   .     A
N730   C739    1.384   .     A
C732   C647    1.324   1_655 S
C732   H660    1.086   1_655 S
C733   H745    1.084   .     S
C733   C738    1.398   .     A
C734   C737    1.398   .     A
C734   H746    1.084   .     S
C734   C484    1.370   1_565 S
C735   C737    1.396   .     A
C735   H747    1.084   .     S
C735   C481    1.370   1_565 S
C736   H748    1.084   .     S
C736   C738    1.396   .     A
C739   N749    1.431   .     S
C740   N752    1.431   .     S
C740   C1120   1.419   .     S
C741   H755    1.082   .     S
C741   C1117   1.419   .     S
C742   H756    1.082   .     S
H743   C647    1.086   1_655 S
N749   O750    1.301   .     A
N749   O751    1.298   .     A
N752   O754    1.298   .     A
N752   O753    1.301   .     A
O757   C761    1.290   .     A
O757   Zn769   2.001   .     S
O758   C762    1.290   .     A
O758   Zn770   2.001   .     S
O759   Zn770   1.995   .     S
O759   C761    1.287   .     A
O760   C762    1.287   .     A
O760   Zn769   1.995   .     S
C761   C780    1.419   .     S
C762   C779    1.419   .     S
O763   C767    1.285   .     A
O763   Zn769   1.977   .     S
O764   C768    1.285   .     A
O764   Zn770   1.977   .     S
O765   Zn770   1.977   .     S
O765   C767    1.283   .     A
O766   C768    1.283   .     A
O766   Zn769   1.977   .     S
C767   C773    1.401   .     S
C768   C774    1.401   .     S
Zn769  N771    2.023   .     S
Zn770  N772    2.023   .     S
N771   C783    1.357   .     A
N771   C782    1.384   .     A
N772   C784    1.357   .     A
N772   C781    1.384   .     A
C773   C858    1.324   1_455 S
C773   H869    1.086   1_455 S
C774   C815    1.324   .     S
C774   H828    1.086   .     S
C775   H787    1.084   .     S
C775   C780    1.398   .     A
C775   C1029   1.370   1_545 S
C776   C779    1.398   .     A
C776   H788    1.084   .     S
C776   C904    1.370   .     S
C777   C779    1.396   .     A
C777   H789    1.084   .     S
C777   C901    1.370   .     S
C778   H790    1.084   .     S
C778   C780    1.396   .     A
C778   C1028   1.370   1_545 S
C781   N791    1.431   .     S
C782   N794    1.431   .     S
C782   C28     1.419   1_556 S
C783   H797    1.082   .     S
C783   C25     1.419   1_556 S
C784   H798    1.082   .     S
H785   C815    1.086   .     S
H786   C858    1.086   1_455 S
N791   O792    1.301   .     A
N791   O793    1.298   .     A
N794   O796    1.298   .     A
N794   O795    1.301   .     A
O799   C803    1.290   .     A
O799   Zn811   2.001   .     S
O800   C804    1.290   .     A
O800   Zn812   2.001   .     S
O801   Zn812   1.995   .     S
O801   C803    1.287   .     A
O802   C804    1.287   .     A
O802   Zn811   1.995   .     S
C803   C822    1.419   .     S
C804   C821    1.419   .     S
O805   C809    1.285   .     A
O805   Zn811   1.977   .     S
O806   C810    1.285   .     A
O806   Zn812   1.977   .     S
O807   Zn812   1.977   .     S
O807   C809    1.283   .     A
O808   C810    1.283   .     A
O808   Zn811   1.977   .     S
C809   C815    1.401   .     S
C810   C816    1.401   .     S
Zn811  N813    2.023   .     S
Zn812  N814    2.023   .     S
N813   C825    1.357   .     A
N813   C824    1.384   .     A
N814   C826    1.357   .     A
N814   C823    1.384   .     A
C816   C857    1.324   .     S
C816   H870    1.086   .     S
C817   H829    1.084   .     S
C817   C822    1.398   .     A
C817   C1071   1.370   1_545 S
C818   C821    1.398   .     A
C818   H830    1.084   .     S
C818   C946    1.370   .     S
C819   C821    1.396   .     A
C819   H831    1.084   .     S
C819   C943    1.370   .     S
C820   H832    1.084   .     S
C820   C822    1.396   .     A
C820   C1070   1.370   1_545 S
C823   N833    1.431   .     S
C824   N836    1.431   .     S
C824   C70     1.419   1_556 S
C825   H839    1.082   .     S
C825   C67     1.419   1_556 S
C826   H840    1.082   .     S
H827   C857    1.086   .     S
N833   O834    1.301   .     A
N833   O835    1.298   .     A
N836   O838    1.298   .     A
N836   O837    1.301   .     A
O841   C845    1.290   .     A
O841   Zn853   2.001   .     S
O842   C846    1.290   .     A
O842   Zn854   2.001   .     S
O843   Zn854   1.995   .     S
O843   C845    1.287   .     A
O844   C846    1.287   .     A
O844   Zn853   1.995   .     S
C845   C864    1.419   .     S
C846   C863    1.419   .     S
O847   C851    1.285   .     A
O847   Zn853   1.977   .     S
O848   C852    1.285   .     A
O848   Zn854   1.977   .     S
O849   Zn854   1.977   .     S
O849   C851    1.283   .     A
O850   C852    1.283   .     A
O850   Zn853   1.977   .     S
C851   C857    1.401   .     S
C852   C858    1.401   .     S
Zn853  N855    2.023   .     S
Zn854  N856    2.023   .     S
N855   C867    1.357   .     A
N855   C866    1.384   .     A
N856   C868    1.357   .     A
N856   C865    1.384   .     A
C858   C773    1.324   1_655 S
C858   H786    1.086   1_655 S
C859   H871    1.084   .     S
C859   C864    1.398   .     A
C859   C1113   1.370   1_545 S
C860   C863    1.398   .     A
C860   H872    1.084   .     S
C860   C988    1.370   .     S
C861   C863    1.396   .     A
C861   H873    1.084   .     S
C861   C985    1.370   .     S
C862   H874    1.084   .     S
C862   C864    1.396   .     A
C862   C1112   1.370   1_545 S
C865   N875    1.431   .     S
C866   N878    1.431   .     S
C866   C112    1.419   1_556 S
C867   H881    1.082   .     S
C867   C109    1.419   1_556 S
C868   H882    1.082   .     S
H869   C773    1.086   1_655 S
N875   O876    1.301   .     A
N875   O877    1.298   .     A
N878   O880    1.298   .     A
N878   O879    1.301   .     A
O883   C887    1.290   .     A
O883   Zn895   2.001   .     S
O884   C888    1.290   .     A
O884   Zn896   2.001   .     S
O885   Zn896   1.995   .     S
O885   C887    1.287   .     A
O886   C888    1.287   .     A
O886   Zn895   1.995   .     S
C887   C906    1.419   .     S
C888   C905    1.419   .     S
O889   C893    1.285   .     A
O889   Zn895   1.977   .     S
O890   C894    1.285   .     A
O890   Zn896   1.977   .     S
O891   Zn896   1.977   .     S
O891   C893    1.283   .     A
O892   C894    1.283   .     A
O892   Zn895   1.977   .     S
C893   C899    1.401   .     S
C894   C900    1.401   .     S
Zn895  N897    2.023   .     S
Zn896  N898    2.023   .     S
N897   C909    1.357   .     A
N897   C908    1.384   .     A
N898   C910    1.357   .     A
N898   C907    1.384   .     A
C899   C984    1.324   1_455 S
C899   H995    1.086   1_455 S
C900   C941    1.324   .     S
C900   H954    1.086   .     S
C901   H913    1.084   .     S
C901   C906    1.398   .     A
C902   C905    1.398   .     A
C902   H914    1.084   .     S
C902   C1030   1.370   .     S
C903   C905    1.396   .     A
C903   H915    1.084   .     S
C903   C1027   1.370   .     S
C904   H916    1.084   .     S
C904   C906    1.396   .     A
C907   N917    1.431   .     S
C908   N920    1.431   .     S
C908   C154    1.419   1_556 S
C909   H923    1.082   .     S
C909   C151    1.419   1_556 S
C910   H924    1.082   .     S
H911   C941    1.086   .     S
H912   C984    1.086   1_455 S
N917   O918    1.301   .     A
N917   O919    1.298   .     A
N920   O922    1.298   .     A
N920   O921    1.301   .     A
O925   C929    1.290   .     A
O925   Zn937   2.001   .     S
O926   C930    1.290   .     A
O926   Zn938   2.001   .     S
O927   Zn938   1.995   .     S
O927   C929    1.287   .     A
O928   C930    1.287   .     A
O928   Zn937   1.995   .     S
C929   C948    1.419   .     S
C930   C947    1.419   .     S
O931   C935    1.285   .     A
O931   Zn937   1.977   .     S
O932   C936    1.285   .     A
O932   Zn938   1.977   .     S
O933   Zn938   1.977   .     S
O933   C935    1.283   .     A
O934   C936    1.283   .     A
O934   Zn937   1.977   .     S
C935   C941    1.401   .     S
C936   C942    1.401   .     S
Zn937  N939    2.023   .     S
Zn938  N940    2.023   .     S
N939   C951    1.357   .     A
N939   C950    1.384   .     A
N940   C952    1.357   .     A
N940   C949    1.384   .     A
C942   C983    1.324   .     S
C942   H996    1.086   .     S
C943   H955    1.084   .     S
C943   C948    1.398   .     A
C944   C947    1.398   .     A
C944   H956    1.084   .     S
C944   C1072   1.370   .     S
C945   C947    1.396   .     A
C945   H957    1.084   .     S
C945   C1069   1.370   .     S
C946   H958    1.084   .     S
C946   C948    1.396   .     A
C949   N959    1.431   .     S
C950   N962    1.431   .     S
C950   C196    1.419   1_556 S
C951   H965    1.082   .     S
C951   C193    1.419   1_556 S
C952   H966    1.082   .     S
H953   C983    1.086   .     S
N959   O960    1.301   .     A
N959   O961    1.298   .     A
N962   O964    1.298   .     A
N962   O963    1.301   .     A
O967   C971    1.290   .     A
O967   Zn979   2.001   .     S
O968   C972    1.290   .     A
O968   Zn980   2.001   .     S
O969   Zn980   1.995   .     S
O969   C971    1.287   .     A
O970   C972    1.287   .     A
O970   Zn979   1.995   .     S
C971   C990    1.419   .     S
C972   C989    1.419   .     S
O973   C977    1.285   .     A
O973   Zn979   1.977   .     S
O974   C978    1.285   .     A
O974   Zn980   1.977   .     S
O975   Zn980   1.977   .     S
O975   C977    1.283   .     A
O976   C978    1.283   .     A
O976   Zn979   1.977   .     S
C977   C983    1.401   .     S
C978   C984    1.401   .     S
Zn979  N981    2.023   .     S
Zn980  N982    2.023   .     S
N981   C993    1.357   .     A
N981   C992    1.384   .     A
N982   C994    1.357   .     A
N982   C991    1.384   .     A
C984   C899    1.324   1_655 S
C984   H912    1.086   1_655 S
C985   H997    1.084   .     S
C985   C990    1.398   .     A
C986   C989    1.398   .     A
C986   H998    1.084   .     S
C986   C1114   1.370   .     S
C987   C989    1.396   .     A
C987   H999    1.084   .     S
C987   C1111   1.370   .     S
C988   H1000   1.084   .     S
C988   C990    1.396   .     A
C991   N1001   1.431   .     S
C992   N1004   1.431   .     S
C992   C238    1.419   1_556 S
C993   H1007   1.082   .     S
C993   C235    1.419   1_556 S
C994   H1008   1.082   .     S
H995   C899    1.086   1_655 S
N1001  O1002   1.301   .     A
N1001  O1003   1.298   .     A
N1004  O1006   1.298   .     A
N1004  O1005   1.301   .     A
O1009  C1013   1.290   .     A
O1009  Zn1021  2.001   .     S
O1010  C1014   1.290   .     A
O1010  Zn1022  2.001   .     S
O1011  Zn1022  1.995   .     S
O1011  C1013   1.287   .     A
O1012  C1014   1.287   .     A
O1012  Zn1021  1.995   .     S
C1013  C1032   1.419   .     S
C1014  C1031   1.419   .     S
O1015  C1019   1.285   .     A
O1015  Zn1021  1.977   .     S
O1016  C1020   1.285   .     A
O1016  Zn1022  1.977   .     S
O1017  Zn1022  1.977   .     S
O1017  C1019   1.283   .     A
O1018  C1020   1.283   .     A
O1018  Zn1021  1.977   .     S
C1019  C1025   1.401   .     S
C1020  C1026   1.401   .     S
Zn1021 N1023   2.023   .     S
Zn1022 N1024   2.023   .     S
N1023  C1035   1.357   .     A
N1023  C1034   1.384   .     A
N1024  C1036   1.357   .     A
N1024  C1033   1.384   .     A
C1025  C1110   1.324   1_455 S
C1025  H1121   1.086   1_455 S
C1026  C1067   1.324   .     S
C1026  H1080   1.086   .     S
C1027  H1039   1.084   .     S
C1027  C1032   1.398   .     A
C1028  C1031   1.398   .     A
C1028  H1040   1.084   .     S
C1028  C778    1.370   1_565 S
C1029  C1031   1.396   .     A
C1029  H1041   1.084   .     S
C1029  C775    1.370   1_565 S
C1030  H1042   1.084   .     S
C1030  C1032   1.396   .     A
C1033  N1043   1.431   .     S
C1034  N1046   1.431   .     S
C1034  C280    1.419   1_556 S
C1035  H1049   1.082   .     S
C1035  C277    1.419   1_556 S
C1036  H1050   1.082   .     S
H1037  C1067   1.086   .     S
H1038  C1110   1.086   1_455 S
N1043  O1044   1.301   .     A
N1043  O1045   1.298   .     A
N1046  O1048   1.298   .     A
N1046  O1047   1.301   .     A
O1051  C1055   1.290   .     A
O1051  Zn1063  2.001   .     S
O1052  C1056   1.290   .     A
O1052  Zn1064  2.001   .     S
O1053  Zn1064  1.995   .     S
O1053  C1055   1.287   .     A
O1054  C1056   1.287   .     A
O1054  Zn1063  1.995   .     S
C1055  C1074   1.419   .     S
C1056  C1073   1.419   .     S
O1057  C1061   1.285   .     A
O1057  Zn1063  1.977   .     S
O1058  C1062   1.285   .     A
O1058  Zn1064  1.977   .     S
O1059  Zn1064  1.977   .     S
O1059  C1061   1.283   .     A
O1060  C1062   1.283   .     A
O1060  Zn1063  1.977   .     S
C1061  C1067   1.401   .     S
C1062  C1068   1.401   .     S
Zn1063 N1065   2.023   .     S
Zn1064 N1066   2.023   .     S
N1065  C1077   1.357   .     A
N1065  C1076   1.384   .     A
N1066  C1078   1.357   .     A
N1066  C1075   1.384   .     A
C1068  C1109   1.324   .     S
C1068  H1122   1.086   .     S
C1069  H1081   1.084   .     S
C1069  C1074   1.398   .     A
C1070  C1073   1.398   .     A
C1070  H1082   1.084   .     S
C1070  C820    1.370   1_565 S
C1071  C1073   1.396   .     A
C1071  H1083   1.084   .     S
C1071  C817    1.370   1_565 S
C1072  H1084   1.084   .     S
C1072  C1074   1.396   .     A
C1075  N1085   1.431   .     S
C1076  N1088   1.431   .     S
C1076  C322    1.419   1_556 S
C1077  H1091   1.082   .     S
C1077  C319    1.419   1_556 S
C1078  H1092   1.082   .     S
H1079  C1109   1.086   .     S
N1085  O1086   1.301   .     A
N1085  O1087   1.298   .     A
N1088  O1090   1.298   .     A
N1088  O1089   1.301   .     A
O1093  C1097   1.290   .     A
O1093  Zn1105  2.001   .     S
O1094  C1098   1.290   .     A
O1094  Zn1106  2.001   .     S
O1095  Zn1106  1.995   .     S
O1095  C1097   1.287   .     A
O1096  C1098   1.287   .     A
O1096  Zn1105  1.995   .     S
C1097  C1116   1.419   .     S
C1098  C1115   1.419   .     S
O1099  C1103   1.285   .     A
O1099  Zn1105  1.977   .     S
O1100  C1104   1.285   .     A
O1100  Zn1106  1.977   .     S
O1101  Zn1106  1.977   .     S
O1101  C1103   1.283   .     A
O1102  C1104   1.283   .     A
O1102  Zn1105  1.977   .     S
C1103  C1109   1.401   .     S
C1104  C1110   1.401   .     S
Zn1105 N1107   2.023   .     S
Zn1106 N1108   2.023   .     S
N1107  C1119   1.357   .     A
N1107  C1118   1.384   .     A
N1108  C1120   1.357   .     A
N1108  C1117   1.384   .     A
C1110  C1025   1.324   1_655 S
C1110  H1038   1.086   1_655 S
C1111  H1123   1.084   .     S
C1111  C1116   1.398   .     A
C1112  C1115   1.398   .     A
C1112  H1124   1.084   .     S
C1112  C862    1.370   1_565 S
C1113  C1115   1.396   .     A
C1113  H1125   1.084   .     S
C1113  C859    1.370   1_565 S
C1114  H1126   1.084   .     S
C1114  C1116   1.396   .     A
C1117  N1127   1.431   .     S
C1118  N1130   1.431   .     S
C1118  C364    1.419   1_556 S
C1119  H1133   1.082   .     S
C1119  C361    1.419   1_556 S
C1120  H1134   1.082   .     S
H1121  C1025   1.086   1_655 S
N1127  O1128   1.301   .     A
N1127  O1129   1.298   .     A
N1130  O1132   1.298   .     A
N1130  O1131   1.301   .     A
