data_str_m3_o10_o17_pcu_sym.105
_audit_creation_date              2020-01-03
_audit_creation_method            'Materials Studio'
_symmetry_space_group_name_H-M    'P1'
_symmetry_Int_Tables_number       1
_symmetry_cell_setting            triclinic
loop_
_symmetry_equiv_pos_as_xyz
  x,y,z
_cell_length_a                    23.5823
_cell_length_b                    25.4819
_cell_length_c                    30.0006
_cell_angle_alpha                 92.6143
_cell_angle_beta                  84.4971
_cell_angle_gamma                 93.6111
loop_
_atom_site_label
_atom_site_type_symbol
_atom_site_fract_x
_atom_site_fract_y
_atom_site_fract_z
_atom_site_U_iso_or_equiv
_atom_site_adp_type
_atom_site_occupancy
C1     C     0.18195   0.26488   0.25411   0.00000  Uiso   1.00
C2     C     0.19575   0.21022   0.40568   0.00000  Uiso   1.00
C3     C     0.16833   0.16628   0.11581   0.00000  Uiso   1.00
C4     C     0.16540   0.16861   0.38438   0.00000  Uiso   1.00
C5     C     0.20194   0.20490   0.09193   0.00000  Uiso   1.00
C6     C     0.13110   0.13098   0.40875   0.00000  Uiso   1.00
C7     C     0.19461   0.20965   0.04657   0.00000  Uiso   1.00
C8     C     0.13986   0.12539   0.45362   0.00000  Uiso   1.00
C9     C     0.16686   0.16715   0.02351   0.00000  Uiso   1.00
C10    C     0.16830   0.16742   0.47657   0.00000  Uiso   1.00
C11    C     0.13657   0.12512   0.04736   0.00000  Uiso   1.00
C12    C     0.15194   0.06902   0.25662   0.00000  Uiso   1.00
C13    C     0.19863   0.20929   0.45260   0.00000  Uiso   1.00
C14    C     0.21628   0.25472   0.02325   0.00000  Uiso   1.00
C15    C     0.11832   0.08014   0.47658   0.00000  Uiso   1.00
C16    C     0.12156   0.07473   0.12027   0.00000  Uiso   1.00
C17    C     0.21361   0.25955   0.37967   0.00000  Uiso   1.00
C18    C     0.25166   0.23413   0.11331   0.00000  Uiso   1.00
C19    C     0.07890   0.10445   0.38900   0.00000  Uiso   1.00
C20    C     0.22047   0.30894   0.04635   0.00000  Uiso   1.00
C21    C     0.11258   0.02648   0.45261   0.00000  Uiso   1.00
C22    C     0.27615   0.28325   0.45541   0.00000  Uiso   1.00
C23    C     0.22749   0.25037   0.47673   0.00000  Uiso   1.00
C24    C     0.05914   0.05099   0.04446   0.00000  Uiso   1.00
C25    C     0.25076   0.00720   0.27311   0.00000  Uiso   1.00
C26    C     0.09001   0.33243   0.29636   0.00000  Uiso   1.00
C27    C     0.00679   0.13024   0.19580   0.00000  Uiso   1.00
C28    C     0.32620   0.20014   0.30509   0.00000  Uiso   1.00
C29    C     0.10772   0.08400   0.02315   0.00000  Uiso   1.00
C30    C     0.19120   0.31953   0.26677   0.00000  Uiso   1.00
C31    C     0.14556   0.01635   0.27222   0.00000  Uiso   1.00
C32    C     0.16631   0.16618   0.33634   0.00000  Uiso   1.00
C33    C     0.16716   0.16796   0.16377   0.00000  Uiso   1.00
C34    C     0.13914   0.12419   0.09425   0.00000  Uiso   1.00
H35    H     0.14341   0.07251   0.15118   0.00000  Uiso   1.00
H36    H     0.04874   0.08391   0.41382   0.00000  Uiso   1.00
H37    H     0.05270   0.13456   0.37696   0.00000  Uiso   1.00
H38    H     0.09219   0.07676   0.36102   0.00000  Uiso   1.00
H39    H     0.19907   0.30913   0.08085   0.00000  Uiso   1.00
H40    H     0.26564   0.32368   0.04734   0.00000  Uiso   1.00
H41    H     0.19822   0.00376   0.02805   0.00000  Uiso   1.00
H42    H     0.06711   0.01256   0.45213   0.00000  Uiso   1.00
H43    H     0.13305   0.02676   0.41779   0.00000  Uiso   1.00
H44    H     0.13482   0.33075   0.46995   0.00000  Uiso   1.00
H45    H     0.30845   0.26454   0.43302   0.00000  Uiso   1.00
H46    H     0.07507   0.07241   0.12998   0.00000  Uiso   1.00
H47    H     0.02707   0.06954   0.06719   0.00000  Uiso   1.00
H48    H     0.25782   0.03928   0.29743   0.00000  Uiso   1.00
H49    H     0.05093   0.01546   0.28876   0.00000  Uiso   1.00
H50    H     0.30621   0.10494   0.18100   0.00000  Uiso   1.00
H51    H     0.02020   0.16174   0.17203   0.00000  Uiso   1.00
H52    H     0.04104   0.10426   0.20080   0.00000  Uiso   1.00
H53    H     0.02663   0.22288   0.32185   0.00000  Uiso   1.00
H54    H     0.29274   0.22745   0.30110   0.00000  Uiso   1.00
H55    H     0.31193   0.16687   0.32685   0.00000  Uiso   1.00
H56    H     0.13389   0.03913   0.10010   0.00000  Uiso   1.00
H57    H     0.19245   0.26131   0.34848   0.00000  Uiso   1.00
H58    H     0.20057   0.29518   0.39957   0.00000  Uiso   1.00
H59    H     0.26020   0.26217   0.37048   0.00000  Uiso   1.00
H60    H     0.28223   0.25519   0.08915   0.00000  Uiso   1.00
H61    H     0.23575   0.26183   0.14067   0.00000  Uiso   1.00
H62    H     0.27877   0.20570   0.12664   0.00000  Uiso   1.00
N63    N     0.31678   0.15265   0.23783   0.00000  Uiso   1.00
N64    N     0.01656   0.18068   0.26217   0.00000  Uiso   1.00
O65    O     0.12975   0.24619   0.25298   0.00000  Uiso   1.00
O66    O     0.05486   0.00337   0.03759   0.00000  Uiso   1.00
O67    O     0.29194   0.32295   0.25093   0.00000  Uiso   1.00
O68    O     0.08843   0.30298   0.32747   0.00000  Uiso   1.00
O69    O     0.20358   0.08714   0.24701   0.00000  Uiso   1.00
O70    O     0.22613   0.23721   0.24518   0.00000  Uiso   1.00
O71    O     0.10720   0.09613   0.25481   0.00000  Uiso   1.00
O72    O     0.11847   0.17117   0.31997   0.00000  Uiso   1.00
O73    O     0.21486   0.16216   0.18002   0.00000  Uiso   1.00
O74    O     0.21485   0.16219   0.31217   0.00000  Uiso   1.00
O75    O     0.11848   0.17115   0.18782   0.00000  Uiso   1.00
O76    O     0.28023   0.33093   0.46187   0.00000  Uiso   1.00
Zn77   Zn    0.10231   0.17266   0.25521   0.00000  Uiso   1.00
Zn78   Zn    0.23102   0.16067   0.24479   0.00000  Uiso   1.00
C79    C     0.51528   0.26488   0.25411   0.00000  Uiso   1.00
C80    C     0.52909   0.21022   0.40568   0.00000  Uiso   1.00
C81    C     0.50166   0.16628   0.11581   0.00000  Uiso   1.00
C82    C     0.49873   0.16861   0.38438   0.00000  Uiso   1.00
C83    C     0.53527   0.20490   0.09193   0.00000  Uiso   1.00
C84    C     0.46443   0.13098   0.40875   0.00000  Uiso   1.00
C85    C     0.52794   0.20965   0.04657   0.00000  Uiso   1.00
C86    C     0.47319   0.12539   0.45362   0.00000  Uiso   1.00
C87    C     0.50020   0.16715   0.02351   0.00000  Uiso   1.00
C88    C     0.50164   0.16742   0.47657   0.00000  Uiso   1.00
C89    C     0.46990   0.12512   0.04736   0.00000  Uiso   1.00
C90    C     0.48527   0.06902   0.25662   0.00000  Uiso   1.00
C91    C     0.53196   0.20929   0.45260   0.00000  Uiso   1.00
C92    C     0.54962   0.25472   0.02325   0.00000  Uiso   1.00
C93    C     0.45165   0.08014   0.47658   0.00000  Uiso   1.00
C94    C     0.45490   0.07473   0.12027   0.00000  Uiso   1.00
C95    C     0.54694   0.25955   0.37967   0.00000  Uiso   1.00
C96    C     0.58499   0.23413   0.11331   0.00000  Uiso   1.00
C97    C     0.41223   0.10445   0.38900   0.00000  Uiso   1.00
C98    C     0.55381   0.30894   0.04635   0.00000  Uiso   1.00
C99    C     0.44591   0.02648   0.45261   0.00000  Uiso   1.00
C100   C     0.60949   0.28325   0.45541   0.00000  Uiso   1.00
C101   C     0.56082   0.25037   0.47673   0.00000  Uiso   1.00
C102   C     0.39247   0.05099   0.04446   0.00000  Uiso   1.00
C103   C     0.58410   0.00720   0.27311   0.00000  Uiso   1.00
C104   C     0.42335   0.33243   0.29636   0.00000  Uiso   1.00
C105   C     0.34012   0.13024   0.19580   0.00000  Uiso   1.00
C106   C     0.65953   0.20014   0.30509   0.00000  Uiso   1.00
C107   C     0.44106   0.08400   0.02315   0.00000  Uiso   1.00
C108   C     0.52453   0.31953   0.26677   0.00000  Uiso   1.00
C109   C     0.47889   0.01635   0.27222   0.00000  Uiso   1.00
C110   C     0.49965   0.16618   0.33634   0.00000  Uiso   1.00
C111   C     0.50050   0.16796   0.16377   0.00000  Uiso   1.00
C112   C     0.47247   0.12419   0.09425   0.00000  Uiso   1.00
H113   H     0.47674   0.07251   0.15118   0.00000  Uiso   1.00
H114   H     0.38207   0.08391   0.41382   0.00000  Uiso   1.00
H115   H     0.38603   0.13456   0.37696   0.00000  Uiso   1.00
H116   H     0.42552   0.07676   0.36102   0.00000  Uiso   1.00
H117   H     0.53241   0.30913   0.08085   0.00000  Uiso   1.00
H118   H     0.59897   0.32368   0.04734   0.00000  Uiso   1.00
H119   H     0.53155   0.00376   0.02805   0.00000  Uiso   1.00
H120   H     0.40044   0.01256   0.45213   0.00000  Uiso   1.00
H121   H     0.46639   0.02676   0.41779   0.00000  Uiso   1.00
H122   H     0.46815   0.33075   0.46995   0.00000  Uiso   1.00
H123   H     0.64179   0.26454   0.43302   0.00000  Uiso   1.00
H124   H     0.40841   0.07241   0.12998   0.00000  Uiso   1.00
H125   H     0.36041   0.06954   0.06719   0.00000  Uiso   1.00
H126   H     0.59115   0.03928   0.29743   0.00000  Uiso   1.00
H127   H     0.38426   0.01546   0.28876   0.00000  Uiso   1.00
H128   H     0.63954   0.10494   0.18100   0.00000  Uiso   1.00
H129   H     0.35353   0.16174   0.17203   0.00000  Uiso   1.00
H130   H     0.37438   0.10426   0.20080   0.00000  Uiso   1.00
H131   H     0.35997   0.22288   0.32185   0.00000  Uiso   1.00
H132   H     0.62607   0.22745   0.30110   0.00000  Uiso   1.00
H133   H     0.64526   0.16687   0.32685   0.00000  Uiso   1.00
H134   H     0.46722   0.03913   0.10010   0.00000  Uiso   1.00
H135   H     0.52578   0.26131   0.34848   0.00000  Uiso   1.00
H136   H     0.53390   0.29518   0.39957   0.00000  Uiso   1.00
H137   H     0.59354   0.26217   0.37048   0.00000  Uiso   1.00
H138   H     0.61556   0.25519   0.08915   0.00000  Uiso   1.00
H139   H     0.56909   0.26183   0.14067   0.00000  Uiso   1.00
H140   H     0.61210   0.20570   0.12664   0.00000  Uiso   1.00
N141   N     0.65011   0.15265   0.23783   0.00000  Uiso   1.00
N142   N     0.34989   0.18068   0.26217   0.00000  Uiso   1.00
O143   O     0.46308   0.24619   0.25298   0.00000  Uiso   1.00
O144   O     0.38819   0.00337   0.03759   0.00000  Uiso   1.00
O145   O     0.62527   0.32295   0.25093   0.00000  Uiso   1.00
O146   O     0.42177   0.30298   0.32747   0.00000  Uiso   1.00
O147   O     0.53692   0.08714   0.24701   0.00000  Uiso   1.00
O148   O     0.55946   0.23721   0.24518   0.00000  Uiso   1.00
O149   O     0.44054   0.09613   0.25481   0.00000  Uiso   1.00
O150   O     0.45181   0.17117   0.31997   0.00000  Uiso   1.00
O151   O     0.54819   0.16216   0.18002   0.00000  Uiso   1.00
O152   O     0.54819   0.16219   0.31217   0.00000  Uiso   1.00
O153   O     0.45181   0.17115   0.18782   0.00000  Uiso   1.00
O154   O     0.61357   0.33093   0.46187   0.00000  Uiso   1.00
Zn155  Zn    0.43565   0.17266   0.25521   0.00000  Uiso   1.00
Zn156  Zn    0.56435   0.16067   0.24479   0.00000  Uiso   1.00
C157   C     0.84862   0.26488   0.25411   0.00000  Uiso   1.00
C158   C     0.86242   0.21022   0.40568   0.00000  Uiso   1.00
C159   C     0.83500   0.16628   0.11581   0.00000  Uiso   1.00
C160   C     0.83206   0.16861   0.38438   0.00000  Uiso   1.00
C161   C     0.86860   0.20490   0.09193   0.00000  Uiso   1.00
C162   C     0.79776   0.13098   0.40875   0.00000  Uiso   1.00
C163   C     0.86128   0.20965   0.04657   0.00000  Uiso   1.00
C164   C     0.80652   0.12539   0.45362   0.00000  Uiso   1.00
C165   C     0.83353   0.16715   0.02351   0.00000  Uiso   1.00
C166   C     0.83497   0.16742   0.47657   0.00000  Uiso   1.00
C167   C     0.80324   0.12512   0.04736   0.00000  Uiso   1.00
C168   C     0.81860   0.06902   0.25662   0.00000  Uiso   1.00
C169   C     0.86529   0.20929   0.45260   0.00000  Uiso   1.00
C170   C     0.88295   0.25472   0.02325   0.00000  Uiso   1.00
C171   C     0.78499   0.08014   0.47658   0.00000  Uiso   1.00
C172   C     0.78823   0.07473   0.12027   0.00000  Uiso   1.00
C173   C     0.88027   0.25955   0.37967   0.00000  Uiso   1.00
C174   C     0.91832   0.23413   0.11331   0.00000  Uiso   1.00
C175   C     0.74557   0.10445   0.38900   0.00000  Uiso   1.00
C176   C     0.88714   0.30894   0.04635   0.00000  Uiso   1.00
C177   C     0.77925   0.02648   0.45261   0.00000  Uiso   1.00
C178   C     0.94282   0.28325   0.45541   0.00000  Uiso   1.00
C179   C     0.89416   0.25037   0.47673   0.00000  Uiso   1.00
C180   C     0.72581   0.05099   0.04446   0.00000  Uiso   1.00
C181   C     0.91743   0.00720   0.27311   0.00000  Uiso   1.00
C182   C     0.75668   0.33243   0.29636   0.00000  Uiso   1.00
C183   C     0.67345   0.13024   0.19580   0.00000  Uiso   1.00
C184   C     0.99286   0.20014   0.30509   0.00000  Uiso   1.00
C185   C     0.77439   0.08400   0.02315   0.00000  Uiso   1.00
C186   C     0.85787   0.31953   0.26677   0.00000  Uiso   1.00
C187   C     0.81222   0.01635   0.27222   0.00000  Uiso   1.00
C188   C     0.83298   0.16618   0.33634   0.00000  Uiso   1.00
C189   C     0.83383   0.16796   0.16377   0.00000  Uiso   1.00
C190   C     0.80580   0.12419   0.09425   0.00000  Uiso   1.00
H191   H     0.81008   0.07251   0.15118   0.00000  Uiso   1.00
H192   H     0.71540   0.08391   0.41382   0.00000  Uiso   1.00
H193   H     0.71937   0.13456   0.37696   0.00000  Uiso   1.00
H194   H     0.75885   0.07676   0.36102   0.00000  Uiso   1.00
H195   H     0.86574   0.30913   0.08085   0.00000  Uiso   1.00
H196   H     0.93230   0.32368   0.04734   0.00000  Uiso   1.00
H197   H     0.86488   0.00376   0.02805   0.00000  Uiso   1.00
H198   H     0.73378   0.01256   0.45213   0.00000  Uiso   1.00
H199   H     0.79972   0.02676   0.41779   0.00000  Uiso   1.00
H200   H     0.80148   0.33075   0.46995   0.00000  Uiso   1.00
H201   H     0.97512   0.26454   0.43302   0.00000  Uiso   1.00
H202   H     0.74174   0.07241   0.12998   0.00000  Uiso   1.00
H203   H     0.69374   0.06954   0.06719   0.00000  Uiso   1.00
H204   H     0.92449   0.03928   0.29743   0.00000  Uiso   1.00
H205   H     0.71759   0.01546   0.28876   0.00000  Uiso   1.00
H206   H     0.97288   0.10494   0.18100   0.00000  Uiso   1.00
H207   H     0.68686   0.16174   0.17203   0.00000  Uiso   1.00
H208   H     0.70771   0.10426   0.20080   0.00000  Uiso   1.00
H209   H     0.69330   0.22288   0.32185   0.00000  Uiso   1.00
H210   H     0.95941   0.22745   0.30110   0.00000  Uiso   1.00
H211   H     0.97860   0.16687   0.32685   0.00000  Uiso   1.00
H212   H     0.80056   0.03913   0.10010   0.00000  Uiso   1.00
H213   H     0.85912   0.26131   0.34848   0.00000  Uiso   1.00
H214   H     0.86723   0.29518   0.39957   0.00000  Uiso   1.00
H215   H     0.92687   0.26217   0.37048   0.00000  Uiso   1.00
H216   H     0.94890   0.25519   0.08915   0.00000  Uiso   1.00
H217   H     0.90242   0.26183   0.14067   0.00000  Uiso   1.00
H218   H     0.94543   0.20570   0.12664   0.00000  Uiso   1.00
N219   N     0.98344   0.15265   0.23783   0.00000  Uiso   1.00
N220   N     0.68322   0.18068   0.26217   0.00000  Uiso   1.00
O221   O     0.79642   0.24619   0.25298   0.00000  Uiso   1.00
O222   O     0.72152   0.00337   0.03759   0.00000  Uiso   1.00
O223   O     0.95861   0.32295   0.25093   0.00000  Uiso   1.00
O224   O     0.75510   0.30298   0.32747   0.00000  Uiso   1.00
O225   O     0.87025   0.08714   0.24701   0.00000  Uiso   1.00
O226   O     0.89280   0.23721   0.24518   0.00000  Uiso   1.00
O227   O     0.77387   0.09613   0.25481   0.00000  Uiso   1.00
O228   O     0.78514   0.17117   0.31997   0.00000  Uiso   1.00
O229   O     0.88153   0.16216   0.18002   0.00000  Uiso   1.00
O230   O     0.88152   0.16219   0.31217   0.00000  Uiso   1.00
O231   O     0.78515   0.17115   0.18782   0.00000  Uiso   1.00
O232   O     0.94690   0.33093   0.46187   0.00000  Uiso   1.00
Zn233  Zn    0.76898   0.17266   0.25521   0.00000  Uiso   1.00
Zn234  Zn    0.89769   0.16067   0.24479   0.00000  Uiso   1.00
C235   C     0.18195   0.59821   0.25411   0.00000  Uiso   1.00
C236   C     0.19575   0.54355   0.40568   0.00000  Uiso   1.00
C237   C     0.16833   0.49961   0.11581   0.00000  Uiso   1.00
C238   C     0.16540   0.50195   0.38438   0.00000  Uiso   1.00
C239   C     0.20194   0.53824   0.09193   0.00000  Uiso   1.00
C240   C     0.13110   0.46432   0.40875   0.00000  Uiso   1.00
C241   C     0.19461   0.54298   0.04657   0.00000  Uiso   1.00
C242   C     0.13986   0.45873   0.45362   0.00000  Uiso   1.00
C243   C     0.16686   0.50048   0.02351   0.00000  Uiso   1.00
C244   C     0.16830   0.50076   0.47657   0.00000  Uiso   1.00
C245   C     0.13657   0.45845   0.04736   0.00000  Uiso   1.00
C246   C     0.15194   0.40236   0.25662   0.00000  Uiso   1.00
C247   C     0.19863   0.54262   0.45260   0.00000  Uiso   1.00
C248   C     0.21628   0.58805   0.02325   0.00000  Uiso   1.00
C249   C     0.11832   0.41347   0.47658   0.00000  Uiso   1.00
C250   C     0.12156   0.40806   0.12027   0.00000  Uiso   1.00
C251   C     0.21361   0.59288   0.37967   0.00000  Uiso   1.00
C252   C     0.25166   0.56747   0.11331   0.00000  Uiso   1.00
C253   C     0.07890   0.43778   0.38900   0.00000  Uiso   1.00
C254   C     0.22047   0.64227   0.04635   0.00000  Uiso   1.00
C255   C     0.11258   0.35981   0.45261   0.00000  Uiso   1.00
C256   C     0.27615   0.61658   0.45541   0.00000  Uiso   1.00
C257   C     0.22749   0.58370   0.47673   0.00000  Uiso   1.00
C258   C     0.05914   0.38433   0.04446   0.00000  Uiso   1.00
C259   C     0.25076   0.34054   0.27311   0.00000  Uiso   1.00
C260   C     0.09001   0.66576   0.29636   0.00000  Uiso   1.00
C261   C     0.00679   0.46357   0.19580   0.00000  Uiso   1.00
C262   C     0.32620   0.53347   0.30509   0.00000  Uiso   1.00
C263   C     0.10772   0.41733   0.02315   0.00000  Uiso   1.00
C264   C     0.19120   0.65287   0.26677   0.00000  Uiso   1.00
C265   C     0.14556   0.34969   0.27222   0.00000  Uiso   1.00
C266   C     0.16631   0.49951   0.33634   0.00000  Uiso   1.00
C267   C     0.16716   0.50129   0.16377   0.00000  Uiso   1.00
C268   C     0.13914   0.45752   0.09425   0.00000  Uiso   1.00
H269   H     0.14341   0.40584   0.15118   0.00000  Uiso   1.00
H270   H     0.04874   0.41724   0.41382   0.00000  Uiso   1.00
H271   H     0.05270   0.46789   0.37696   0.00000  Uiso   1.00
H272   H     0.09219   0.41009   0.36102   0.00000  Uiso   1.00
H273   H     0.19907   0.64247   0.08085   0.00000  Uiso   1.00
H274   H     0.26564   0.65701   0.04734   0.00000  Uiso   1.00
H275   H     0.19822   0.33709   0.02805   0.00000  Uiso   1.00
H276   H     0.06711   0.34590   0.45213   0.00000  Uiso   1.00
H277   H     0.13305   0.36009   0.41779   0.00000  Uiso   1.00
H278   H     0.13482   0.66409   0.46995   0.00000  Uiso   1.00
H279   H     0.30845   0.59787   0.43302   0.00000  Uiso   1.00
H280   H     0.07507   0.40574   0.12998   0.00000  Uiso   1.00
H281   H     0.02707   0.40287   0.06719   0.00000  Uiso   1.00
H282   H     0.25782   0.37261   0.29743   0.00000  Uiso   1.00
H283   H     0.05093   0.34880   0.28876   0.00000  Uiso   1.00
H284   H     0.30621   0.43827   0.18100   0.00000  Uiso   1.00
H285   H     0.02020   0.49508   0.17203   0.00000  Uiso   1.00
H286   H     0.04104   0.43760   0.20080   0.00000  Uiso   1.00
H287   H     0.02663   0.55621   0.32185   0.00000  Uiso   1.00
H288   H     0.29274   0.56079   0.30110   0.00000  Uiso   1.00
H289   H     0.31193   0.50020   0.32685   0.00000  Uiso   1.00
H290   H     0.13389   0.37246   0.10010   0.00000  Uiso   1.00
H291   H     0.19245   0.59464   0.34848   0.00000  Uiso   1.00
H292   H     0.20057   0.62852   0.39957   0.00000  Uiso   1.00
H293   H     0.26020   0.59550   0.37048   0.00000  Uiso   1.00
H294   H     0.28223   0.58852   0.08915   0.00000  Uiso   1.00
H295   H     0.23575   0.59516   0.14067   0.00000  Uiso   1.00
H296   H     0.27877   0.53903   0.12664   0.00000  Uiso   1.00
N297   N     0.31678   0.48598   0.23783   0.00000  Uiso   1.00
N298   N     0.01656   0.51402   0.26217   0.00000  Uiso   1.00
O299   O     0.12975   0.57952   0.25298   0.00000  Uiso   1.00
O300   O     0.05486   0.33671   0.03759   0.00000  Uiso   1.00
O301   O     0.29194   0.65629   0.25093   0.00000  Uiso   1.00
O302   O     0.08843   0.63631   0.32747   0.00000  Uiso   1.00
O303   O     0.20358   0.42048   0.24701   0.00000  Uiso   1.00
O304   O     0.22613   0.57054   0.24518   0.00000  Uiso   1.00
O305   O     0.10720   0.42946   0.25481   0.00000  Uiso   1.00
O306   O     0.11847   0.50450   0.31997   0.00000  Uiso   1.00
O307   O     0.21486   0.49550   0.18002   0.00000  Uiso   1.00
O308   O     0.21485   0.49552   0.31217   0.00000  Uiso   1.00
O309   O     0.11848   0.50448   0.18782   0.00000  Uiso   1.00
O310   O     0.28023   0.66426   0.46187   0.00000  Uiso   1.00
Zn311  Zn    0.10231   0.50600   0.25521   0.00000  Uiso   1.00
Zn312  Zn    0.23102   0.49400   0.24479   0.00000  Uiso   1.00
C313   C     0.51528   0.59821   0.25411   0.00000  Uiso   1.00
C314   C     0.52909   0.54355   0.40568   0.00000  Uiso   1.00
C315   C     0.50166   0.49961   0.11581   0.00000  Uiso   1.00
C316   C     0.49873   0.50195   0.38438   0.00000  Uiso   1.00
C317   C     0.53527   0.53824   0.09193   0.00000  Uiso   1.00
C318   C     0.46443   0.46432   0.40875   0.00000  Uiso   1.00
C319   C     0.52794   0.54298   0.04657   0.00000  Uiso   1.00
C320   C     0.47319   0.45873   0.45362   0.00000  Uiso   1.00
C321   C     0.50020   0.50048   0.02351   0.00000  Uiso   1.00
C322   C     0.50164   0.50076   0.47657   0.00000  Uiso   1.00
C323   C     0.46990   0.45845   0.04736   0.00000  Uiso   1.00
C324   C     0.48527   0.40236   0.25662   0.00000  Uiso   1.00
C325   C     0.53196   0.54262   0.45260   0.00000  Uiso   1.00
C326   C     0.54962   0.58805   0.02325   0.00000  Uiso   1.00
C327   C     0.45165   0.41347   0.47658   0.00000  Uiso   1.00
C328   C     0.45490   0.40806   0.12027   0.00000  Uiso   1.00
C329   C     0.54694   0.59288   0.37967   0.00000  Uiso   1.00
C330   C     0.58499   0.56747   0.11331   0.00000  Uiso   1.00
C331   C     0.41223   0.43778   0.38900   0.00000  Uiso   1.00
C332   C     0.55381   0.64227   0.04635   0.00000  Uiso   1.00
C333   C     0.44591   0.35981   0.45261   0.00000  Uiso   1.00
C334   C     0.60949   0.61658   0.45541   0.00000  Uiso   1.00
C335   C     0.56082   0.58370   0.47673   0.00000  Uiso   1.00
C336   C     0.39247   0.38433   0.04446   0.00000  Uiso   1.00
C337   C     0.58410   0.34054   0.27311   0.00000  Uiso   1.00
C338   C     0.42335   0.66576   0.29636   0.00000  Uiso   1.00
C339   C     0.34012   0.46357   0.19580   0.00000  Uiso   1.00
C340   C     0.65953   0.53347   0.30509   0.00000  Uiso   1.00
C341   C     0.44106   0.41733   0.02315   0.00000  Uiso   1.00
C342   C     0.52453   0.65287   0.26677   0.00000  Uiso   1.00
C343   C     0.47889   0.34969   0.27222   0.00000  Uiso   1.00
C344   C     0.49965   0.49951   0.33634   0.00000  Uiso   1.00
C345   C     0.50050   0.50129   0.16377   0.00000  Uiso   1.00
C346   C     0.47247   0.45752   0.09425   0.00000  Uiso   1.00
H347   H     0.47674   0.40584   0.15118   0.00000  Uiso   1.00
H348   H     0.38207   0.41724   0.41382   0.00000  Uiso   1.00
H349   H     0.38603   0.46789   0.37696   0.00000  Uiso   1.00
H350   H     0.42552   0.41009   0.36102   0.00000  Uiso   1.00
H351   H     0.53241   0.64247   0.08085   0.00000  Uiso   1.00
H352   H     0.59897   0.65701   0.04734   0.00000  Uiso   1.00
H353   H     0.53155   0.33709   0.02805   0.00000  Uiso   1.00
H354   H     0.40044   0.34590   0.45213   0.00000  Uiso   1.00
H355   H     0.46639   0.36009   0.41779   0.00000  Uiso   1.00
H356   H     0.46815   0.66409   0.46995   0.00000  Uiso   1.00
H357   H     0.64179   0.59787   0.43302   0.00000  Uiso   1.00
H358   H     0.40841   0.40574   0.12998   0.00000  Uiso   1.00
H359   H     0.36041   0.40287   0.06719   0.00000  Uiso   1.00
H360   H     0.59115   0.37261   0.29743   0.00000  Uiso   1.00
H361   H     0.38426   0.34880   0.28876   0.00000  Uiso   1.00
H362   H     0.63954   0.43827   0.18100   0.00000  Uiso   1.00
H363   H     0.35353   0.49508   0.17203   0.00000  Uiso   1.00
H364   H     0.37438   0.43760   0.20080   0.00000  Uiso   1.00
H365   H     0.35997   0.55621   0.32185   0.00000  Uiso   1.00
H366   H     0.62607   0.56079   0.30110   0.00000  Uiso   1.00
H367   H     0.64526   0.50020   0.32685   0.00000  Uiso   1.00
H368   H     0.46722   0.37246   0.10010   0.00000  Uiso   1.00
H369   H     0.52578   0.59464   0.34848   0.00000  Uiso   1.00
H370   H     0.53390   0.62852   0.39957   0.00000  Uiso   1.00
H371   H     0.59354   0.59550   0.37048   0.00000  Uiso   1.00
H372   H     0.61556   0.58852   0.08915   0.00000  Uiso   1.00
H373   H     0.56909   0.59516   0.14067   0.00000  Uiso   1.00
H374   H     0.61210   0.53903   0.12664   0.00000  Uiso   1.00
N375   N     0.65011   0.48598   0.23783   0.00000  Uiso   1.00
N376   N     0.34989   0.51402   0.26217   0.00000  Uiso   1.00
O377   O     0.46308   0.57952   0.25298   0.00000  Uiso   1.00
O378   O     0.38819   0.33671   0.03759   0.00000  Uiso   1.00
O379   O     0.62527   0.65629   0.25093   0.00000  Uiso   1.00
O380   O     0.42177   0.63631   0.32747   0.00000  Uiso   1.00
O381   O     0.53692   0.42048   0.24701   0.00000  Uiso   1.00
O382   O     0.55946   0.57054   0.24518   0.00000  Uiso   1.00
O383   O     0.44054   0.42946   0.25481   0.00000  Uiso   1.00
O384   O     0.45181   0.50450   0.31997   0.00000  Uiso   1.00
O385   O     0.54819   0.49550   0.18002   0.00000  Uiso   1.00
O386   O     0.54819   0.49552   0.31217   0.00000  Uiso   1.00
O387   O     0.45181   0.50448   0.18782   0.00000  Uiso   1.00
O388   O     0.61357   0.66426   0.46187   0.00000  Uiso   1.00
Zn389  Zn    0.43565   0.50600   0.25521   0.00000  Uiso   1.00
Zn390  Zn    0.56435   0.49400   0.24479   0.00000  Uiso   1.00
C391   C     0.84862   0.59821   0.25411   0.00000  Uiso   1.00
C392   C     0.86242   0.54355   0.40568   0.00000  Uiso   1.00
C393   C     0.83500   0.49961   0.11581   0.00000  Uiso   1.00
C394   C     0.83206   0.50195   0.38438   0.00000  Uiso   1.00
C395   C     0.86860   0.53824   0.09193   0.00000  Uiso   1.00
C396   C     0.79776   0.46432   0.40875   0.00000  Uiso   1.00
C397   C     0.86128   0.54298   0.04657   0.00000  Uiso   1.00
C398   C     0.80652   0.45873   0.45362   0.00000  Uiso   1.00
C399   C     0.83353   0.50048   0.02351   0.00000  Uiso   1.00
C400   C     0.83497   0.50076   0.47657   0.00000  Uiso   1.00
C401   C     0.80324   0.45845   0.04736   0.00000  Uiso   1.00
C402   C     0.81860   0.40236   0.25662   0.00000  Uiso   1.00
C403   C     0.86529   0.54262   0.45260   0.00000  Uiso   1.00
C404   C     0.88295   0.58805   0.02325   0.00000  Uiso   1.00
C405   C     0.78499   0.41347   0.47658   0.00000  Uiso   1.00
C406   C     0.78823   0.40806   0.12027   0.00000  Uiso   1.00
C407   C     0.88027   0.59288   0.37967   0.00000  Uiso   1.00
C408   C     0.91832   0.56747   0.11331   0.00000  Uiso   1.00
C409   C     0.74557   0.43778   0.38900   0.00000  Uiso   1.00
C410   C     0.88714   0.64227   0.04635   0.00000  Uiso   1.00
C411   C     0.77925   0.35981   0.45261   0.00000  Uiso   1.00
C412   C     0.94282   0.61658   0.45541   0.00000  Uiso   1.00
C413   C     0.89416   0.58370   0.47673   0.00000  Uiso   1.00
C414   C     0.72581   0.38433   0.04446   0.00000  Uiso   1.00
C415   C     0.91743   0.34054   0.27311   0.00000  Uiso   1.00
C416   C     0.75668   0.66576   0.29636   0.00000  Uiso   1.00
C417   C     0.67345   0.46357   0.19580   0.00000  Uiso   1.00
C418   C     0.99286   0.53347   0.30509   0.00000  Uiso   1.00
C419   C     0.77439   0.41733   0.02315   0.00000  Uiso   1.00
C420   C     0.85787   0.65287   0.26677   0.00000  Uiso   1.00
C421   C     0.81222   0.34969   0.27222   0.00000  Uiso   1.00
C422   C     0.83298   0.49951   0.33634   0.00000  Uiso   1.00
C423   C     0.83383   0.50129   0.16377   0.00000  Uiso   1.00
C424   C     0.80580   0.45752   0.09425   0.00000  Uiso   1.00
H425   H     0.81008   0.40584   0.15118   0.00000  Uiso   1.00
H426   H     0.71540   0.41724   0.41382   0.00000  Uiso   1.00
H427   H     0.71937   0.46789   0.37696   0.00000  Uiso   1.00
H428   H     0.75885   0.41009   0.36102   0.00000  Uiso   1.00
H429   H     0.86574   0.64247   0.08085   0.00000  Uiso   1.00
H430   H     0.93230   0.65701   0.04734   0.00000  Uiso   1.00
H431   H     0.86488   0.33709   0.02805   0.00000  Uiso   1.00
H432   H     0.73378   0.34590   0.45213   0.00000  Uiso   1.00
H433   H     0.79972   0.36009   0.41779   0.00000  Uiso   1.00
H434   H     0.80148   0.66409   0.46995   0.00000  Uiso   1.00
H435   H     0.97512   0.59787   0.43302   0.00000  Uiso   1.00
H436   H     0.74174   0.40574   0.12998   0.00000  Uiso   1.00
H437   H     0.69374   0.40287   0.06719   0.00000  Uiso   1.00
H438   H     0.92449   0.37261   0.29743   0.00000  Uiso   1.00
H439   H     0.71759   0.34880   0.28876   0.00000  Uiso   1.00
H440   H     0.97288   0.43827   0.18100   0.00000  Uiso   1.00
H441   H     0.68686   0.49508   0.17203   0.00000  Uiso   1.00
H442   H     0.70771   0.43760   0.20080   0.00000  Uiso   1.00
H443   H     0.69330   0.55621   0.32185   0.00000  Uiso   1.00
H444   H     0.95941   0.56079   0.30110   0.00000  Uiso   1.00
H445   H     0.97860   0.50020   0.32685   0.00000  Uiso   1.00
H446   H     0.80056   0.37246   0.10010   0.00000  Uiso   1.00
H447   H     0.85912   0.59464   0.34848   0.00000  Uiso   1.00
H448   H     0.86723   0.62852   0.39957   0.00000  Uiso   1.00
H449   H     0.92687   0.59550   0.37048   0.00000  Uiso   1.00
H450   H     0.94890   0.58852   0.08915   0.00000  Uiso   1.00
H451   H     0.90242   0.59516   0.14067   0.00000  Uiso   1.00
H452   H     0.94543   0.53903   0.12664   0.00000  Uiso   1.00
N453   N     0.98344   0.48598   0.23783   0.00000  Uiso   1.00
N454   N     0.68322   0.51402   0.26217   0.00000  Uiso   1.00
O455   O     0.79642   0.57952   0.25298   0.00000  Uiso   1.00
O456   O     0.72152   0.33671   0.03759   0.00000  Uiso   1.00
O457   O     0.95861   0.65629   0.25093   0.00000  Uiso   1.00
O458   O     0.75510   0.63631   0.32747   0.00000  Uiso   1.00
O459   O     0.87025   0.42048   0.24701   0.00000  Uiso   1.00
O460   O     0.89280   0.57054   0.24518   0.00000  Uiso   1.00
O461   O     0.77387   0.42946   0.25481   0.00000  Uiso   1.00
O462   O     0.78514   0.50450   0.31997   0.00000  Uiso   1.00
O463   O     0.88153   0.49550   0.18002   0.00000  Uiso   1.00
O464   O     0.88152   0.49552   0.31217   0.00000  Uiso   1.00
O465   O     0.78515   0.50448   0.18782   0.00000  Uiso   1.00
O466   O     0.94690   0.66426   0.46187   0.00000  Uiso   1.00
Zn467  Zn    0.76898   0.50600   0.25521   0.00000  Uiso   1.00
Zn468  Zn    0.89769   0.49400   0.24479   0.00000  Uiso   1.00
C469   C     0.18195   0.93154   0.25411   0.00000  Uiso   1.00
C470   C     0.19575   0.87688   0.40568   0.00000  Uiso   1.00
C471   C     0.16833   0.83295   0.11581   0.00000  Uiso   1.00
C472   C     0.16540   0.83528   0.38438   0.00000  Uiso   1.00
C473   C     0.20194   0.87157   0.09193   0.00000  Uiso   1.00
C474   C     0.13110   0.79765   0.40875   0.00000  Uiso   1.00
C475   C     0.19461   0.87631   0.04657   0.00000  Uiso   1.00
C476   C     0.13986   0.79206   0.45362   0.00000  Uiso   1.00
C477   C     0.16686   0.83381   0.02351   0.00000  Uiso   1.00
C478   C     0.16830   0.83409   0.47657   0.00000  Uiso   1.00
C479   C     0.13657   0.79178   0.04736   0.00000  Uiso   1.00
C480   C     0.15194   0.73569   0.25662   0.00000  Uiso   1.00
C481   C     0.19863   0.87595   0.45260   0.00000  Uiso   1.00
C482   C     0.21628   0.92139   0.02325   0.00000  Uiso   1.00
C483   C     0.11832   0.74680   0.47658   0.00000  Uiso   1.00
C484   C     0.12156   0.74140   0.12027   0.00000  Uiso   1.00
C485   C     0.21361   0.92622   0.37967   0.00000  Uiso   1.00
C486   C     0.25166   0.90080   0.11331   0.00000  Uiso   1.00
C487   C     0.07890   0.77111   0.38900   0.00000  Uiso   1.00
C488   C     0.22047   0.97560   0.04635   0.00000  Uiso   1.00
C489   C     0.11258   0.69315   0.45261   0.00000  Uiso   1.00
C490   C     0.27615   0.94991   0.45541   0.00000  Uiso   1.00
C491   C     0.22749   0.91704   0.47673   0.00000  Uiso   1.00
C492   C     0.05914   0.71766   0.04446   0.00000  Uiso   1.00
C493   C     0.25076   0.67387   0.27311   0.00000  Uiso   1.00
C494   C     0.09001   0.99910   0.29636   0.00000  Uiso   1.00
C495   C     0.00679   0.79690   0.19580   0.00000  Uiso   1.00
C496   C     0.32620   0.86681   0.30509   0.00000  Uiso   1.00
C497   C     0.10772   0.75066   0.02315   0.00000  Uiso   1.00
C498   C     0.19120   0.98620   0.26677   0.00000  Uiso   1.00
C499   C     0.14556   0.68302   0.27222   0.00000  Uiso   1.00
C500   C     0.16631   0.83285   0.33634   0.00000  Uiso   1.00
C501   C     0.16716   0.83462   0.16377   0.00000  Uiso   1.00
C502   C     0.13914   0.79086   0.09425   0.00000  Uiso   1.00
H503   H     0.14341   0.73918   0.15118   0.00000  Uiso   1.00
H504   H     0.04874   0.75058   0.41382   0.00000  Uiso   1.00
H505   H     0.05270   0.80122   0.37696   0.00000  Uiso   1.00
H506   H     0.09219   0.74342   0.36102   0.00000  Uiso   1.00
H507   H     0.19907   0.97580   0.08085   0.00000  Uiso   1.00
H508   H     0.26564   0.99034   0.04734   0.00000  Uiso   1.00
H509   H     0.19822   0.67042   0.02805   0.00000  Uiso   1.00
H510   H     0.06711   0.67923   0.45213   0.00000  Uiso   1.00
H511   H     0.13305   0.69343   0.41779   0.00000  Uiso   1.00
H512   H     0.13482   0.99742   0.46995   0.00000  Uiso   1.00
H513   H     0.30845   0.93121   0.43302   0.00000  Uiso   1.00
H514   H     0.07507   0.73907   0.12998   0.00000  Uiso   1.00
H515   H     0.02707   0.73621   0.06719   0.00000  Uiso   1.00
H516   H     0.25782   0.70595   0.29743   0.00000  Uiso   1.00
H517   H     0.05093   0.68213   0.28876   0.00000  Uiso   1.00
H518   H     0.30621   0.77161   0.18100   0.00000  Uiso   1.00
H519   H     0.02020   0.82841   0.17203   0.00000  Uiso   1.00
H520   H     0.04104   0.77093   0.20080   0.00000  Uiso   1.00
H521   H     0.02663   0.88954   0.32185   0.00000  Uiso   1.00
H522   H     0.29274   0.89412   0.30110   0.00000  Uiso   1.00
H523   H     0.31193   0.83354   0.32685   0.00000  Uiso   1.00
H524   H     0.13389   0.70580   0.10010   0.00000  Uiso   1.00
H525   H     0.19245   0.92798   0.34848   0.00000  Uiso   1.00
H526   H     0.20057   0.96185   0.39957   0.00000  Uiso   1.00
H527   H     0.26020   0.92883   0.37048   0.00000  Uiso   1.00
H528   H     0.28223   0.92185   0.08915   0.00000  Uiso   1.00
H529   H     0.23575   0.92850   0.14067   0.00000  Uiso   1.00
H530   H     0.27877   0.87237   0.12664   0.00000  Uiso   1.00
N531   N     0.31678   0.81932   0.23783   0.00000  Uiso   1.00
N532   N     0.01656   0.84735   0.26217   0.00000  Uiso   1.00
O533   O     0.12975   0.91286   0.25298   0.00000  Uiso   1.00
O534   O     0.05486   0.67004   0.03759   0.00000  Uiso   1.00
O535   O     0.29194   0.98962   0.25093   0.00000  Uiso   1.00
O536   O     0.08843   0.96964   0.32747   0.00000  Uiso   1.00
O537   O     0.20358   0.75381   0.24701   0.00000  Uiso   1.00
O538   O     0.22613   0.90387   0.24518   0.00000  Uiso   1.00
O539   O     0.10720   0.76279   0.25481   0.00000  Uiso   1.00
O540   O     0.11847   0.83784   0.31997   0.00000  Uiso   1.00
O541   O     0.21486   0.82883   0.18002   0.00000  Uiso   1.00
O542   O     0.21485   0.82885   0.31217   0.00000  Uiso   1.00
O543   O     0.11848   0.83781   0.18782   0.00000  Uiso   1.00
O544   O     0.28023   0.99760   0.46187   0.00000  Uiso   1.00
Zn545  Zn    0.10231   0.83933   0.25521   0.00000  Uiso   1.00
Zn546  Zn    0.23102   0.82734   0.24479   0.00000  Uiso   1.00
C547   C     0.51528   0.93154   0.25411   0.00000  Uiso   1.00
C548   C     0.52909   0.87688   0.40568   0.00000  Uiso   1.00
C549   C     0.50166   0.83295   0.11581   0.00000  Uiso   1.00
C550   C     0.49873   0.83528   0.38438   0.00000  Uiso   1.00
C551   C     0.53527   0.87157   0.09193   0.00000  Uiso   1.00
C552   C     0.46443   0.79765   0.40875   0.00000  Uiso   1.00
C553   C     0.52794   0.87631   0.04657   0.00000  Uiso   1.00
C554   C     0.47319   0.79206   0.45362   0.00000  Uiso   1.00
C555   C     0.50020   0.83381   0.02351   0.00000  Uiso   1.00
C556   C     0.50164   0.83409   0.47657   0.00000  Uiso   1.00
C557   C     0.46990   0.79178   0.04736   0.00000  Uiso   1.00
C558   C     0.48527   0.73569   0.25662   0.00000  Uiso   1.00
C559   C     0.53196   0.87595   0.45260   0.00000  Uiso   1.00
C560   C     0.54962   0.92139   0.02325   0.00000  Uiso   1.00
C561   C     0.45165   0.74680   0.47658   0.00000  Uiso   1.00
C562   C     0.45490   0.74140   0.12027   0.00000  Uiso   1.00
C563   C     0.54694   0.92622   0.37967   0.00000  Uiso   1.00
C564   C     0.58499   0.90080   0.11331   0.00000  Uiso   1.00
C565   C     0.41223   0.77111   0.38900   0.00000  Uiso   1.00
C566   C     0.55381   0.97560   0.04635   0.00000  Uiso   1.00
C567   C     0.44591   0.69315   0.45261   0.00000  Uiso   1.00
C568   C     0.60949   0.94991   0.45541   0.00000  Uiso   1.00
C569   C     0.56082   0.91704   0.47673   0.00000  Uiso   1.00
C570   C     0.39247   0.71766   0.04446   0.00000  Uiso   1.00
C571   C     0.58410   0.67387   0.27311   0.00000  Uiso   1.00
C572   C     0.42335   0.99910   0.29636   0.00000  Uiso   1.00
C573   C     0.34012   0.79690   0.19580   0.00000  Uiso   1.00
C574   C     0.65953   0.86681   0.30509   0.00000  Uiso   1.00
C575   C     0.44106   0.75066   0.02315   0.00000  Uiso   1.00
C576   C     0.52453   0.98620   0.26677   0.00000  Uiso   1.00
C577   C     0.47889   0.68302   0.27222   0.00000  Uiso   1.00
C578   C     0.49965   0.83285   0.33634   0.00000  Uiso   1.00
C579   C     0.50050   0.83462   0.16377   0.00000  Uiso   1.00
C580   C     0.47247   0.79086   0.09425   0.00000  Uiso   1.00
H581   H     0.47674   0.73918   0.15118   0.00000  Uiso   1.00
H582   H     0.38207   0.75058   0.41382   0.00000  Uiso   1.00
H583   H     0.38603   0.80122   0.37696   0.00000  Uiso   1.00
H584   H     0.42552   0.74342   0.36102   0.00000  Uiso   1.00
H585   H     0.53241   0.97580   0.08085   0.00000  Uiso   1.00
H586   H     0.59897   0.99034   0.04734   0.00000  Uiso   1.00
H587   H     0.53155   0.67042   0.02805   0.00000  Uiso   1.00
H588   H     0.40044   0.67923   0.45213   0.00000  Uiso   1.00
H589   H     0.46639   0.69343   0.41779   0.00000  Uiso   1.00
H590   H     0.46815   0.99742   0.46995   0.00000  Uiso   1.00
H591   H     0.64179   0.93121   0.43302   0.00000  Uiso   1.00
H592   H     0.40841   0.73907   0.12998   0.00000  Uiso   1.00
H593   H     0.36041   0.73621   0.06719   0.00000  Uiso   1.00
H594   H     0.59115   0.70595   0.29743   0.00000  Uiso   1.00
H595   H     0.38426   0.68213   0.28876   0.00000  Uiso   1.00
H596   H     0.63954   0.77161   0.18100   0.00000  Uiso   1.00
H597   H     0.35353   0.82841   0.17203   0.00000  Uiso   1.00
H598   H     0.37438   0.77093   0.20080   0.00000  Uiso   1.00
H599   H     0.35997   0.88954   0.32185   0.00000  Uiso   1.00
H600   H     0.62607   0.89412   0.30110   0.00000  Uiso   1.00
H601   H     0.64526   0.83354   0.32685   0.00000  Uiso   1.00
H602   H     0.46722   0.70580   0.10010   0.00000  Uiso   1.00
H603   H     0.52578   0.92798   0.34848   0.00000  Uiso   1.00
H604   H     0.53390   0.96185   0.39957   0.00000  Uiso   1.00
H605   H     0.59354   0.92883   0.37048   0.00000  Uiso   1.00
H606   H     0.61556   0.92185   0.08915   0.00000  Uiso   1.00
H607   H     0.56909   0.92850   0.14067   0.00000  Uiso   1.00
H608   H     0.61210   0.87237   0.12664   0.00000  Uiso   1.00
N609   N     0.65011   0.81932   0.23783   0.00000  Uiso   1.00
N610   N     0.34989   0.84735   0.26217   0.00000  Uiso   1.00
O611   O     0.46308   0.91286   0.25298   0.00000  Uiso   1.00
O612   O     0.38819   0.67004   0.03759   0.00000  Uiso   1.00
O613   O     0.62527   0.98962   0.25093   0.00000  Uiso   1.00
O614   O     0.42177   0.96964   0.32747   0.00000  Uiso   1.00
O615   O     0.53692   0.75381   0.24701   0.00000  Uiso   1.00
O616   O     0.55946   0.90387   0.24518   0.00000  Uiso   1.00
O617   O     0.44054   0.76279   0.25481   0.00000  Uiso   1.00
O618   O     0.45181   0.83784   0.31997   0.00000  Uiso   1.00
O619   O     0.54819   0.82883   0.18002   0.00000  Uiso   1.00
O620   O     0.54819   0.82885   0.31217   0.00000  Uiso   1.00
O621   O     0.45181   0.83781   0.18782   0.00000  Uiso   1.00
O622   O     0.61357   0.99760   0.46187   0.00000  Uiso   1.00
Zn623  Zn    0.43565   0.83933   0.25521   0.00000  Uiso   1.00
Zn624  Zn    0.56435   0.82734   0.24479   0.00000  Uiso   1.00
C625   C     0.84862   0.93154   0.25411   0.00000  Uiso   1.00
C626   C     0.86242   0.87688   0.40568   0.00000  Uiso   1.00
C627   C     0.83500   0.83295   0.11581   0.00000  Uiso   1.00
C628   C     0.83206   0.83528   0.38438   0.00000  Uiso   1.00
C629   C     0.86860   0.87157   0.09193   0.00000  Uiso   1.00
C630   C     0.79776   0.79765   0.40875   0.00000  Uiso   1.00
C631   C     0.86128   0.87631   0.04657   0.00000  Uiso   1.00
C632   C     0.80652   0.79206   0.45362   0.00000  Uiso   1.00
C633   C     0.83353   0.83381   0.02351   0.00000  Uiso   1.00
C634   C     0.83497   0.83409   0.47657   0.00000  Uiso   1.00
C635   C     0.80324   0.79178   0.04736   0.00000  Uiso   1.00
C636   C     0.81860   0.73569   0.25662   0.00000  Uiso   1.00
C637   C     0.86529   0.87595   0.45260   0.00000  Uiso   1.00
C638   C     0.88295   0.92139   0.02325   0.00000  Uiso   1.00
C639   C     0.78499   0.74680   0.47658   0.00000  Uiso   1.00
C640   C     0.78823   0.74140   0.12027   0.00000  Uiso   1.00
C641   C     0.88027   0.92622   0.37967   0.00000  Uiso   1.00
C642   C     0.91832   0.90080   0.11331   0.00000  Uiso   1.00
C643   C     0.74557   0.77111   0.38900   0.00000  Uiso   1.00
C644   C     0.88714   0.97560   0.04635   0.00000  Uiso   1.00
C645   C     0.77925   0.69315   0.45261   0.00000  Uiso   1.00
C646   C     0.94282   0.94991   0.45541   0.00000  Uiso   1.00
C647   C     0.89416   0.91704   0.47673   0.00000  Uiso   1.00
C648   C     0.72581   0.71766   0.04446   0.00000  Uiso   1.00
C649   C     0.91743   0.67387   0.27311   0.00000  Uiso   1.00
C650   C     0.75668   0.99910   0.29636   0.00000  Uiso   1.00
C651   C     0.67345   0.79690   0.19580   0.00000  Uiso   1.00
C652   C     0.99286   0.86681   0.30509   0.00000  Uiso   1.00
C653   C     0.77439   0.75066   0.02315   0.00000  Uiso   1.00
C654   C     0.85787   0.98620   0.26677   0.00000  Uiso   1.00
C655   C     0.81222   0.68302   0.27222   0.00000  Uiso   1.00
C656   C     0.83298   0.83285   0.33634   0.00000  Uiso   1.00
C657   C     0.83383   0.83462   0.16377   0.00000  Uiso   1.00
C658   C     0.80580   0.79086   0.09425   0.00000  Uiso   1.00
H659   H     0.81008   0.73918   0.15118   0.00000  Uiso   1.00
H660   H     0.71540   0.75058   0.41382   0.00000  Uiso   1.00
H661   H     0.71937   0.80122   0.37696   0.00000  Uiso   1.00
H662   H     0.75885   0.74342   0.36102   0.00000  Uiso   1.00
H663   H     0.86574   0.97580   0.08085   0.00000  Uiso   1.00
H664   H     0.93230   0.99034   0.04734   0.00000  Uiso   1.00
H665   H     0.86488   0.67042   0.02805   0.00000  Uiso   1.00
H666   H     0.73378   0.67923   0.45213   0.00000  Uiso   1.00
H667   H     0.79972   0.69343   0.41779   0.00000  Uiso   1.00
H668   H     0.80148   0.99742   0.46995   0.00000  Uiso   1.00
H669   H     0.97512   0.93121   0.43302   0.00000  Uiso   1.00
H670   H     0.74174   0.73907   0.12998   0.00000  Uiso   1.00
H671   H     0.69374   0.73621   0.06719   0.00000  Uiso   1.00
H672   H     0.92449   0.70595   0.29743   0.00000  Uiso   1.00
H673   H     0.71759   0.68213   0.28876   0.00000  Uiso   1.00
H674   H     0.97288   0.77161   0.18100   0.00000  Uiso   1.00
H675   H     0.68686   0.82841   0.17203   0.00000  Uiso   1.00
H676   H     0.70771   0.77093   0.20080   0.00000  Uiso   1.00
H677   H     0.69330   0.88954   0.32185   0.00000  Uiso   1.00
H678   H     0.95941   0.89412   0.30110   0.00000  Uiso   1.00
H679   H     0.97860   0.83354   0.32685   0.00000  Uiso   1.00
H680   H     0.80056   0.70580   0.10010   0.00000  Uiso   1.00
H681   H     0.85912   0.92798   0.34848   0.00000  Uiso   1.00
H682   H     0.86723   0.96185   0.39957   0.00000  Uiso   1.00
H683   H     0.92687   0.92883   0.37048   0.00000  Uiso   1.00
H684   H     0.94890   0.92185   0.08915   0.00000  Uiso   1.00
H685   H     0.90242   0.92850   0.14067   0.00000  Uiso   1.00
H686   H     0.94543   0.87237   0.12664   0.00000  Uiso   1.00
N687   N     0.98344   0.81932   0.23783   0.00000  Uiso   1.00
N688   N     0.68322   0.84735   0.26217   0.00000  Uiso   1.00
O689   O     0.79642   0.91286   0.25298   0.00000  Uiso   1.00
O690   O     0.72152   0.67004   0.03759   0.00000  Uiso   1.00
O691   O     0.95861   0.98962   0.25093   0.00000  Uiso   1.00
O692   O     0.75510   0.96964   0.32747   0.00000  Uiso   1.00
O693   O     0.87025   0.75381   0.24701   0.00000  Uiso   1.00
O694   O     0.89280   0.90387   0.24518   0.00000  Uiso   1.00
O695   O     0.77387   0.76279   0.25481   0.00000  Uiso   1.00
O696   O     0.78514   0.83784   0.31997   0.00000  Uiso   1.00
O697   O     0.88153   0.82883   0.18002   0.00000  Uiso   1.00
O698   O     0.88152   0.82885   0.31217   0.00000  Uiso   1.00
O699   O     0.78515   0.83781   0.18782   0.00000  Uiso   1.00
O700   O     0.94690   0.99760   0.46187   0.00000  Uiso   1.00
Zn701  Zn    0.76898   0.83933   0.25521   0.00000  Uiso   1.00
Zn702  Zn    0.89769   0.82734   0.24479   0.00000  Uiso   1.00
C703   C     0.18195   0.26488   0.75411   0.00000  Uiso   1.00
C704   C     0.19575   0.21022   0.90568   0.00000  Uiso   1.00
C705   C     0.16833   0.16628   0.61581   0.00000  Uiso   1.00
C706   C     0.16540   0.16861   0.88438   0.00000  Uiso   1.00
C707   C     0.20194   0.20490   0.59193   0.00000  Uiso   1.00
C708   C     0.13110   0.13098   0.90875   0.00000  Uiso   1.00
C709   C     0.19461   0.20965   0.54657   0.00000  Uiso   1.00
C710   C     0.13986   0.12539   0.95362   0.00000  Uiso   1.00
C711   C     0.16686   0.16715   0.52351   0.00000  Uiso   1.00
C712   C     0.16830   0.16742   0.97657   0.00000  Uiso   1.00
C713   C     0.13657   0.12512   0.54736   0.00000  Uiso   1.00
C714   C     0.15194   0.06902   0.75662   0.00000  Uiso   1.00
C715   C     0.19863   0.20929   0.95260   0.00000  Uiso   1.00
C716   C     0.21628   0.25472   0.52325   0.00000  Uiso   1.00
C717   C     0.11832   0.08014   0.97658   0.00000  Uiso   1.00
C718   C     0.12156   0.07473   0.62027   0.00000  Uiso   1.00
C719   C     0.21361   0.25955   0.87967   0.00000  Uiso   1.00
C720   C     0.25166   0.23413   0.61331   0.00000  Uiso   1.00
C721   C     0.07890   0.10445   0.88900   0.00000  Uiso   1.00
C722   C     0.22047   0.30894   0.54635   0.00000  Uiso   1.00
C723   C     0.11258   0.02648   0.95261   0.00000  Uiso   1.00
C724   C     0.27615   0.28325   0.95541   0.00000  Uiso   1.00
C725   C     0.22749   0.25037   0.97673   0.00000  Uiso   1.00
C726   C     0.05914   0.05099   0.54446   0.00000  Uiso   1.00
C727   C     0.25076   0.00720   0.77311   0.00000  Uiso   1.00
C728   C     0.09001   0.33243   0.79636   0.00000  Uiso   1.00
C729   C     0.00679   0.13024   0.69580   0.00000  Uiso   1.00
C730   C     0.32620   0.20014   0.80509   0.00000  Uiso   1.00
C731   C     0.10772   0.08400   0.52315   0.00000  Uiso   1.00
C732   C     0.19120   0.31953   0.76677   0.00000  Uiso   1.00
C733   C     0.14556   0.01635   0.77222   0.00000  Uiso   1.00
C734   C     0.16631   0.16618   0.83634   0.00000  Uiso   1.00
C735   C     0.16716   0.16796   0.66377   0.00000  Uiso   1.00
C736   C     0.13914   0.12419   0.59425   0.00000  Uiso   1.00
H737   H     0.14341   0.07251   0.65118   0.00000  Uiso   1.00
H738   H     0.04874   0.08391   0.91382   0.00000  Uiso   1.00
H739   H     0.05270   0.13456   0.87696   0.00000  Uiso   1.00
H740   H     0.09219   0.07676   0.86102   0.00000  Uiso   1.00
H741   H     0.19907   0.30913   0.58085   0.00000  Uiso   1.00
H742   H     0.26564   0.32368   0.54734   0.00000  Uiso   1.00
H743   H     0.19822   0.00376   0.52805   0.00000  Uiso   1.00
H744   H     0.06711   0.01256   0.95213   0.00000  Uiso   1.00
H745   H     0.13305   0.02676   0.91779   0.00000  Uiso   1.00
H746   H     0.13482   0.33075   0.96995   0.00000  Uiso   1.00
H747   H     0.30845   0.26454   0.93302   0.00000  Uiso   1.00
H748   H     0.07507   0.07241   0.62998   0.00000  Uiso   1.00
H749   H     0.02707   0.06954   0.56719   0.00000  Uiso   1.00
H750   H     0.25782   0.03928   0.79743   0.00000  Uiso   1.00
H751   H     0.05093   0.01546   0.78876   0.00000  Uiso   1.00
H752   H     0.30621   0.10494   0.68100   0.00000  Uiso   1.00
H753   H     0.02020   0.16174   0.67203   0.00000  Uiso   1.00
H754   H     0.04104   0.10426   0.70080   0.00000  Uiso   1.00
H755   H     0.02663   0.22288   0.82185   0.00000  Uiso   1.00
H756   H     0.29274   0.22745   0.80110   0.00000  Uiso   1.00
H757   H     0.31193   0.16687   0.82685   0.00000  Uiso   1.00
H758   H     0.13389   0.03913   0.60010   0.00000  Uiso   1.00
H759   H     0.19245   0.26131   0.84848   0.00000  Uiso   1.00
H760   H     0.20057   0.29518   0.89957   0.00000  Uiso   1.00
H761   H     0.26020   0.26217   0.87048   0.00000  Uiso   1.00
H762   H     0.28223   0.25519   0.58915   0.00000  Uiso   1.00
H763   H     0.23575   0.26183   0.64067   0.00000  Uiso   1.00
H764   H     0.27877   0.20570   0.62664   0.00000  Uiso   1.00
N765   N     0.31678   0.15265   0.73783   0.00000  Uiso   1.00
N766   N     0.01656   0.18068   0.76217   0.00000  Uiso   1.00
O767   O     0.12975   0.24619   0.75298   0.00000  Uiso   1.00
O768   O     0.05486   0.00337   0.53759   0.00000  Uiso   1.00
O769   O     0.29194   0.32295   0.75093   0.00000  Uiso   1.00
O770   O     0.08843   0.30298   0.82747   0.00000  Uiso   1.00
O771   O     0.20358   0.08714   0.74701   0.00000  Uiso   1.00
O772   O     0.22613   0.23721   0.74518   0.00000  Uiso   1.00
O773   O     0.10720   0.09613   0.75481   0.00000  Uiso   1.00
O774   O     0.11847   0.17117   0.81997   0.00000  Uiso   1.00
O775   O     0.21486   0.16216   0.68002   0.00000  Uiso   1.00
O776   O     0.21485   0.16219   0.81217   0.00000  Uiso   1.00
O777   O     0.11848   0.17115   0.68782   0.00000  Uiso   1.00
O778   O     0.28023   0.33093   0.96187   0.00000  Uiso   1.00
Zn779  Zn    0.10231   0.17266   0.75521   0.00000  Uiso   1.00
Zn780  Zn    0.23102   0.16067   0.74479   0.00000  Uiso   1.00
C781   C     0.51528   0.26488   0.75411   0.00000  Uiso   1.00
C782   C     0.52909   0.21022   0.90568   0.00000  Uiso   1.00
C783   C     0.50166   0.16628   0.61581   0.00000  Uiso   1.00
C784   C     0.49873   0.16861   0.88438   0.00000  Uiso   1.00
C785   C     0.53527   0.20490   0.59193   0.00000  Uiso   1.00
C786   C     0.46443   0.13098   0.90875   0.00000  Uiso   1.00
C787   C     0.52794   0.20965   0.54657   0.00000  Uiso   1.00
C788   C     0.47319   0.12539   0.95362   0.00000  Uiso   1.00
C789   C     0.50020   0.16715   0.52351   0.00000  Uiso   1.00
C790   C     0.50164   0.16742   0.97657   0.00000  Uiso   1.00
C791   C     0.46990   0.12512   0.54736   0.00000  Uiso   1.00
C792   C     0.48527   0.06902   0.75662   0.00000  Uiso   1.00
C793   C     0.53196   0.20929   0.95260   0.00000  Uiso   1.00
C794   C     0.54962   0.25472   0.52325   0.00000  Uiso   1.00
C795   C     0.45165   0.08014   0.97658   0.00000  Uiso   1.00
C796   C     0.45490   0.07473   0.62027   0.00000  Uiso   1.00
C797   C     0.54694   0.25955   0.87967   0.00000  Uiso   1.00
C798   C     0.58499   0.23413   0.61331   0.00000  Uiso   1.00
C799   C     0.41223   0.10445   0.88900   0.00000  Uiso   1.00
C800   C     0.55381   0.30894   0.54635   0.00000  Uiso   1.00
C801   C     0.44591   0.02648   0.95261   0.00000  Uiso   1.00
C802   C     0.60949   0.28325   0.95541   0.00000  Uiso   1.00
C803   C     0.56082   0.25037   0.97673   0.00000  Uiso   1.00
C804   C     0.39247   0.05099   0.54446   0.00000  Uiso   1.00
C805   C     0.58410   0.00720   0.77311   0.00000  Uiso   1.00
C806   C     0.42335   0.33243   0.79636   0.00000  Uiso   1.00
C807   C     0.34012   0.13024   0.69580   0.00000  Uiso   1.00
C808   C     0.65953   0.20014   0.80509   0.00000  Uiso   1.00
C809   C     0.44106   0.08400   0.52315   0.00000  Uiso   1.00
C810   C     0.52453   0.31953   0.76677   0.00000  Uiso   1.00
C811   C     0.47889   0.01635   0.77222   0.00000  Uiso   1.00
C812   C     0.49965   0.16618   0.83634   0.00000  Uiso   1.00
C813   C     0.50050   0.16796   0.66377   0.00000  Uiso   1.00
C814   C     0.47247   0.12419   0.59425   0.00000  Uiso   1.00
H815   H     0.47674   0.07251   0.65118   0.00000  Uiso   1.00
H816   H     0.38207   0.08391   0.91382   0.00000  Uiso   1.00
H817   H     0.38603   0.13456   0.87696   0.00000  Uiso   1.00
H818   H     0.42552   0.07676   0.86102   0.00000  Uiso   1.00
H819   H     0.53241   0.30913   0.58085   0.00000  Uiso   1.00
H820   H     0.59897   0.32368   0.54734   0.00000  Uiso   1.00
H821   H     0.53155   0.00376   0.52805   0.00000  Uiso   1.00
H822   H     0.40044   0.01256   0.95213   0.00000  Uiso   1.00
H823   H     0.46639   0.02676   0.91779   0.00000  Uiso   1.00
H824   H     0.46815   0.33075   0.96995   0.00000  Uiso   1.00
H825   H     0.64179   0.26454   0.93302   0.00000  Uiso   1.00
H826   H     0.40841   0.07241   0.62998   0.00000  Uiso   1.00
H827   H     0.36041   0.06954   0.56719   0.00000  Uiso   1.00
H828   H     0.59115   0.03928   0.79743   0.00000  Uiso   1.00
H829   H     0.38426   0.01546   0.78876   0.00000  Uiso   1.00
H830   H     0.63954   0.10494   0.68100   0.00000  Uiso   1.00
H831   H     0.35353   0.16174   0.67203   0.00000  Uiso   1.00
H832   H     0.37438   0.10426   0.70080   0.00000  Uiso   1.00
H833   H     0.35997   0.22288   0.82185   0.00000  Uiso   1.00
H834   H     0.62607   0.22745   0.80110   0.00000  Uiso   1.00
H835   H     0.64526   0.16687   0.82685   0.00000  Uiso   1.00
H836   H     0.46722   0.03913   0.60010   0.00000  Uiso   1.00
H837   H     0.52578   0.26131   0.84848   0.00000  Uiso   1.00
H838   H     0.53390   0.29518   0.89957   0.00000  Uiso   1.00
H839   H     0.59354   0.26217   0.87048   0.00000  Uiso   1.00
H840   H     0.61556   0.25519   0.58915   0.00000  Uiso   1.00
H841   H     0.56909   0.26183   0.64067   0.00000  Uiso   1.00
H842   H     0.61210   0.20570   0.62664   0.00000  Uiso   1.00
N843   N     0.65011   0.15265   0.73783   0.00000  Uiso   1.00
N844   N     0.34989   0.18068   0.76217   0.00000  Uiso   1.00
O845   O     0.46308   0.24619   0.75298   0.00000  Uiso   1.00
O846   O     0.38819   0.00337   0.53759   0.00000  Uiso   1.00
O847   O     0.62527   0.32295   0.75093   0.00000  Uiso   1.00
O848   O     0.42177   0.30298   0.82747   0.00000  Uiso   1.00
O849   O     0.53692   0.08714   0.74701   0.00000  Uiso   1.00
O850   O     0.55946   0.23721   0.74518   0.00000  Uiso   1.00
O851   O     0.44054   0.09613   0.75481   0.00000  Uiso   1.00
O852   O     0.45181   0.17117   0.81997   0.00000  Uiso   1.00
O853   O     0.54819   0.16216   0.68002   0.00000  Uiso   1.00
O854   O     0.54819   0.16219   0.81217   0.00000  Uiso   1.00
O855   O     0.45181   0.17115   0.68782   0.00000  Uiso   1.00
O856   O     0.61357   0.33093   0.96187   0.00000  Uiso   1.00
Zn857  Zn    0.43565   0.17266   0.75521   0.00000  Uiso   1.00
Zn858  Zn    0.56435   0.16067   0.74479   0.00000  Uiso   1.00
C859   C     0.84862   0.26488   0.75411   0.00000  Uiso   1.00
C860   C     0.86242   0.21022   0.90568   0.00000  Uiso   1.00
C861   C     0.83500   0.16628   0.61581   0.00000  Uiso   1.00
C862   C     0.83206   0.16861   0.88438   0.00000  Uiso   1.00
C863   C     0.86860   0.20490   0.59193   0.00000  Uiso   1.00
C864   C     0.79776   0.13098   0.90875   0.00000  Uiso   1.00
C865   C     0.86128   0.20965   0.54657   0.00000  Uiso   1.00
C866   C     0.80652   0.12539   0.95362   0.00000  Uiso   1.00
C867   C     0.83353   0.16715   0.52351   0.00000  Uiso   1.00
C868   C     0.83497   0.16742   0.97657   0.00000  Uiso   1.00
C869   C     0.80324   0.12512   0.54736   0.00000  Uiso   1.00
C870   C     0.81860   0.06902   0.75662   0.00000  Uiso   1.00
C871   C     0.86529   0.20929   0.95260   0.00000  Uiso   1.00
C872   C     0.88295   0.25472   0.52325   0.00000  Uiso   1.00
C873   C     0.78499   0.08014   0.97658   0.00000  Uiso   1.00
C874   C     0.78823   0.07473   0.62027   0.00000  Uiso   1.00
C875   C     0.88027   0.25955   0.87967   0.00000  Uiso   1.00
C876   C     0.91832   0.23413   0.61331   0.00000  Uiso   1.00
C877   C     0.74557   0.10445   0.88900   0.00000  Uiso   1.00
C878   C     0.88714   0.30894   0.54635   0.00000  Uiso   1.00
C879   C     0.77925   0.02648   0.95261   0.00000  Uiso   1.00
C880   C     0.94282   0.28325   0.95541   0.00000  Uiso   1.00
C881   C     0.89416   0.25037   0.97673   0.00000  Uiso   1.00
C882   C     0.72581   0.05099   0.54446   0.00000  Uiso   1.00
C883   C     0.91743   0.00720   0.77311   0.00000  Uiso   1.00
C884   C     0.75668   0.33243   0.79636   0.00000  Uiso   1.00
C885   C     0.67345   0.13024   0.69580   0.00000  Uiso   1.00
C886   C     0.99286   0.20014   0.80509   0.00000  Uiso   1.00
C887   C     0.77439   0.08400   0.52315   0.00000  Uiso   1.00
C888   C     0.85787   0.31953   0.76677   0.00000  Uiso   1.00
C889   C     0.81222   0.01635   0.77222   0.00000  Uiso   1.00
C890   C     0.83298   0.16618   0.83634   0.00000  Uiso   1.00
C891   C     0.83383   0.16796   0.66377   0.00000  Uiso   1.00
C892   C     0.80580   0.12419   0.59425   0.00000  Uiso   1.00
H893   H     0.81008   0.07251   0.65118   0.00000  Uiso   1.00
H894   H     0.71540   0.08391   0.91382   0.00000  Uiso   1.00
H895   H     0.71937   0.13456   0.87696   0.00000  Uiso   1.00
H896   H     0.75885   0.07676   0.86102   0.00000  Uiso   1.00
H897   H     0.86574   0.30913   0.58085   0.00000  Uiso   1.00
H898   H     0.93230   0.32368   0.54734   0.00000  Uiso   1.00
H899   H     0.86488   0.00376   0.52805   0.00000  Uiso   1.00
H900   H     0.73378   0.01256   0.95213   0.00000  Uiso   1.00
H901   H     0.79972   0.02676   0.91779   0.00000  Uiso   1.00
H902   H     0.80148   0.33075   0.96995   0.00000  Uiso   1.00
H903   H     0.97512   0.26454   0.93302   0.00000  Uiso   1.00
H904   H     0.74174   0.07241   0.62998   0.00000  Uiso   1.00
H905   H     0.69374   0.06954   0.56719   0.00000  Uiso   1.00
H906   H     0.92449   0.03928   0.79743   0.00000  Uiso   1.00
H907   H     0.71759   0.01546   0.78876   0.00000  Uiso   1.00
H908   H     0.97288   0.10494   0.68100   0.00000  Uiso   1.00
H909   H     0.68686   0.16174   0.67203   0.00000  Uiso   1.00
H910   H     0.70771   0.10426   0.70080   0.00000  Uiso   1.00
H911   H     0.69330   0.22288   0.82185   0.00000  Uiso   1.00
H912   H     0.95941   0.22745   0.80110   0.00000  Uiso   1.00
H913   H     0.97860   0.16687   0.82685   0.00000  Uiso   1.00
H914   H     0.80056   0.03913   0.60010   0.00000  Uiso   1.00
H915   H     0.85912   0.26131   0.84848   0.00000  Uiso   1.00
H916   H     0.86723   0.29518   0.89957   0.00000  Uiso   1.00
H917   H     0.92687   0.26217   0.87048   0.00000  Uiso   1.00
H918   H     0.94890   0.25519   0.58915   0.00000  Uiso   1.00
H919   H     0.90242   0.26183   0.64067   0.00000  Uiso   1.00
H920   H     0.94543   0.20570   0.62664   0.00000  Uiso   1.00
N921   N     0.98344   0.15265   0.73783   0.00000  Uiso   1.00
N922   N     0.68322   0.18068   0.76217   0.00000  Uiso   1.00
O923   O     0.79642   0.24619   0.75298   0.00000  Uiso   1.00
O924   O     0.72152   0.00337   0.53759   0.00000  Uiso   1.00
O925   O     0.95861   0.32295   0.75093   0.00000  Uiso   1.00
O926   O     0.75510   0.30298   0.82747   0.00000  Uiso   1.00
O927   O     0.87025   0.08714   0.74701   0.00000  Uiso   1.00
O928   O     0.89280   0.23721   0.74518   0.00000  Uiso   1.00
O929   O     0.77387   0.09613   0.75481   0.00000  Uiso   1.00
O930   O     0.78514   0.17117   0.81997   0.00000  Uiso   1.00
O931   O     0.88153   0.16216   0.68002   0.00000  Uiso   1.00
O932   O     0.88152   0.16219   0.81217   0.00000  Uiso   1.00
O933   O     0.78515   0.17115   0.68782   0.00000  Uiso   1.00
O934   O     0.94690   0.33093   0.96187   0.00000  Uiso   1.00
Zn935  Zn    0.76898   0.17266   0.75521   0.00000  Uiso   1.00
Zn936  Zn    0.89769   0.16067   0.74479   0.00000  Uiso   1.00
C937   C     0.18195   0.59821   0.75411   0.00000  Uiso   1.00
C938   C     0.19575   0.54355   0.90568   0.00000  Uiso   1.00
C939   C     0.16833   0.49961   0.61581   0.00000  Uiso   1.00
C940   C     0.16540   0.50195   0.88438   0.00000  Uiso   1.00
C941   C     0.20194   0.53824   0.59193   0.00000  Uiso   1.00
C942   C     0.13110   0.46432   0.90875   0.00000  Uiso   1.00
C943   C     0.19461   0.54298   0.54657   0.00000  Uiso   1.00
C944   C     0.13986   0.45873   0.95362   0.00000  Uiso   1.00
C945   C     0.16686   0.50048   0.52351   0.00000  Uiso   1.00
C946   C     0.16830   0.50076   0.97657   0.00000  Uiso   1.00
C947   C     0.13657   0.45845   0.54736   0.00000  Uiso   1.00
C948   C     0.15194   0.40236   0.75662   0.00000  Uiso   1.00
C949   C     0.19863   0.54262   0.95260   0.00000  Uiso   1.00
C950   C     0.21628   0.58805   0.52325   0.00000  Uiso   1.00
C951   C     0.11832   0.41347   0.97658   0.00000  Uiso   1.00
C952   C     0.12156   0.40806   0.62027   0.00000  Uiso   1.00
C953   C     0.21361   0.59288   0.87967   0.00000  Uiso   1.00
C954   C     0.25166   0.56747   0.61331   0.00000  Uiso   1.00
C955   C     0.07890   0.43778   0.88900   0.00000  Uiso   1.00
C956   C     0.22047   0.64227   0.54635   0.00000  Uiso   1.00
C957   C     0.11258   0.35981   0.95261   0.00000  Uiso   1.00
C958   C     0.27615   0.61658   0.95541   0.00000  Uiso   1.00
C959   C     0.22749   0.58370   0.97673   0.00000  Uiso   1.00
C960   C     0.05914   0.38433   0.54446   0.00000  Uiso   1.00
C961   C     0.25076   0.34054   0.77311   0.00000  Uiso   1.00
C962   C     0.09001   0.66576   0.79636   0.00000  Uiso   1.00
C963   C     0.00679   0.46357   0.69580   0.00000  Uiso   1.00
C964   C     0.32620   0.53347   0.80509   0.00000  Uiso   1.00
C965   C     0.10772   0.41733   0.52315   0.00000  Uiso   1.00
C966   C     0.19120   0.65287   0.76677   0.00000  Uiso   1.00
C967   C     0.14556   0.34969   0.77222   0.00000  Uiso   1.00
C968   C     0.16631   0.49951   0.83634   0.00000  Uiso   1.00
C969   C     0.16716   0.50129   0.66377   0.00000  Uiso   1.00
C970   C     0.13914   0.45752   0.59425   0.00000  Uiso   1.00
H971   H     0.14341   0.40584   0.65118   0.00000  Uiso   1.00
H972   H     0.04874   0.41724   0.91382   0.00000  Uiso   1.00
H973   H     0.05270   0.46789   0.87696   0.00000  Uiso   1.00
H974   H     0.09219   0.41009   0.86102   0.00000  Uiso   1.00
H975   H     0.19907   0.64247   0.58085   0.00000  Uiso   1.00
H976   H     0.26564   0.65701   0.54734   0.00000  Uiso   1.00
H977   H     0.19822   0.33709   0.52805   0.00000  Uiso   1.00
H978   H     0.06711   0.34590   0.95213   0.00000  Uiso   1.00
H979   H     0.13305   0.36009   0.91779   0.00000  Uiso   1.00
H980   H     0.13482   0.66409   0.96995   0.00000  Uiso   1.00
H981   H     0.30845   0.59787   0.93302   0.00000  Uiso   1.00
H982   H     0.07507   0.40574   0.62998   0.00000  Uiso   1.00
H983   H     0.02707   0.40287   0.56719   0.00000  Uiso   1.00
H984   H     0.25782   0.37261   0.79743   0.00000  Uiso   1.00
H985   H     0.05093   0.34880   0.78876   0.00000  Uiso   1.00
H986   H     0.30621   0.43827   0.68100   0.00000  Uiso   1.00
H987   H     0.02020   0.49508   0.67203   0.00000  Uiso   1.00
H988   H     0.04104   0.43760   0.70080   0.00000  Uiso   1.00
H989   H     0.02663   0.55621   0.82185   0.00000  Uiso   1.00
H990   H     0.29274   0.56079   0.80110   0.00000  Uiso   1.00
H991   H     0.31193   0.50020   0.82685   0.00000  Uiso   1.00
H992   H     0.13389   0.37246   0.60010   0.00000  Uiso   1.00
H993   H     0.19245   0.59464   0.84848   0.00000  Uiso   1.00
H994   H     0.20057   0.62852   0.89957   0.00000  Uiso   1.00
H995   H     0.26020   0.59550   0.87048   0.00000  Uiso   1.00
H996   H     0.28223   0.58852   0.58915   0.00000  Uiso   1.00
H997   H     0.23575   0.59516   0.64067   0.00000  Uiso   1.00
H998   H     0.27877   0.53903   0.62664   0.00000  Uiso   1.00
N999   N     0.31678   0.48598   0.73783   0.00000  Uiso   1.00
N1000  N     0.01656   0.51402   0.76217   0.00000  Uiso   1.00
O1001  O     0.12975   0.57952   0.75298   0.00000  Uiso   1.00
O1002  O     0.05486   0.33671   0.53759   0.00000  Uiso   1.00
O1003  O     0.29194   0.65629   0.75093   0.00000  Uiso   1.00
O1004  O     0.08843   0.63631   0.82747   0.00000  Uiso   1.00
O1005  O     0.20358   0.42048   0.74701   0.00000  Uiso   1.00
O1006  O     0.22613   0.57054   0.74518   0.00000  Uiso   1.00
O1007  O     0.10720   0.42946   0.75481   0.00000  Uiso   1.00
O1008  O     0.11847   0.50450   0.81997   0.00000  Uiso   1.00
O1009  O     0.21486   0.49550   0.68002   0.00000  Uiso   1.00
O1010  O     0.21485   0.49552   0.81217   0.00000  Uiso   1.00
O1011  O     0.11848   0.50448   0.68782   0.00000  Uiso   1.00
O1012  O     0.28023   0.66426   0.96187   0.00000  Uiso   1.00
Zn1013 Zn    0.10231   0.50600   0.75521   0.00000  Uiso   1.00
Zn1014 Zn    0.23102   0.49400   0.74479   0.00000  Uiso   1.00
C1015  C     0.51528   0.59821   0.75411   0.00000  Uiso   1.00
C1016  C     0.52909   0.54355   0.90568   0.00000  Uiso   1.00
C1017  C     0.50166   0.49961   0.61581   0.00000  Uiso   1.00
C1018  C     0.49873   0.50195   0.88438   0.00000  Uiso   1.00
C1019  C     0.53527   0.53824   0.59193   0.00000  Uiso   1.00
C1020  C     0.46443   0.46432   0.90875   0.00000  Uiso   1.00
C1021  C     0.52794   0.54298   0.54657   0.00000  Uiso   1.00
C1022  C     0.47319   0.45873   0.95362   0.00000  Uiso   1.00
C1023  C     0.50020   0.50048   0.52351   0.00000  Uiso   1.00
C1024  C     0.50164   0.50076   0.97657   0.00000  Uiso   1.00
C1025  C     0.46990   0.45845   0.54736   0.00000  Uiso   1.00
C1026  C     0.48527   0.40236   0.75662   0.00000  Uiso   1.00
C1027  C     0.53196   0.54262   0.95260   0.00000  Uiso   1.00
C1028  C     0.54962   0.58805   0.52325   0.00000  Uiso   1.00
C1029  C     0.45165   0.41347   0.97658   0.00000  Uiso   1.00
C1030  C     0.45490   0.40806   0.62027   0.00000  Uiso   1.00
C1031  C     0.54694   0.59288   0.87967   0.00000  Uiso   1.00
C1032  C     0.58499   0.56747   0.61331   0.00000  Uiso   1.00
C1033  C     0.41223   0.43778   0.88900   0.00000  Uiso   1.00
C1034  C     0.55381   0.64227   0.54635   0.00000  Uiso   1.00
C1035  C     0.44591   0.35981   0.95261   0.00000  Uiso   1.00
C1036  C     0.60949   0.61658   0.95541   0.00000  Uiso   1.00
C1037  C     0.56082   0.58370   0.97673   0.00000  Uiso   1.00
C1038  C     0.39247   0.38433   0.54446   0.00000  Uiso   1.00
C1039  C     0.58410   0.34054   0.77311   0.00000  Uiso   1.00
C1040  C     0.42335   0.66576   0.79636   0.00000  Uiso   1.00
C1041  C     0.34012   0.46357   0.69580   0.00000  Uiso   1.00
C1042  C     0.65953   0.53347   0.80509   0.00000  Uiso   1.00
C1043  C     0.44106   0.41733   0.52315   0.00000  Uiso   1.00
C1044  C     0.52453   0.65287   0.76677   0.00000  Uiso   1.00
C1045  C     0.47889   0.34969   0.77222   0.00000  Uiso   1.00
C1046  C     0.49965   0.49951   0.83634   0.00000  Uiso   1.00
C1047  C     0.50050   0.50129   0.66377   0.00000  Uiso   1.00
C1048  C     0.47247   0.45752   0.59425   0.00000  Uiso   1.00
H1049  H     0.47674   0.40584   0.65118   0.00000  Uiso   1.00
H1050  H     0.38207   0.41724   0.91382   0.00000  Uiso   1.00
H1051  H     0.38603   0.46789   0.87696   0.00000  Uiso   1.00
H1052  H     0.42552   0.41009   0.86102   0.00000  Uiso   1.00
H1053  H     0.53241   0.64247   0.58085   0.00000  Uiso   1.00
H1054  H     0.59897   0.65701   0.54734   0.00000  Uiso   1.00
H1055  H     0.53155   0.33709   0.52805   0.00000  Uiso   1.00
H1056  H     0.40044   0.34590   0.95213   0.00000  Uiso   1.00
H1057  H     0.46639   0.36009   0.91779   0.00000  Uiso   1.00
H1058  H     0.46815   0.66409   0.96995   0.00000  Uiso   1.00
H1059  H     0.64179   0.59787   0.93302   0.00000  Uiso   1.00
H1060  H     0.40841   0.40574   0.62998   0.00000  Uiso   1.00
H1061  H     0.36041   0.40287   0.56719   0.00000  Uiso   1.00
H1062  H     0.59115   0.37261   0.79743   0.00000  Uiso   1.00
H1063  H     0.38426   0.34880   0.78876   0.00000  Uiso   1.00
H1064  H     0.63954   0.43827   0.68100   0.00000  Uiso   1.00
H1065  H     0.35353   0.49508   0.67203   0.00000  Uiso   1.00
H1066  H     0.37438   0.43760   0.70080   0.00000  Uiso   1.00
H1067  H     0.35997   0.55621   0.82185   0.00000  Uiso   1.00
H1068  H     0.62607   0.56079   0.80110   0.00000  Uiso   1.00
H1069  H     0.64526   0.50020   0.82685   0.00000  Uiso   1.00
H1070  H     0.46722   0.37246   0.60010   0.00000  Uiso   1.00
H1071  H     0.52578   0.59464   0.84848   0.00000  Uiso   1.00
H1072  H     0.53390   0.62852   0.89957   0.00000  Uiso   1.00
H1073  H     0.59354   0.59550   0.87048   0.00000  Uiso   1.00
H1074  H     0.61556   0.58852   0.58915   0.00000  Uiso   1.00
H1075  H     0.56909   0.59516   0.64067   0.00000  Uiso   1.00
H1076  H     0.61210   0.53903   0.62664   0.00000  Uiso   1.00
N1077  N     0.65011   0.48598   0.73783   0.00000  Uiso   1.00
N1078  N     0.34989   0.51402   0.76217   0.00000  Uiso   1.00
O1079  O     0.46308   0.57952   0.75298   0.00000  Uiso   1.00
O1080  O     0.38819   0.33671   0.53759   0.00000  Uiso   1.00
O1081  O     0.62527   0.65629   0.75093   0.00000  Uiso   1.00
O1082  O     0.42177   0.63631   0.82747   0.00000  Uiso   1.00
O1083  O     0.53692   0.42048   0.74701   0.00000  Uiso   1.00
O1084  O     0.55946   0.57054   0.74518   0.00000  Uiso   1.00
O1085  O     0.44054   0.42946   0.75481   0.00000  Uiso   1.00
O1086  O     0.45181   0.50450   0.81997   0.00000  Uiso   1.00
O1087  O     0.54819   0.49550   0.68002   0.00000  Uiso   1.00
O1088  O     0.54819   0.49552   0.81217   0.00000  Uiso   1.00
O1089  O     0.45181   0.50448   0.68782   0.00000  Uiso   1.00
O1090  O     0.61357   0.66426   0.96187   0.00000  Uiso   1.00
Zn1091 Zn    0.43565   0.50600   0.75521   0.00000  Uiso   1.00
Zn1092 Zn    0.56435   0.49400   0.74479   0.00000  Uiso   1.00
C1093  C     0.84862   0.59821   0.75411   0.00000  Uiso   1.00
C1094  C     0.86242   0.54355   0.90568   0.00000  Uiso   1.00
C1095  C     0.83500   0.49961   0.61581   0.00000  Uiso   1.00
C1096  C     0.83206   0.50195   0.88438   0.00000  Uiso   1.00
C1097  C     0.86860   0.53824   0.59193   0.00000  Uiso   1.00
C1098  C     0.79776   0.46432   0.90875   0.00000  Uiso   1.00
C1099  C     0.86128   0.54298   0.54657   0.00000  Uiso   1.00
C1100  C     0.80652   0.45873   0.95362   0.00000  Uiso   1.00
C1101  C     0.83353   0.50048   0.52351   0.00000  Uiso   1.00
C1102  C     0.83497   0.50076   0.97657   0.00000  Uiso   1.00
C1103  C     0.80324   0.45845   0.54736   0.00000  Uiso   1.00
C1104  C     0.81860   0.40236   0.75662   0.00000  Uiso   1.00
C1105  C     0.86529   0.54262   0.95260   0.00000  Uiso   1.00
C1106  C     0.88295   0.58805   0.52325   0.00000  Uiso   1.00
C1107  C     0.78499   0.41347   0.97658   0.00000  Uiso   1.00
C1108  C     0.78823   0.40806   0.62027   0.00000  Uiso   1.00
C1109  C     0.88027   0.59288   0.87967   0.00000  Uiso   1.00
C1110  C     0.91832   0.56747   0.61331   0.00000  Uiso   1.00
C1111  C     0.74557   0.43778   0.88900   0.00000  Uiso   1.00
C1112  C     0.88714   0.64227   0.54635   0.00000  Uiso   1.00
C1113  C     0.77925   0.35981   0.95261   0.00000  Uiso   1.00
C1114  C     0.94282   0.61658   0.95541   0.00000  Uiso   1.00
C1115  C     0.89416   0.58370   0.97673   0.00000  Uiso   1.00
C1116  C     0.72581   0.38433   0.54446   0.00000  Uiso   1.00
C1117  C     0.91743   0.34054   0.77311   0.00000  Uiso   1.00
C1118  C     0.75668   0.66576   0.79636   0.00000  Uiso   1.00
C1119  C     0.67345   0.46357   0.69580   0.00000  Uiso   1.00
C1120  C     0.99286   0.53347   0.80509   0.00000  Uiso   1.00
C1121  C     0.77439   0.41733   0.52315   0.00000  Uiso   1.00
C1122  C     0.85787   0.65287   0.76677   0.00000  Uiso   1.00
C1123  C     0.81222   0.34969   0.77222   0.00000  Uiso   1.00
C1124  C     0.83298   0.49951   0.83634   0.00000  Uiso   1.00
C1125  C     0.83383   0.50129   0.66377   0.00000  Uiso   1.00
C1126  C     0.80580   0.45752   0.59425   0.00000  Uiso   1.00
H1127  H     0.81008   0.40584   0.65118   0.00000  Uiso   1.00
H1128  H     0.71540   0.41724   0.91382   0.00000  Uiso   1.00
H1129  H     0.71937   0.46789   0.87696   0.00000  Uiso   1.00
H1130  H     0.75885   0.41009   0.86102   0.00000  Uiso   1.00
H1131  H     0.86574   0.64247   0.58085   0.00000  Uiso   1.00
H1132  H     0.93230   0.65701   0.54734   0.00000  Uiso   1.00
H1133  H     0.86488   0.33709   0.52805   0.00000  Uiso   1.00
H1134  H     0.73378   0.34590   0.95213   0.00000  Uiso   1.00
H1135  H     0.79972   0.36009   0.91779   0.00000  Uiso   1.00
H1136  H     0.80148   0.66409   0.96995   0.00000  Uiso   1.00
H1137  H     0.97512   0.59787   0.93302   0.00000  Uiso   1.00
H1138  H     0.74174   0.40574   0.62998   0.00000  Uiso   1.00
H1139  H     0.69374   0.40287   0.56719   0.00000  Uiso   1.00
H1140  H     0.92449   0.37261   0.79743   0.00000  Uiso   1.00
H1141  H     0.71759   0.34880   0.78876   0.00000  Uiso   1.00
H1142  H     0.97288   0.43827   0.68100   0.00000  Uiso   1.00
H1143  H     0.68686   0.49508   0.67203   0.00000  Uiso   1.00
H1144  H     0.70771   0.43760   0.70080   0.00000  Uiso   1.00
H1145  H     0.69330   0.55621   0.82185   0.00000  Uiso   1.00
H1146  H     0.95941   0.56079   0.80110   0.00000  Uiso   1.00
H1147  H     0.97860   0.50020   0.82685   0.00000  Uiso   1.00
H1148  H     0.80056   0.37246   0.60010   0.00000  Uiso   1.00
H1149  H     0.85912   0.59464   0.84848   0.00000  Uiso   1.00
H1150  H     0.86723   0.62852   0.89957   0.00000  Uiso   1.00
H1151  H     0.92687   0.59550   0.87048   0.00000  Uiso   1.00
H1152  H     0.94890   0.58852   0.58915   0.00000  Uiso   1.00
H1153  H     0.90242   0.59516   0.64067   0.00000  Uiso   1.00
H1154  H     0.94543   0.53903   0.62664   0.00000  Uiso   1.00
N1155  N     0.98344   0.48598   0.73783   0.00000  Uiso   1.00
N1156  N     0.68322   0.51402   0.76217   0.00000  Uiso   1.00
O1157  O     0.79642   0.57952   0.75298   0.00000  Uiso   1.00
O1158  O     0.72152   0.33671   0.53759   0.00000  Uiso   1.00
O1159  O     0.95861   0.65629   0.75093   0.00000  Uiso   1.00
O1160  O     0.75510   0.63631   0.82747   0.00000  Uiso   1.00
O1161  O     0.87025   0.42048   0.74701   0.00000  Uiso   1.00
O1162  O     0.89280   0.57054   0.74518   0.00000  Uiso   1.00
O1163  O     0.77387   0.42946   0.75481   0.00000  Uiso   1.00
O1164  O     0.78514   0.50450   0.81997   0.00000  Uiso   1.00
O1165  O     0.88153   0.49550   0.68002   0.00000  Uiso   1.00
O1166  O     0.88152   0.49552   0.81217   0.00000  Uiso   1.00
O1167  O     0.78515   0.50448   0.68782   0.00000  Uiso   1.00
O1168  O     0.94690   0.66426   0.96187   0.00000  Uiso   1.00
Zn1169 Zn    0.76898   0.50600   0.75521   0.00000  Uiso   1.00
Zn1170 Zn    0.89769   0.49400   0.74479   0.00000  Uiso   1.00
C1171  C     0.18195   0.93154   0.75411   0.00000  Uiso   1.00
C1172  C     0.19575   0.87688   0.90568   0.00000  Uiso   1.00
C1173  C     0.16833   0.83295   0.61581   0.00000  Uiso   1.00
C1174  C     0.16540   0.83528   0.88438   0.00000  Uiso   1.00
C1175  C     0.20194   0.87157   0.59193   0.00000  Uiso   1.00
C1176  C     0.13110   0.79765   0.90875   0.00000  Uiso   1.00
C1177  C     0.19461   0.87631   0.54657   0.00000  Uiso   1.00
C1178  C     0.13986   0.79206   0.95362   0.00000  Uiso   1.00
C1179  C     0.16686   0.83381   0.52351   0.00000  Uiso   1.00
C1180  C     0.16830   0.83409   0.97657   0.00000  Uiso   1.00
C1181  C     0.13657   0.79178   0.54736   0.00000  Uiso   1.00
C1182  C     0.15194   0.73569   0.75662   0.00000  Uiso   1.00
C1183  C     0.19863   0.87595   0.95260   0.00000  Uiso   1.00
C1184  C     0.21628   0.92139   0.52325   0.00000  Uiso   1.00
C1185  C     0.11832   0.74680   0.97658   0.00000  Uiso   1.00
C1186  C     0.12156   0.74140   0.62027   0.00000  Uiso   1.00
C1187  C     0.21361   0.92622   0.87967   0.00000  Uiso   1.00
C1188  C     0.25166   0.90080   0.61331   0.00000  Uiso   1.00
C1189  C     0.07890   0.77111   0.88900   0.00000  Uiso   1.00
C1190  C     0.22047   0.97560   0.54635   0.00000  Uiso   1.00
C1191  C     0.11258   0.69315   0.95261   0.00000  Uiso   1.00
C1192  C     0.27615   0.94991   0.95541   0.00000  Uiso   1.00
C1193  C     0.22749   0.91704   0.97673   0.00000  Uiso   1.00
C1194  C     0.05914   0.71766   0.54446   0.00000  Uiso   1.00
C1195  C     0.25076   0.67387   0.77311   0.00000  Uiso   1.00
C1196  C     0.09001   0.99910   0.79636   0.00000  Uiso   1.00
C1197  C     0.00679   0.79690   0.69580   0.00000  Uiso   1.00
C1198  C     0.32620   0.86681   0.80509   0.00000  Uiso   1.00
C1199  C     0.10772   0.75066   0.52315   0.00000  Uiso   1.00
C1200  C     0.19120   0.98620   0.76677   0.00000  Uiso   1.00
C1201  C     0.14556   0.68302   0.77222   0.00000  Uiso   1.00
C1202  C     0.16631   0.83285   0.83634   0.00000  Uiso   1.00
C1203  C     0.16716   0.83462   0.66377   0.00000  Uiso   1.00
C1204  C     0.13914   0.79086   0.59425   0.00000  Uiso   1.00
H1205  H     0.14341   0.73918   0.65118   0.00000  Uiso   1.00
H1206  H     0.04874   0.75058   0.91382   0.00000  Uiso   1.00
H1207  H     0.05270   0.80122   0.87696   0.00000  Uiso   1.00
H1208  H     0.09219   0.74342   0.86102   0.00000  Uiso   1.00
H1209  H     0.19907   0.97580   0.58085   0.00000  Uiso   1.00
H1210  H     0.26564   0.99034   0.54734   0.00000  Uiso   1.00
H1211  H     0.19822   0.67042   0.52805   0.00000  Uiso   1.00
H1212  H     0.06711   0.67923   0.95213   0.00000  Uiso   1.00
H1213  H     0.13305   0.69343   0.91779   0.00000  Uiso   1.00
H1214  H     0.13482   0.99742   0.96995   0.00000  Uiso   1.00
H1215  H     0.30845   0.93121   0.93302   0.00000  Uiso   1.00
H1216  H     0.07507   0.73907   0.62998   0.00000  Uiso   1.00
H1217  H     0.02707   0.73621   0.56719   0.00000  Uiso   1.00
H1218  H     0.25782   0.70595   0.79743   0.00000  Uiso   1.00
H1219  H     0.05093   0.68213   0.78876   0.00000  Uiso   1.00
H1220  H     0.30621   0.77161   0.68100   0.00000  Uiso   1.00
H1221  H     0.02020   0.82841   0.67203   0.00000  Uiso   1.00
H1222  H     0.04104   0.77093   0.70080   0.00000  Uiso   1.00
H1223  H     0.02663   0.88954   0.82185   0.00000  Uiso   1.00
H1224  H     0.29274   0.89412   0.80110   0.00000  Uiso   1.00
H1225  H     0.31193   0.83354   0.82685   0.00000  Uiso   1.00
H1226  H     0.13389   0.70580   0.60010   0.00000  Uiso   1.00
H1227  H     0.19245   0.92798   0.84848   0.00000  Uiso   1.00
H1228  H     0.20057   0.96185   0.89957   0.00000  Uiso   1.00
H1229  H     0.26020   0.92883   0.87048   0.00000  Uiso   1.00
H1230  H     0.28223   0.92185   0.58915   0.00000  Uiso   1.00
H1231  H     0.23575   0.92850   0.64067   0.00000  Uiso   1.00
H1232  H     0.27877   0.87237   0.62664   0.00000  Uiso   1.00
N1233  N     0.31678   0.81932   0.73783   0.00000  Uiso   1.00
N1234  N     0.01656   0.84735   0.76217   0.00000  Uiso   1.00
O1235  O     0.12975   0.91286   0.75298   0.00000  Uiso   1.00
O1236  O     0.05486   0.67004   0.53759   0.00000  Uiso   1.00
O1237  O     0.29194   0.98962   0.75093   0.00000  Uiso   1.00
O1238  O     0.08843   0.96964   0.82747   0.00000  Uiso   1.00
O1239  O     0.20358   0.75381   0.74701   0.00000  Uiso   1.00
O1240  O     0.22613   0.90387   0.74518   0.00000  Uiso   1.00
O1241  O     0.10720   0.76279   0.75481   0.00000  Uiso   1.00
O1242  O     0.11847   0.83784   0.81997   0.00000  Uiso   1.00
O1243  O     0.21486   0.82883   0.68002   0.00000  Uiso   1.00
O1244  O     0.21485   0.82885   0.81217   0.00000  Uiso   1.00
O1245  O     0.11848   0.83781   0.68782   0.00000  Uiso   1.00
O1246  O     0.28023   0.99760   0.96187   0.00000  Uiso   1.00
Zn1247 Zn    0.10231   0.83933   0.75521   0.00000  Uiso   1.00
Zn1248 Zn    0.23102   0.82734   0.74479   0.00000  Uiso   1.00
C1249  C     0.51528   0.93154   0.75411   0.00000  Uiso   1.00
C1250  C     0.52909   0.87688   0.90568   0.00000  Uiso   1.00
C1251  C     0.50166   0.83295   0.61581   0.00000  Uiso   1.00
C1252  C     0.49873   0.83528   0.88438   0.00000  Uiso   1.00
C1253  C     0.53527   0.87157   0.59193   0.00000  Uiso   1.00
C1254  C     0.46443   0.79765   0.90875   0.00000  Uiso   1.00
C1255  C     0.52794   0.87631   0.54657   0.00000  Uiso   1.00
C1256  C     0.47319   0.79206   0.95362   0.00000  Uiso   1.00
C1257  C     0.50020   0.83381   0.52351   0.00000  Uiso   1.00
C1258  C     0.50164   0.83409   0.97657   0.00000  Uiso   1.00
C1259  C     0.46990   0.79178   0.54736   0.00000  Uiso   1.00
C1260  C     0.48527   0.73569   0.75662   0.00000  Uiso   1.00
C1261  C     0.53196   0.87595   0.95260   0.00000  Uiso   1.00
C1262  C     0.54962   0.92139   0.52325   0.00000  Uiso   1.00
C1263  C     0.45165   0.74680   0.97658   0.00000  Uiso   1.00
C1264  C     0.45490   0.74140   0.62027   0.00000  Uiso   1.00
C1265  C     0.54694   0.92622   0.87967   0.00000  Uiso   1.00
C1266  C     0.58499   0.90080   0.61331   0.00000  Uiso   1.00
C1267  C     0.41223   0.77111   0.88900   0.00000  Uiso   1.00
C1268  C     0.55381   0.97560   0.54635   0.00000  Uiso   1.00
C1269  C     0.44591   0.69315   0.95261   0.00000  Uiso   1.00
C1270  C     0.60949   0.94991   0.95541   0.00000  Uiso   1.00
C1271  C     0.56082   0.91704   0.97673   0.00000  Uiso   1.00
C1272  C     0.39247   0.71766   0.54446   0.00000  Uiso   1.00
C1273  C     0.58410   0.67387   0.77311   0.00000  Uiso   1.00
C1274  C     0.42335   0.99910   0.79636   0.00000  Uiso   1.00
C1275  C     0.34012   0.79690   0.69580   0.00000  Uiso   1.00
C1276  C     0.65953   0.86681   0.80509   0.00000  Uiso   1.00
C1277  C     0.44106   0.75066   0.52315   0.00000  Uiso   1.00
C1278  C     0.52453   0.98620   0.76677   0.00000  Uiso   1.00
C1279  C     0.47889   0.68302   0.77222   0.00000  Uiso   1.00
C1280  C     0.49965   0.83285   0.83634   0.00000  Uiso   1.00
C1281  C     0.50050   0.83462   0.66377   0.00000  Uiso   1.00
C1282  C     0.47247   0.79086   0.59425   0.00000  Uiso   1.00
H1283  H     0.47674   0.73918   0.65118   0.00000  Uiso   1.00
H1284  H     0.38207   0.75058   0.91382   0.00000  Uiso   1.00
H1285  H     0.38603   0.80122   0.87696   0.00000  Uiso   1.00
H1286  H     0.42552   0.74342   0.86102   0.00000  Uiso   1.00
H1287  H     0.53241   0.97580   0.58085   0.00000  Uiso   1.00
H1288  H     0.59897   0.99034   0.54734   0.00000  Uiso   1.00
H1289  H     0.53155   0.67042   0.52805   0.00000  Uiso   1.00
H1290  H     0.40044   0.67923   0.95213   0.00000  Uiso   1.00
H1291  H     0.46639   0.69343   0.91779   0.00000  Uiso   1.00
H1292  H     0.46815   0.99742   0.96995   0.00000  Uiso   1.00
H1293  H     0.64179   0.93121   0.93302   0.00000  Uiso   1.00
H1294  H     0.40841   0.73907   0.62998   0.00000  Uiso   1.00
H1295  H     0.36041   0.73621   0.56719   0.00000  Uiso   1.00
H1296  H     0.59115   0.70595   0.79743   0.00000  Uiso   1.00
H1297  H     0.38426   0.68213   0.78876   0.00000  Uiso   1.00
H1298  H     0.63954   0.77161   0.68100   0.00000  Uiso   1.00
H1299  H     0.35353   0.82841   0.67203   0.00000  Uiso   1.00
H1300  H     0.37438   0.77093   0.70080   0.00000  Uiso   1.00
H1301  H     0.35997   0.88954   0.82185   0.00000  Uiso   1.00
H1302  H     0.62607   0.89412   0.80110   0.00000  Uiso   1.00
H1303  H     0.64526   0.83354   0.82685   0.00000  Uiso   1.00
H1304  H     0.46722   0.70580   0.60010   0.00000  Uiso   1.00
H1305  H     0.52578   0.92798   0.84848   0.00000  Uiso   1.00
H1306  H     0.53390   0.96185   0.89957   0.00000  Uiso   1.00
H1307  H     0.59354   0.92883   0.87048   0.00000  Uiso   1.00
H1308  H     0.61556   0.92185   0.58915   0.00000  Uiso   1.00
H1309  H     0.56909   0.92850   0.64067   0.00000  Uiso   1.00
H1310  H     0.61210   0.87237   0.62664   0.00000  Uiso   1.00
N1311  N     0.65011   0.81932   0.73783   0.00000  Uiso   1.00
N1312  N     0.34989   0.84735   0.76217   0.00000  Uiso   1.00
O1313  O     0.46308   0.91286   0.75298   0.00000  Uiso   1.00
O1314  O     0.38819   0.67004   0.53759   0.00000  Uiso   1.00
O1315  O     0.62527   0.98962   0.75093   0.00000  Uiso   1.00
O1316  O     0.42177   0.96964   0.82747   0.00000  Uiso   1.00
O1317  O     0.53692   0.75381   0.74701   0.00000  Uiso   1.00
O1318  O     0.55946   0.90387   0.74518   0.00000  Uiso   1.00
O1319  O     0.44054   0.76279   0.75481   0.00000  Uiso   1.00
O1320  O     0.45181   0.83784   0.81997   0.00000  Uiso   1.00
O1321  O     0.54819   0.82883   0.68002   0.00000  Uiso   1.00
O1322  O     0.54819   0.82885   0.81217   0.00000  Uiso   1.00
O1323  O     0.45181   0.83781   0.68782   0.00000  Uiso   1.00
O1324  O     0.61357   0.99760   0.96187   0.00000  Uiso   1.00
Zn1325 Zn    0.43565   0.83933   0.75521   0.00000  Uiso   1.00
Zn1326 Zn    0.56435   0.82734   0.74479   0.00000  Uiso   1.00
C1327  C     0.84862   0.93154   0.75411   0.00000  Uiso   1.00
C1328  C     0.86242   0.87688   0.90568   0.00000  Uiso   1.00
C1329  C     0.83500   0.83295   0.61581   0.00000  Uiso   1.00
C1330  C     0.83206   0.83528   0.88438   0.00000  Uiso   1.00
C1331  C     0.86860   0.87157   0.59193   0.00000  Uiso   1.00
C1332  C     0.79776   0.79765   0.90875   0.00000  Uiso   1.00
C1333  C     0.86128   0.87631   0.54657   0.00000  Uiso   1.00
C1334  C     0.80652   0.79206   0.95362   0.00000  Uiso   1.00
C1335  C     0.83353   0.83381   0.52351   0.00000  Uiso   1.00
C1336  C     0.83497   0.83409   0.97657   0.00000  Uiso   1.00
C1337  C     0.80324   0.79178   0.54736   0.00000  Uiso   1.00
C1338  C     0.81860   0.73569   0.75662   0.00000  Uiso   1.00
C1339  C     0.86529   0.87595   0.95260   0.00000  Uiso   1.00
C1340  C     0.88295   0.92139   0.52325   0.00000  Uiso   1.00
C1341  C     0.78499   0.74680   0.97658   0.00000  Uiso   1.00
C1342  C     0.78823   0.74140   0.62027   0.00000  Uiso   1.00
C1343  C     0.88027   0.92622   0.87967   0.00000  Uiso   1.00
C1344  C     0.91832   0.90080   0.61331   0.00000  Uiso   1.00
C1345  C     0.74557   0.77111   0.88900   0.00000  Uiso   1.00
C1346  C     0.88714   0.97560   0.54635   0.00000  Uiso   1.00
C1347  C     0.77925   0.69315   0.95261   0.00000  Uiso   1.00
C1348  C     0.94282   0.94991   0.95541   0.00000  Uiso   1.00
C1349  C     0.89416   0.91704   0.97673   0.00000  Uiso   1.00
C1350  C     0.72581   0.71766   0.54446   0.00000  Uiso   1.00
C1351  C     0.91743   0.67387   0.77311   0.00000  Uiso   1.00
C1352  C     0.75668   0.99910   0.79636   0.00000  Uiso   1.00
C1353  C     0.67345   0.79690   0.69580   0.00000  Uiso   1.00
C1354  C     0.99286   0.86681   0.80509   0.00000  Uiso   1.00
C1355  C     0.77439   0.75066   0.52315   0.00000  Uiso   1.00
C1356  C     0.85787   0.98620   0.76677   0.00000  Uiso   1.00
C1357  C     0.81222   0.68302   0.77222   0.00000  Uiso   1.00
C1358  C     0.83298   0.83285   0.83634   0.00000  Uiso   1.00
C1359  C     0.83383   0.83462   0.66377   0.00000  Uiso   1.00
C1360  C     0.80580   0.79086   0.59425   0.00000  Uiso   1.00
H1361  H     0.81008   0.73918   0.65118   0.00000  Uiso   1.00
H1362  H     0.71540   0.75058   0.91382   0.00000  Uiso   1.00
H1363  H     0.71937   0.80122   0.87696   0.00000  Uiso   1.00
H1364  H     0.75885   0.74342   0.86102   0.00000  Uiso   1.00
H1365  H     0.86574   0.97580   0.58085   0.00000  Uiso   1.00
H1366  H     0.93230   0.99034   0.54734   0.00000  Uiso   1.00
H1367  H     0.86488   0.67042   0.52805   0.00000  Uiso   1.00
H1368  H     0.73378   0.67923   0.95213   0.00000  Uiso   1.00
H1369  H     0.79972   0.69343   0.91779   0.00000  Uiso   1.00
H1370  H     0.80148   0.99742   0.96995   0.00000  Uiso   1.00
H1371  H     0.97512   0.93121   0.93302   0.00000  Uiso   1.00
H1372  H     0.74174   0.73907   0.62998   0.00000  Uiso   1.00
H1373  H     0.69374   0.73621   0.56719   0.00000  Uiso   1.00
H1374  H     0.92449   0.70595   0.79743   0.00000  Uiso   1.00
H1375  H     0.71759   0.68213   0.78876   0.00000  Uiso   1.00
H1376  H     0.97288   0.77161   0.68100   0.00000  Uiso   1.00
H1377  H     0.68686   0.82841   0.67203   0.00000  Uiso   1.00
H1378  H     0.70771   0.77093   0.70080   0.00000  Uiso   1.00
H1379  H     0.69330   0.88954   0.82185   0.00000  Uiso   1.00
H1380  H     0.95941   0.89412   0.80110   0.00000  Uiso   1.00
H1381  H     0.97860   0.83354   0.82685   0.00000  Uiso   1.00
H1382  H     0.80056   0.70580   0.60010   0.00000  Uiso   1.00
H1383  H     0.85912   0.92798   0.84848   0.00000  Uiso   1.00
H1384  H     0.86723   0.96185   0.89957   0.00000  Uiso   1.00
H1385  H     0.92687   0.92883   0.87048   0.00000  Uiso   1.00
H1386  H     0.94890   0.92185   0.58915   0.00000  Uiso   1.00
H1387  H     0.90242   0.92850   0.64067   0.00000  Uiso   1.00
H1388  H     0.94543   0.87237   0.62664   0.00000  Uiso   1.00
N1389  N     0.98344   0.81932   0.73783   0.00000  Uiso   1.00
N1390  N     0.68322   0.84735   0.76217   0.00000  Uiso   1.00
O1391  O     0.79642   0.91286   0.75298   0.00000  Uiso   1.00
O1392  O     0.72152   0.67004   0.53759   0.00000  Uiso   1.00
O1393  O     0.95861   0.98962   0.75093   0.00000  Uiso   1.00
O1394  O     0.75510   0.96964   0.82747   0.00000  Uiso   1.00
O1395  O     0.87025   0.75381   0.74701   0.00000  Uiso   1.00
O1396  O     0.89280   0.90387   0.74518   0.00000  Uiso   1.00
O1397  O     0.77387   0.76279   0.75481   0.00000  Uiso   1.00
O1398  O     0.78514   0.83784   0.81997   0.00000  Uiso   1.00
O1399  O     0.88153   0.82883   0.68002   0.00000  Uiso   1.00
O1400  O     0.88152   0.82885   0.81217   0.00000  Uiso   1.00
O1401  O     0.78515   0.83781   0.68782   0.00000  Uiso   1.00
O1402  O     0.94690   0.99760   0.96187   0.00000  Uiso   1.00
Zn1403 Zn    0.76898   0.83933   0.75521   0.00000  Uiso   1.00
Zn1404 Zn    0.89769   0.82734   0.74479   0.00000  Uiso   1.00
loop_
_geom_bond_atom_site_label_1
_geom_bond_atom_site_label_2
_geom_bond_distance
_geom_bond_site_symmetry_2
_ccdc_geom_bond_type
C1     O65     1.295   .     A
C1     O70     1.295   .     A
C1     C30     1.436   .     S
C2     C13     1.417   .     A
C2     C17     1.525   .     S
C2     C4      1.405   .     A
C3     C33     1.435   .     S
C3     C34     1.404   .     A
C3     C5      1.403   .     A
C4     C6      1.401   .     A
C4     C32     1.438   .     S
C5     C7      1.400   .     A
C5     C18     1.527   .     S
C6     C19     1.524   .     S
C6     C8      1.396   .     A
C7     C14     1.414   .     A
C7     C9      1.417   .     A
C8     C15     1.412   .     A
C8     C10     1.415   .     A
C9     C11     1.430   .     A
C9     C712    1.406   1_554 S
C10    C13     1.429   .     A
C10    C711    1.406   .     S
C11    C34     1.415   .     A
C11    C29     1.422   .     A
C12    O69     1.286   .     A
C12    O71     1.303   .     A
C12    C31     1.436   .     S
C13    C23     1.421   .     A
C14    C20     1.519   .     S
C14    C725    1.396   1_554 S
C15    C21     1.520   .     S
C15    C731    1.396   .     S
C16    H35     1.109   .     S
C16    C34     1.527   .     S
C16    H46     1.106   .     S
C16    H56     1.106   .     S
C17    H58     1.107   .     S
C17    H59     1.106   .     S
C17    H57     1.106   .     S
C18    H62     1.108   .     S
C18    H60     1.104   .     S
C18    H61     1.111   .     S
C19    H36     1.105   .     S
C19    H37     1.108   .     S
C19    H38     1.106   .     S
C20    H40     1.109   .     S
C20    H39     1.107   .     S
C20    H275    1.109   .     S
C21    H43     1.108   .     S
C21    H42     1.109   .     S
C21    H512    1.109   1_545 S
C22    O76     1.221   .     D
C22    H45     1.085   .     S
C22    C23     1.488   .     S
C23    C716    1.396   .     S
C24    C29     1.489   .     S
C24    O66     1.221   .     D
C24    H47     1.085   .     S
C25    H48     1.086   .     S
C25    C498    1.498   1_545 S
C25    O535    1.221   1_545 S
C26    O68     1.220   .     D
C26    C265    1.486   .     S
C26    H283    1.083   .     S
C27    H51     1.109   .     S
C27    H52     1.101   .     S
C27    H206    1.109   1_455 S
C27    N219    1.435   1_455 S
C28    H55     1.109   .     S
C28    H54     1.103   .     S
C28    H131    1.102   .     S
C28    N142    1.433   .     S
C29    C717    1.396   1_554 S
C30    C259    1.498   .     S
C30    C265    1.354   .     S
C31    C498    1.354   1_545 S
C31    C494    1.486   1_545 S
C32    O72     1.288   .     A
C32    O74     1.302   .     A
C33    O75     1.301   .     A
C33    O73     1.287   .     A
H41    C488    1.109   1_545 S
H44    C255    1.109   .     S
H49    C494    1.083   1_545 S
H50    C105    1.109   .     S
H53    C184    1.102   1_455 S
N63    Zn78    2.035   .     S
N63    C105    1.435   .     S
N63    N142    1.282   .     S
N64    Zn77    2.035   .     S
N64    N219    1.282   1_455 S
N64    C184    1.433   1_455 S
O65    Zn77    1.945   .     S
O67    C259    1.221   .     S
O69    Zn78    1.945   .     S
O70    Zn78    1.960   .     S
O71    Zn77    1.960   .     S
O72    Zn77    2.018   .     S
O73    Zn78    2.018   .     S
O74    Zn78    2.020   .     S
O75    Zn77    2.020   .     S
C79    O143    1.295   .     A
C79    O148    1.295   .     A
C79    C108    1.436   .     S
C80    C91     1.417   .     A
C80    C95     1.525   .     S
C80    C82     1.405   .     A
C81    C111    1.435   .     S
C81    C112    1.404   .     A
C81    C83     1.403   .     A
C82    C84     1.401   .     A
C82    C110    1.438   .     S
C83    C85     1.400   .     A
C83    C96     1.527   .     S
C84    C97     1.524   .     S
C84    C86     1.396   .     A
C85    C92     1.414   .     A
C85    C87     1.417   .     A
C86    C93     1.412   .     A
C86    C88     1.415   .     A
C87    C89     1.430   .     A
C87    C790    1.406   1_554 S
C88    C91     1.429   .     A
C88    C789    1.406   .     S
C89    C112    1.415   .     A
C89    C107    1.422   .     A
C90    O147    1.286   .     A
C90    O149    1.303   .     A
C90    C109    1.436   .     S
C91    C101    1.421   .     A
C92    C98     1.519   .     S
C92    C803    1.396   1_554 S
C93    C99     1.520   .     S
C93    C809    1.396   .     S
C94    H113    1.109   .     S
C94    C112    1.527   .     S
C94    H124    1.106   .     S
C94    H134    1.106   .     S
C95    H136    1.107   .     S
C95    H137    1.106   .     S
C95    H135    1.106   .     S
C96    H140    1.108   .     S
C96    H138    1.104   .     S
C96    H139    1.111   .     S
C97    H114    1.105   .     S
C97    H115    1.108   .     S
C97    H116    1.106   .     S
C98    H118    1.109   .     S
C98    H117    1.107   .     S
C98    H353    1.109   .     S
C99    H121    1.108   .     S
C99    H120    1.109   .     S
C99    H590    1.109   1_545 S
C100   O154    1.221   .     D
C100   H123    1.085   .     S
C100   C101    1.488   .     S
C101   C794    1.396   .     S
C102   C107    1.489   .     S
C102   O144    1.221   .     D
C102   H125    1.085   .     S
C103   H126    1.086   .     S
C103   C576    1.498   1_545 S
C103   O613    1.221   1_545 S
C104   O146    1.220   .     D
C104   C343    1.486   .     S
C104   H361    1.083   .     S
C105   H129    1.109   .     S
C105   H130    1.101   .     S
C106   H133    1.109   .     S
C106   H132    1.103   .     S
C106   H209    1.102   .     S
C106   N220    1.433   .     S
C107   C795    1.396   1_554 S
C108   C337    1.498   .     S
C108   C343    1.354   .     S
C109   C576    1.354   1_545 S
C109   C572    1.486   1_545 S
C110   O150    1.288   .     A
C110   O152    1.302   .     A
C111   O153    1.301   .     A
C111   O151    1.287   .     A
H119   C566    1.109   1_545 S
H122   C333    1.109   .     S
H127   C572    1.083   1_545 S
H128   C183    1.109   .     S
N141   Zn156   2.035   .     S
N141   C183    1.435   .     S
N141   N220    1.282   .     S
N142   Zn155   2.035   .     S
O143   Zn155   1.945   .     S
O145   C337    1.221   .     S
O147   Zn156   1.945   .     S
O148   Zn156   1.960   .     S
O149   Zn155   1.960   .     S
O150   Zn155   2.018   .     S
O151   Zn156   2.018   .     S
O152   Zn156   2.020   .     S
O153   Zn155   2.020   .     S
C157   O221    1.295   .     A
C157   O226    1.295   .     A
C157   C186    1.436   .     S
C158   C169    1.417   .     A
C158   C173    1.525   .     S
C158   C160    1.405   .     A
C159   C189    1.435   .     S
C159   C190    1.404   .     A
C159   C161    1.403   .     A
C160   C162    1.401   .     A
C160   C188    1.438   .     S
C161   C163    1.400   .     A
C161   C174    1.527   .     S
C162   C175    1.524   .     S
C162   C164    1.396   .     A
C163   C170    1.414   .     A
C163   C165    1.417   .     A
C164   C171    1.412   .     A
C164   C166    1.415   .     A
C165   C167    1.430   .     A
C165   C868    1.406   1_554 S
C166   C169    1.429   .     A
C166   C867    1.406   .     S
C167   C190    1.415   .     A
C167   C185    1.422   .     A
C168   O225    1.286   .     A
C168   O227    1.303   .     A
C168   C187    1.436   .     S
C169   C179    1.421   .     A
C170   C176    1.519   .     S
C170   C881    1.396   1_554 S
C171   C177    1.520   .     S
C171   C887    1.396   .     S
C172   H191    1.109   .     S
C172   C190    1.527   .     S
C172   H202    1.106   .     S
C172   H212    1.106   .     S
C173   H214    1.107   .     S
C173   H215    1.106   .     S
C173   H213    1.106   .     S
C174   H218    1.108   .     S
C174   H216    1.104   .     S
C174   H217    1.111   .     S
C175   H192    1.105   .     S
C175   H193    1.108   .     S
C175   H194    1.106   .     S
C176   H196    1.109   .     S
C176   H195    1.107   .     S
C176   H431    1.109   .     S
C177   H199    1.108   .     S
C177   H198    1.109   .     S
C177   H668    1.109   1_545 S
C178   O232    1.221   .     D
C178   H201    1.085   .     S
C178   C179    1.488   .     S
C179   C872    1.396   .     S
C180   C185    1.489   .     S
C180   O222    1.221   .     D
C180   H203    1.085   .     S
C181   H204    1.086   .     S
C181   C654    1.498   1_545 S
C181   O691    1.221   1_545 S
C182   O224    1.220   .     D
C182   C421    1.486   .     S
C182   H439    1.083   .     S
C183   H207    1.109   .     S
C183   H208    1.101   .     S
C184   H211    1.109   .     S
C184   H210    1.103   .     S
C184   H53     1.102   1_655 S
C184   N64     1.433   1_655 S
C185   C873    1.396   1_554 S
C186   C415    1.498   .     S
C186   C421    1.354   .     S
C187   C654    1.354   1_545 S
C187   C650    1.486   1_545 S
C188   O228    1.288   .     A
C188   O230    1.302   .     A
C189   O231    1.301   .     A
C189   O229    1.287   .     A
H197   C644    1.109   1_545 S
H200   C411    1.109   .     S
H205   C650    1.083   1_545 S
H206   C27     1.109   1_655 S
N219   Zn234   2.035   .     S
N219   C27     1.435   1_655 S
N219   N64     1.282   1_655 S
N220   Zn233   2.035   .     S
O221   Zn233   1.945   .     S
O223   C415    1.221   .     S
O225   Zn234   1.945   .     S
O226   Zn234   1.960   .     S
O227   Zn233   1.960   .     S
O228   Zn233   2.018   .     S
O229   Zn234   2.018   .     S
O230   Zn234   2.020   .     S
O231   Zn233   2.020   .     S
C235   O299    1.295   .     A
C235   O304    1.295   .     A
C235   C264    1.436   .     S
C236   C247    1.417   .     A
C236   C251    1.525   .     S
C236   C238    1.405   .     A
C237   C267    1.435   .     S
C237   C268    1.404   .     A
C237   C239    1.403   .     A
C238   C240    1.401   .     A
C238   C266    1.438   .     S
C239   C241    1.400   .     A
C239   C252    1.527   .     S
C240   C253    1.524   .     S
C240   C242    1.396   .     A
C241   C248    1.414   .     A
C241   C243    1.417   .     A
C242   C249    1.412   .     A
C242   C244    1.415   .     A
C243   C245    1.430   .     A
C243   C946    1.406   1_554 S
C244   C247    1.429   .     A
C244   C945    1.406   .     S
C245   C268    1.415   .     A
C245   C263    1.422   .     A
C246   O303    1.286   .     A
C246   O305    1.303   .     A
C246   C265    1.436   .     S
C247   C257    1.421   .     A
C248   C254    1.519   .     S
C248   C959    1.396   1_554 S
C249   C255    1.520   .     S
C249   C965    1.396   .     S
C250   H269    1.109   .     S
C250   C268    1.527   .     S
C250   H280    1.106   .     S
C250   H290    1.106   .     S
C251   H292    1.107   .     S
C251   H293    1.106   .     S
C251   H291    1.106   .     S
C252   H296    1.108   .     S
C252   H294    1.104   .     S
C252   H295    1.111   .     S
C253   H270    1.105   .     S
C253   H271    1.108   .     S
C253   H272    1.106   .     S
C254   H274    1.109   .     S
C254   H273    1.107   .     S
C254   H509    1.109   .     S
C255   H277    1.108   .     S
C255   H276    1.109   .     S
C256   O310    1.221   .     D
C256   H279    1.085   .     S
C256   C257    1.488   .     S
C257   C950    1.396   .     S
C258   C263    1.489   .     S
C258   O300    1.221   .     D
C258   H281    1.085   .     S
C259   H282    1.086   .     S
C260   O302    1.220   .     D
C260   C499    1.486   .     S
C260   H517    1.083   .     S
C261   H285    1.109   .     S
C261   H286    1.101   .     S
C261   H440    1.109   1_455 S
C261   N453    1.435   1_455 S
C262   H289    1.109   .     S
C262   H288    1.103   .     S
C262   H365    1.102   .     S
C262   N376    1.433   .     S
C263   C951    1.396   1_554 S
C264   C493    1.498   .     S
C264   C499    1.354   .     S
C266   O306    1.288   .     A
C266   O308    1.302   .     A
C267   O309    1.301   .     A
C267   O307    1.287   .     A
H278   C489    1.109   .     S
H284   C339    1.109   .     S
H287   C418    1.102   1_455 S
N297   Zn312   2.035   .     S
N297   C339    1.435   .     S
N297   N376    1.282   .     S
N298   Zn311   2.035   .     S
N298   N453    1.282   1_455 S
N298   C418    1.433   1_455 S
O299   Zn311   1.945   .     S
O301   C493    1.221   .     S
O303   Zn312   1.945   .     S
O304   Zn312   1.960   .     S
O305   Zn311   1.960   .     S
O306   Zn311   2.018   .     S
O307   Zn312   2.018   .     S
O308   Zn312   2.020   .     S
O309   Zn311   2.020   .     S
C313   O377    1.295   .     A
C313   O382    1.295   .     A
C313   C342    1.436   .     S
C314   C325    1.417   .     A
C314   C329    1.525   .     S
C314   C316    1.405   .     A
C315   C345    1.435   .     S
C315   C346    1.404   .     A
C315   C317    1.403   .     A
C316   C318    1.401   .     A
C316   C344    1.438   .     S
C317   C319    1.400   .     A
C317   C330    1.527   .     S
C318   C331    1.524   .     S
C318   C320    1.396   .     A
C319   C326    1.414   .     A
C319   C321    1.417   .     A
C320   C327    1.412   .     A
C320   C322    1.415   .     A
C321   C323    1.430   .     A
C321   C1024   1.406   1_554 S
C322   C325    1.429   .     A
C322   C1023   1.406   .     S
C323   C346    1.415   .     A
C323   C341    1.422   .     A
C324   O381    1.286   .     A
C324   O383    1.303   .     A
C324   C343    1.436   .     S
C325   C335    1.421   .     A
C326   C332    1.519   .     S
C326   C1037   1.396   1_554 S
C327   C333    1.520   .     S
C327   C1043   1.396   .     S
C328   H347    1.109   .     S
C328   C346    1.527   .     S
C328   H358    1.106   .     S
C328   H368    1.106   .     S
C329   H370    1.107   .     S
C329   H371    1.106   .     S
C329   H369    1.106   .     S
C330   H374    1.108   .     S
C330   H372    1.104   .     S
C330   H373    1.111   .     S
C331   H348    1.105   .     S
C331   H349    1.108   .     S
C331   H350    1.106   .     S
C332   H352    1.109   .     S
C332   H351    1.107   .     S
C332   H587    1.109   .     S
C333   H355    1.108   .     S
C333   H354    1.109   .     S
C334   O388    1.221   .     D
C334   H357    1.085   .     S
C334   C335    1.488   .     S
C335   C1028   1.396   .     S
C336   C341    1.489   .     S
C336   O378    1.221   .     D
C336   H359    1.085   .     S
C337   H360    1.086   .     S
C338   O380    1.220   .     D
C338   C577    1.486   .     S
C338   H595    1.083   .     S
C339   H363    1.109   .     S
C339   H364    1.101   .     S
C340   H367    1.109   .     S
C340   H366    1.103   .     S
C340   H443    1.102   .     S
C340   N454    1.433   .     S
C341   C1029   1.396   1_554 S
C342   C571    1.498   .     S
C342   C577    1.354   .     S
C344   O384    1.288   .     A
C344   O386    1.302   .     A
C345   O387    1.301   .     A
C345   O385    1.287   .     A
H356   C567    1.109   .     S
H362   C417    1.109   .     S
N375   Zn390   2.035   .     S
N375   C417    1.435   .     S
N375   N454    1.282   .     S
N376   Zn389   2.035   .     S
O377   Zn389   1.945   .     S
O379   C571    1.221   .     S
O381   Zn390   1.945   .     S
O382   Zn390   1.960   .     S
O383   Zn389   1.960   .     S
O384   Zn389   2.018   .     S
O385   Zn390   2.018   .     S
O386   Zn390   2.020   .     S
O387   Zn389   2.020   .     S
C391   O455    1.295   .     A
C391   O460    1.295   .     A
C391   C420    1.436   .     S
C392   C403    1.417   .     A
C392   C407    1.525   .     S
C392   C394    1.405   .     A
C393   C423    1.435   .     S
C393   C424    1.404   .     A
C393   C395    1.403   .     A
C394   C396    1.401   .     A
C394   C422    1.438   .     S
C395   C397    1.400   .     A
C395   C408    1.527   .     S
C396   C409    1.524   .     S
C396   C398    1.396   .     A
C397   C404    1.414   .     A
C397   C399    1.417   .     A
C398   C405    1.412   .     A
C398   C400    1.415   .     A
C399   C401    1.430   .     A
C399   C1102   1.406   1_554 S
C400   C403    1.429   .     A
C400   C1101   1.406   .     S
C401   C424    1.415   .     A
C401   C419    1.422   .     A
C402   O459    1.286   .     A
C402   O461    1.303   .     A
C402   C421    1.436   .     S
C403   C413    1.421   .     A
C404   C410    1.519   .     S
C404   C1115   1.396   1_554 S
C405   C411    1.520   .     S
C405   C1121   1.396   .     S
C406   H425    1.109   .     S
C406   C424    1.527   .     S
C406   H436    1.106   .     S
C406   H446    1.106   .     S
C407   H448    1.107   .     S
C407   H449    1.106   .     S
C407   H447    1.106   .     S
C408   H452    1.108   .     S
C408   H450    1.104   .     S
C408   H451    1.111   .     S
C409   H426    1.105   .     S
C409   H427    1.108   .     S
C409   H428    1.106   .     S
C410   H430    1.109   .     S
C410   H429    1.107   .     S
C410   H665    1.109   .     S
C411   H433    1.108   .     S
C411   H432    1.109   .     S
C412   O466    1.221   .     D
C412   H435    1.085   .     S
C412   C413    1.488   .     S
C413   C1106   1.396   .     S
C414   C419    1.489   .     S
C414   O456    1.221   .     D
C414   H437    1.085   .     S
C415   H438    1.086   .     S
C416   O458    1.220   .     D
C416   C655    1.486   .     S
C416   H673    1.083   .     S
C417   H441    1.109   .     S
C417   H442    1.101   .     S
C418   H445    1.109   .     S
C418   H444    1.103   .     S
C418   H287    1.102   1_655 S
C418   N298    1.433   1_655 S
C419   C1107   1.396   1_554 S
C420   C649    1.498   .     S
C420   C655    1.354   .     S
C422   O462    1.288   .     A
C422   O464    1.302   .     A
C423   O465    1.301   .     A
C423   O463    1.287   .     A
H434   C645    1.109   .     S
H440   C261    1.109   1_655 S
N453   Zn468   2.035   .     S
N453   C261    1.435   1_655 S
N453   N298    1.282   1_655 S
N454   Zn467   2.035   .     S
O455   Zn467   1.945   .     S
O457   C649    1.221   .     S
O459   Zn468   1.945   .     S
O460   Zn468   1.960   .     S
O461   Zn467   1.960   .     S
O462   Zn467   2.018   .     S
O463   Zn468   2.018   .     S
O464   Zn468   2.020   .     S
O465   Zn467   2.020   .     S
C469   O533    1.295   .     A
C469   O538    1.295   .     A
C469   C498    1.436   .     S
C470   C481    1.417   .     A
C470   C485    1.525   .     S
C470   C472    1.405   .     A
C471   C501    1.435   .     S
C471   C502    1.404   .     A
C471   C473    1.403   .     A
C472   C474    1.401   .     A
C472   C500    1.438   .     S
C473   C475    1.400   .     A
C473   C486    1.527   .     S
C474   C487    1.524   .     S
C474   C476    1.396   .     A
C475   C482    1.414   .     A
C475   C477    1.417   .     A
C476   C483    1.412   .     A
C476   C478    1.415   .     A
C477   C479    1.430   .     A
C477   C1180   1.406   1_554 S
C478   C481    1.429   .     A
C478   C1179   1.406   .     S
C479   C502    1.415   .     A
C479   C497    1.422   .     A
C480   O537    1.286   .     A
C480   O539    1.303   .     A
C480   C499    1.436   .     S
C481   C491    1.421   .     A
C482   C488    1.519   .     S
C482   C1193   1.396   1_554 S
C483   C489    1.520   .     S
C483   C1199   1.396   .     S
C484   H503    1.109   .     S
C484   C502    1.527   .     S
C484   H514    1.106   .     S
C484   H524    1.106   .     S
C485   H526    1.107   .     S
C485   H527    1.106   .     S
C485   H525    1.106   .     S
C486   H530    1.108   .     S
C486   H528    1.104   .     S
C486   H529    1.111   .     S
C487   H504    1.105   .     S
C487   H505    1.108   .     S
C487   H506    1.106   .     S
C488   H508    1.109   .     S
C488   H507    1.107   .     S
C488   H41     1.109   1_565 S
C489   H511    1.108   .     S
C489   H510    1.109   .     S
C490   O544    1.221   .     D
C490   H513    1.085   .     S
C490   C491    1.488   .     S
C491   C1184   1.396   .     S
C492   C497    1.489   .     S
C492   O534    1.221   .     D
C492   H515    1.085   .     S
C493   H516    1.086   .     S
C494   O536    1.220   .     D
C494   C31     1.486   1_565 S
C494   H49     1.083   1_565 S
C495   H519    1.109   .     S
C495   H520    1.101   .     S
C495   H674    1.109   1_455 S
C495   N687    1.435   1_455 S
C496   H523    1.109   .     S
C496   H522    1.103   .     S
C496   H599    1.102   .     S
C496   N610    1.433   .     S
C497   C1185   1.396   1_554 S
C498   C25     1.498   1_565 S
C498   C31     1.354   1_565 S
C500   O540    1.288   .     A
C500   O542    1.302   .     A
C501   O543    1.301   .     A
C501   O541    1.287   .     A
H512   C21     1.109   1_565 S
H518   C573    1.109   .     S
H521   C652    1.102   1_455 S
N531   Zn546   2.035   .     S
N531   C573    1.435   .     S
N531   N610    1.282   .     S
N532   Zn545   2.035   .     S
N532   N687    1.282   1_455 S
N532   C652    1.433   1_455 S
O533   Zn545   1.945   .     S
O535   C25     1.221   1_565 S
O537   Zn546   1.945   .     S
O538   Zn546   1.960   .     S
O539   Zn545   1.960   .     S
O540   Zn545   2.018   .     S
O541   Zn546   2.018   .     S
O542   Zn546   2.020   .     S
O543   Zn545   2.020   .     S
C547   O611    1.295   .     A
C547   O616    1.295   .     A
C547   C576    1.436   .     S
C548   C559    1.417   .     A
C548   C563    1.525   .     S
C548   C550    1.405   .     A
C549   C579    1.435   .     S
C549   C580    1.404   .     A
C549   C551    1.403   .     A
C550   C552    1.401   .     A
C550   C578    1.438   .     S
C551   C553    1.400   .     A
C551   C564    1.527   .     S
C552   C565    1.524   .     S
C552   C554    1.396   .     A
C553   C560    1.414   .     A
C553   C555    1.417   .     A
C554   C561    1.412   .     A
C554   C556    1.415   .     A
C555   C557    1.430   .     A
C555   C1258   1.406   1_554 S
C556   C559    1.429   .     A
C556   C1257   1.406   .     S
C557   C580    1.415   .     A
C557   C575    1.422   .     A
C558   O615    1.286   .     A
C558   O617    1.303   .     A
C558   C577    1.436   .     S
C559   C569    1.421   .     A
C560   C566    1.519   .     S
C560   C1271   1.396   1_554 S
C561   C567    1.520   .     S
C561   C1277   1.396   .     S
C562   H581    1.109   .     S
C562   C580    1.527   .     S
C562   H592    1.106   .     S
C562   H602    1.106   .     S
C563   H604    1.107   .     S
C563   H605    1.106   .     S
C563   H603    1.106   .     S
C564   H608    1.108   .     S
C564   H606    1.104   .     S
C564   H607    1.111   .     S
C565   H582    1.105   .     S
C565   H583    1.108   .     S
C565   H584    1.106   .     S
C566   H586    1.109   .     S
C566   H585    1.107   .     S
C566   H119    1.109   1_565 S
C567   H589    1.108   .     S
C567   H588    1.109   .     S
C568   O622    1.221   .     D
C568   H591    1.085   .     S
C568   C569    1.488   .     S
C569   C1262   1.396   .     S
C570   C575    1.489   .     S
C570   O612    1.221   .     D
C570   H593    1.085   .     S
C571   H594    1.086   .     S
C572   O614    1.220   .     D
C572   C109    1.486   1_565 S
C572   H127    1.083   1_565 S
C573   H597    1.109   .     S
C573   H598    1.101   .     S
C574   H601    1.109   .     S
C574   H600    1.103   .     S
C574   H677    1.102   .     S
C574   N688    1.433   .     S
C575   C1263   1.396   1_554 S
C576   C103    1.498   1_565 S
C576   C109    1.354   1_565 S
C578   O618    1.288   .     A
C578   O620    1.302   .     A
C579   O621    1.301   .     A
C579   O619    1.287   .     A
H590   C99     1.109   1_565 S
H596   C651    1.109   .     S
N609   Zn624   2.035   .     S
N609   C651    1.435   .     S
N609   N688    1.282   .     S
N610   Zn623   2.035   .     S
O611   Zn623   1.945   .     S
O613   C103    1.221   1_565 S
O615   Zn624   1.945   .     S
O616   Zn624   1.960   .     S
O617   Zn623   1.960   .     S
O618   Zn623   2.018   .     S
O619   Zn624   2.018   .     S
O620   Zn624   2.020   .     S
O621   Zn623   2.020   .     S
C625   O689    1.295   .     A
C625   O694    1.295   .     A
C625   C654    1.436   .     S
C626   C637    1.417   .     A
C626   C641    1.525   .     S
C626   C628    1.405   .     A
C627   C657    1.435   .     S
C627   C658    1.404   .     A
C627   C629    1.403   .     A
C628   C630    1.401   .     A
C628   C656    1.438   .     S
C629   C631    1.400   .     A
C629   C642    1.527   .     S
C630   C643    1.524   .     S
C630   C632    1.396   .     A
C631   C638    1.414   .     A
C631   C633    1.417   .     A
C632   C639    1.412   .     A
C632   C634    1.415   .     A
C633   C635    1.430   .     A
C633   C1336   1.406   1_554 S
C634   C637    1.429   .     A
C634   C1335   1.406   .     S
C635   C658    1.415   .     A
C635   C653    1.422   .     A
C636   O693    1.286   .     A
C636   O695    1.303   .     A
C636   C655    1.436   .     S
C637   C647    1.421   .     A
C638   C644    1.519   .     S
C638   C1349   1.396   1_554 S
C639   C645    1.520   .     S
C639   C1355   1.396   .     S
C640   H659    1.109   .     S
C640   C658    1.527   .     S
C640   H670    1.106   .     S
C640   H680    1.106   .     S
C641   H682    1.107   .     S
C641   H683    1.106   .     S
C641   H681    1.106   .     S
C642   H686    1.108   .     S
C642   H684    1.104   .     S
C642   H685    1.111   .     S
C643   H660    1.105   .     S
C643   H661    1.108   .     S
C643   H662    1.106   .     S
C644   H664    1.109   .     S
C644   H663    1.107   .     S
C644   H197    1.109   1_565 S
C645   H667    1.108   .     S
C645   H666    1.109   .     S
C646   O700    1.221   .     D
C646   H669    1.085   .     S
C646   C647    1.488   .     S
C647   C1340   1.396   .     S
C648   C653    1.489   .     S
C648   O690    1.221   .     D
C648   H671    1.085   .     S
C649   H672    1.086   .     S
C650   O692    1.220   .     D
C650   C187    1.486   1_565 S
C650   H205    1.083   1_565 S
C651   H675    1.109   .     S
C651   H676    1.101   .     S
C652   H679    1.109   .     S
C652   H678    1.103   .     S
C652   H521    1.102   1_655 S
C652   N532    1.433   1_655 S
C653   C1341   1.396   1_554 S
C654   C181    1.498   1_565 S
C654   C187    1.354   1_565 S
C656   O696    1.288   .     A
C656   O698    1.302   .     A
C657   O699    1.301   .     A
C657   O697    1.287   .     A
H668   C177    1.109   1_565 S
H674   C495    1.109   1_655 S
N687   Zn702   2.035   .     S
N687   C495    1.435   1_655 S
N687   N532    1.282   1_655 S
N688   Zn701   2.035   .     S
O689   Zn701   1.945   .     S
O691   C181    1.221   1_565 S
O693   Zn702   1.945   .     S
O694   Zn702   1.960   .     S
O695   Zn701   1.960   .     S
O696   Zn701   2.018   .     S
O697   Zn702   2.018   .     S
O698   Zn702   2.020   .     S
O699   Zn701   2.020   .     S
C703   O767    1.295   .     A
C703   O772    1.295   .     A
C703   C732    1.436   .     S
C704   C715    1.417   .     A
C704   C719    1.525   .     S
C704   C706    1.405   .     A
C705   C735    1.435   .     S
C705   C736    1.404   .     A
C705   C707    1.403   .     A
C706   C708    1.401   .     A
C706   C734    1.438   .     S
C707   C709    1.400   .     A
C707   C720    1.527   .     S
C708   C721    1.524   .     S
C708   C710    1.396   .     A
C709   C716    1.414   .     A
C709   C711    1.417   .     A
C710   C717    1.412   .     A
C710   C712    1.415   .     A
C711   C713    1.430   .     A
C712   C715    1.429   .     A
C712   C9      1.406   1_556 S
C713   C736    1.415   .     A
C713   C731    1.422   .     A
C714   O771    1.286   .     A
C714   O773    1.303   .     A
C714   C733    1.436   .     S
C715   C725    1.421   .     A
C716   C722    1.519   .     S
C717   C723    1.520   .     S
C717   C29     1.396   1_556 S
C718   H737    1.109   .     S
C718   C736    1.527   .     S
C718   H748    1.106   .     S
C718   H758    1.106   .     S
C719   H760    1.107   .     S
C719   H761    1.106   .     S
C719   H759    1.106   .     S
C720   H764    1.108   .     S
C720   H762    1.104   .     S
C720   H763    1.111   .     S
C721   H738    1.105   .     S
C721   H739    1.108   .     S
C721   H740    1.106   .     S
C722   H742    1.109   .     S
C722   H741    1.107   .     S
C722   H977    1.109   .     S
C723   H745    1.108   .     S
C723   H744    1.109   .     S
C723   H1214   1.109   1_545 S
C724   O778    1.221   .     D
C724   H747    1.085   .     S
C724   C725    1.488   .     S
C725   C14     1.396   1_556 S
C726   C731    1.489   .     S
C726   O768    1.221   .     D
C726   H749    1.085   .     S
C727   H750    1.086   .     S
C727   C1200   1.498   1_545 S
C727   O1237   1.221   1_545 S
C728   O770    1.220   .     D
C728   C967    1.486   .     S
C728   H985    1.083   .     S
C729   H753    1.109   .     S
C729   H754    1.101   .     S
C729   H908    1.109   1_455 S
C729   N921    1.435   1_455 S
C730   H757    1.109   .     S
C730   H756    1.103   .     S
C730   H833    1.102   .     S
C730   N844    1.433   .     S
C732   C961    1.498   .     S
C732   C967    1.354   .     S
C733   C1200   1.354   1_545 S
C733   C1196   1.486   1_545 S
C734   O774    1.288   .     A
C734   O776    1.302   .     A
C735   O777    1.301   .     A
C735   O775    1.287   .     A
H743   C1190   1.109   1_545 S
H746   C957    1.109   .     S
H751   C1196   1.083   1_545 S
H752   C807    1.109   .     S
H755   C886    1.102   1_455 S
N765   Zn780   2.035   .     S
N765   C807    1.435   .     S
N765   N844    1.282   .     S
N766   Zn779   2.035   .     S
N766   N921    1.282   1_455 S
N766   C886    1.433   1_455 S
O767   Zn779   1.945   .     S
O769   C961    1.221   .     S
O771   Zn780   1.945   .     S
O772   Zn780   1.960   .     S
O773   Zn779   1.960   .     S
O774   Zn779   2.018   .     S
O775   Zn780   2.018   .     S
O776   Zn780   2.020   .     S
O777   Zn779   2.020   .     S
C781   O845    1.295   .     A
C781   O850    1.295   .     A
C781   C810    1.436   .     S
C782   C793    1.417   .     A
C782   C797    1.525   .     S
C782   C784    1.405   .     A
C783   C813    1.435   .     S
C783   C814    1.404   .     A
C783   C785    1.403   .     A
C784   C786    1.401   .     A
C784   C812    1.438   .     S
C785   C787    1.400   .     A
C785   C798    1.527   .     S
C786   C799    1.524   .     S
C786   C788    1.396   .     A
C787   C794    1.414   .     A
C787   C789    1.417   .     A
C788   C795    1.412   .     A
C788   C790    1.415   .     A
C789   C791    1.430   .     A
C790   C793    1.429   .     A
C790   C87     1.406   1_556 S
C791   C814    1.415   .     A
C791   C809    1.422   .     A
C792   O849    1.286   .     A
C792   O851    1.303   .     A
C792   C811    1.436   .     S
C793   C803    1.421   .     A
C794   C800    1.519   .     S
C795   C801    1.520   .     S
C795   C107    1.396   1_556 S
C796   H815    1.109   .     S
C796   C814    1.527   .     S
C796   H826    1.106   .     S
C796   H836    1.106   .     S
C797   H838    1.107   .     S
C797   H839    1.106   .     S
C797   H837    1.106   .     S
C798   H842    1.108   .     S
C798   H840    1.104   .     S
C798   H841    1.111   .     S
C799   H816    1.105   .     S
C799   H817    1.108   .     S
C799   H818    1.106   .     S
C800   H820    1.109   .     S
C800   H819    1.107   .     S
C800   H1055   1.109   .     S
C801   H823    1.108   .     S
C801   H822    1.109   .     S
C801   H1292   1.109   1_545 S
C802   O856    1.221   .     D
C802   H825    1.085   .     S
C802   C803    1.488   .     S
C803   C92     1.396   1_556 S
C804   C809    1.489   .     S
C804   O846    1.221   .     D
C804   H827    1.085   .     S
C805   H828    1.086   .     S
C805   C1278   1.498   1_545 S
C805   O1315   1.221   1_545 S
C806   O848    1.220   .     D
C806   C1045   1.486   .     S
C806   H1063   1.083   .     S
C807   H831    1.109   .     S
C807   H832    1.101   .     S
C808   H835    1.109   .     S
C808   H834    1.103   .     S
C808   H911    1.102   .     S
C808   N922    1.433   .     S
C810   C1039   1.498   .     S
C810   C1045   1.354   .     S
C811   C1278   1.354   1_545 S
C811   C1274   1.486   1_545 S
C812   O852    1.288   .     A
C812   O854    1.302   .     A
C813   O855    1.301   .     A
C813   O853    1.287   .     A
H821   C1268   1.109   1_545 S
H824   C1035   1.109   .     S
H829   C1274   1.083   1_545 S
H830   C885    1.109   .     S
N843   Zn858   2.035   .     S
N843   C885    1.435   .     S
N843   N922    1.282   .     S
N844   Zn857   2.035   .     S
O845   Zn857   1.945   .     S
O847   C1039   1.221   .     S
O849   Zn858   1.945   .     S
O850   Zn858   1.960   .     S
O851   Zn857   1.960   .     S
O852   Zn857   2.018   .     S
O853   Zn858   2.018   .     S
O854   Zn858   2.020   .     S
O855   Zn857   2.020   .     S
C859   O923    1.295   .     A
C859   O928    1.295   .     A
C859   C888    1.436   .     S
C860   C871    1.417   .     A
C860   C875    1.525   .     S
C860   C862    1.405   .     A
C861   C891    1.435   .     S
C861   C892    1.404   .     A
C861   C863    1.403   .     A
C862   C864    1.401   .     A
C862   C890    1.438   .     S
C863   C865    1.400   .     A
C863   C876    1.527   .     S
C864   C877    1.524   .     S
C864   C866    1.396   .     A
C865   C872    1.414   .     A
C865   C867    1.417   .     A
C866   C873    1.412   .     A
C866   C868    1.415   .     A
C867   C869    1.430   .     A
C868   C871    1.429   .     A
C868   C165    1.406   1_556 S
C869   C892    1.415   .     A
C869   C887    1.422   .     A
C870   O927    1.286   .     A
C870   O929    1.303   .     A
C870   C889    1.436   .     S
C871   C881    1.421   .     A
C872   C878    1.519   .     S
C873   C879    1.520   .     S
C873   C185    1.396   1_556 S
C874   H893    1.109   .     S
C874   C892    1.527   .     S
C874   H904    1.106   .     S
C874   H914    1.106   .     S
C875   H916    1.107   .     S
C875   H917    1.106   .     S
C875   H915    1.106   .     S
C876   H920    1.108   .     S
C876   H918    1.104   .     S
C876   H919    1.111   .     S
C877   H894    1.105   .     S
C877   H895    1.108   .     S
C877   H896    1.106   .     S
C878   H898    1.109   .     S
C878   H897    1.107   .     S
C878   H1133   1.109   .     S
C879   H901    1.108   .     S
C879   H900    1.109   .     S
C879   H1370   1.109   1_545 S
C880   O934    1.221   .     D
C880   H903    1.085   .     S
C880   C881    1.488   .     S
C881   C170    1.396   1_556 S
C882   C887    1.489   .     S
C882   O924    1.221   .     D
C882   H905    1.085   .     S
C883   H906    1.086   .     S
C883   C1356   1.498   1_545 S
C883   O1393   1.221   1_545 S
C884   O926    1.220   .     D
C884   C1123   1.486   .     S
C884   H1141   1.083   .     S
C885   H909    1.109   .     S
C885   H910    1.101   .     S
C886   H913    1.109   .     S
C886   H912    1.103   .     S
C886   H755    1.102   1_655 S
C886   N766    1.433   1_655 S
C888   C1117   1.498   .     S
C888   C1123   1.354   .     S
C889   C1356   1.354   1_545 S
C889   C1352   1.486   1_545 S
C890   O930    1.288   .     A
C890   O932    1.302   .     A
C891   O933    1.301   .     A
C891   O931    1.287   .     A
H899   C1346   1.109   1_545 S
H902   C1113   1.109   .     S
H907   C1352   1.083   1_545 S
H908   C729    1.109   1_655 S
N921   Zn936   2.035   .     S
N921   C729    1.435   1_655 S
N921   N766    1.282   1_655 S
N922   Zn935   2.035   .     S
O923   Zn935   1.945   .     S
O925   C1117   1.221   .     S
O927   Zn936   1.945   .     S
O928   Zn936   1.960   .     S
O929   Zn935   1.960   .     S
O930   Zn935   2.018   .     S
O931   Zn936   2.018   .     S
O932   Zn936   2.020   .     S
O933   Zn935   2.020   .     S
C937   O1001   1.295   .     A
C937   O1006   1.295   .     A
C937   C966    1.436   .     S
C938   C949    1.417   .     A
C938   C953    1.525   .     S
C938   C940    1.405   .     A
C939   C969    1.435   .     S
C939   C970    1.404   .     A
C939   C941    1.403   .     A
C940   C942    1.401   .     A
C940   C968    1.438   .     S
C941   C943    1.400   .     A
C941   C954    1.527   .     S
C942   C955    1.524   .     S
C942   C944    1.396   .     A
C943   C950    1.414   .     A
C943   C945    1.417   .     A
C944   C951    1.412   .     A
C944   C946    1.415   .     A
C945   C947    1.430   .     A
C946   C949    1.429   .     A
C946   C243    1.406   1_556 S
C947   C970    1.415   .     A
C947   C965    1.422   .     A
C948   O1005   1.286   .     A
C948   O1007   1.303   .     A
C948   C967    1.436   .     S
C949   C959    1.421   .     A
C950   C956    1.519   .     S
C951   C957    1.520   .     S
C951   C263    1.396   1_556 S
C952   H971    1.109   .     S
C952   C970    1.527   .     S
C952   H982    1.106   .     S
C952   H992    1.106   .     S
C953   H994    1.107   .     S
C953   H995    1.106   .     S
C953   H993    1.106   .     S
C954   H998    1.108   .     S
C954   H996    1.104   .     S
C954   H997    1.111   .     S
C955   H972    1.105   .     S
C955   H973    1.108   .     S
C955   H974    1.106   .     S
C956   H976    1.109   .     S
C956   H975    1.107   .     S
C956   H1211   1.109   .     S
C957   H979    1.108   .     S
C957   H978    1.109   .     S
C958   O1012   1.221   .     D
C958   H981    1.085   .     S
C958   C959    1.488   .     S
C959   C248    1.396   1_556 S
C960   C965    1.489   .     S
C960   O1002   1.221   .     D
C960   H983    1.085   .     S
C961   H984    1.086   .     S
C962   O1004   1.220   .     D
C962   C1201   1.486   .     S
C962   H1219   1.083   .     S
C963   H987    1.109   .     S
C963   H988    1.101   .     S
C963   H1142   1.109   1_455 S
C963   N1155   1.435   1_455 S
C964   H991    1.109   .     S
C964   H990    1.103   .     S
C964   H1067   1.102   .     S
C964   N1078   1.433   .     S
C966   C1195   1.498   .     S
C966   C1201   1.354   .     S
C968   O1008   1.288   .     A
C968   O1010   1.302   .     A
C969   O1011   1.301   .     A
C969   O1009   1.287   .     A
H980   C1191   1.109   .     S
H986   C1041   1.109   .     S
H989   C1120   1.102   1_455 S
N999   Zn1014  2.035   .     S
N999   C1041   1.435   .     S
N999   N1078   1.282   .     S
N1000  Zn1013  2.035   .     S
N1000  N1155   1.282   1_455 S
N1000  C1120   1.433   1_455 S
O1001  Zn1013  1.945   .     S
O1003  C1195   1.221   .     S
O1005  Zn1014  1.945   .     S
O1006  Zn1014  1.960   .     S
O1007  Zn1013  1.960   .     S
O1008  Zn1013  2.018   .     S
O1009  Zn1014  2.018   .     S
O1010  Zn1014  2.020   .     S
O1011  Zn1013  2.020   .     S
C1015  O1079   1.295   .     A
C1015  O1084   1.295   .     A
C1015  C1044   1.436   .     S
C1016  C1027   1.417   .     A
C1016  C1031   1.525   .     S
C1016  C1018   1.405   .     A
C1017  C1047   1.435   .     S
C1017  C1048   1.404   .     A
C1017  C1019   1.403   .     A
C1018  C1020   1.401   .     A
C1018  C1046   1.438   .     S
C1019  C1021   1.400   .     A
C1019  C1032   1.527   .     S
C1020  C1033   1.524   .     S
C1020  C1022   1.396   .     A
C1021  C1028   1.414   .     A
C1021  C1023   1.417   .     A
C1022  C1029   1.412   .     A
C1022  C1024   1.415   .     A
C1023  C1025   1.430   .     A
C1024  C1027   1.429   .     A
C1024  C321    1.406   1_556 S
C1025  C1048   1.415   .     A
C1025  C1043   1.422   .     A
C1026  O1083   1.286   .     A
C1026  O1085   1.303   .     A
C1026  C1045   1.436   .     S
C1027  C1037   1.421   .     A
C1028  C1034   1.519   .     S
C1029  C1035   1.520   .     S
C1029  C341    1.396   1_556 S
C1030  H1049   1.109   .     S
C1030  C1048   1.527   .     S
C1030  H1060   1.106   .     S
C1030  H1070   1.106   .     S
C1031  H1072   1.107   .     S
C1031  H1073   1.106   .     S
C1031  H1071   1.106   .     S
C1032  H1076   1.108   .     S
C1032  H1074   1.104   .     S
C1032  H1075   1.111   .     S
C1033  H1050   1.105   .     S
C1033  H1051   1.108   .     S
C1033  H1052   1.106   .     S
C1034  H1054   1.109   .     S
C1034  H1053   1.107   .     S
C1034  H1289   1.109   .     S
C1035  H1057   1.108   .     S
C1035  H1056   1.109   .     S
C1036  O1090   1.221   .     D
C1036  H1059   1.085   .     S
C1036  C1037   1.488   .     S
C1037  C326    1.396   1_556 S
C1038  C1043   1.489   .     S
C1038  O1080   1.221   .     D
C1038  H1061   1.085   .     S
C1039  H1062   1.086   .     S
C1040  O1082   1.220   .     D
C1040  C1279   1.486   .     S
C1040  H1297   1.083   .     S
C1041  H1065   1.109   .     S
C1041  H1066   1.101   .     S
C1042  H1069   1.109   .     S
C1042  H1068   1.103   .     S
C1042  H1145   1.102   .     S
C1042  N1156   1.433   .     S
C1044  C1273   1.498   .     S
C1044  C1279   1.354   .     S
C1046  O1086   1.288   .     A
C1046  O1088   1.302   .     A
C1047  O1089   1.301   .     A
C1047  O1087   1.287   .     A
H1058  C1269   1.109   .     S
H1064  C1119   1.109   .     S
N1077  Zn1092  2.035   .     S
N1077  C1119   1.435   .     S
N1077  N1156   1.282   .     S
N1078  Zn1091  2.035   .     S
O1079  Zn1091  1.945   .     S
O1081  C1273   1.221   .     S
O1083  Zn1092  1.945   .     S
O1084  Zn1092  1.960   .     S
O1085  Zn1091  1.960   .     S
O1086  Zn1091  2.018   .     S
O1087  Zn1092  2.018   .     S
O1088  Zn1092  2.020   .     S
O1089  Zn1091  2.020   .     S
C1093  O1157   1.295   .     A
C1093  O1162   1.295   .     A
C1093  C1122   1.436   .     S
C1094  C1105   1.417   .     A
C1094  C1109   1.525   .     S
C1094  C1096   1.405   .     A
C1095  C1125   1.435   .     S
C1095  C1126   1.404   .     A
C1095  C1097   1.403   .     A
C1096  C1098   1.401   .     A
C1096  C1124   1.438   .     S
C1097  C1099   1.400   .     A
C1097  C1110   1.527   .     S
C1098  C1111   1.524   .     S
C1098  C1100   1.396   .     A
C1099  C1106   1.414   .     A
C1099  C1101   1.417   .     A
C1100  C1107   1.412   .     A
C1100  C1102   1.415   .     A
C1101  C1103   1.430   .     A
C1102  C1105   1.429   .     A
C1102  C399    1.406   1_556 S
C1103  C1126   1.415   .     A
C1103  C1121   1.422   .     A
C1104  O1161   1.286   .     A
C1104  O1163   1.303   .     A
C1104  C1123   1.436   .     S
C1105  C1115   1.421   .     A
C1106  C1112   1.519   .     S
C1107  C1113   1.520   .     S
C1107  C419    1.396   1_556 S
C1108  H1127   1.109   .     S
C1108  C1126   1.527   .     S
C1108  H1138   1.106   .     S
C1108  H1148   1.106   .     S
C1109  H1150   1.107   .     S
C1109  H1151   1.106   .     S
C1109  H1149   1.106   .     S
C1110  H1154   1.108   .     S
C1110  H1152   1.104   .     S
C1110  H1153   1.111   .     S
C1111  H1128   1.105   .     S
C1111  H1129   1.108   .     S
C1111  H1130   1.106   .     S
C1112  H1132   1.109   .     S
C1112  H1131   1.107   .     S
C1112  H1367   1.109   .     S
C1113  H1135   1.108   .     S
C1113  H1134   1.109   .     S
C1114  O1168   1.221   .     D
C1114  H1137   1.085   .     S
C1114  C1115   1.488   .     S
C1115  C404    1.396   1_556 S
C1116  C1121   1.489   .     S
C1116  O1158   1.221   .     D
C1116  H1139   1.085   .     S
C1117  H1140   1.086   .     S
C1118  O1160   1.220   .     D
C1118  C1357   1.486   .     S
C1118  H1375   1.083   .     S
C1119  H1143   1.109   .     S
C1119  H1144   1.101   .     S
C1120  H1147   1.109   .     S
C1120  H1146   1.103   .     S
C1120  H989    1.102   1_655 S
C1120  N1000   1.433   1_655 S
C1122  C1351   1.498   .     S
C1122  C1357   1.354   .     S
C1124  O1164   1.288   .     A
C1124  O1166   1.302   .     A
C1125  O1167   1.301   .     A
C1125  O1165   1.287   .     A
H1136  C1347   1.109   .     S
H1142  C963    1.109   1_655 S
N1155  Zn1170  2.035   .     S
N1155  C963    1.435   1_655 S
N1155  N1000   1.282   1_655 S
N1156  Zn1169  2.035   .     S
O1157  Zn1169  1.945   .     S
O1159  C1351   1.221   .     S
O1161  Zn1170  1.945   .     S
O1162  Zn1170  1.960   .     S
O1163  Zn1169  1.960   .     S
O1164  Zn1169  2.018   .     S
O1165  Zn1170  2.018   .     S
O1166  Zn1170  2.020   .     S
O1167  Zn1169  2.020   .     S
C1171  O1235   1.295   .     A
C1171  O1240   1.295   .     A
C1171  C1200   1.436   .     S
C1172  C1183   1.417   .     A
C1172  C1187   1.525   .     S
C1172  C1174   1.405   .     A
C1173  C1203   1.435   .     S
C1173  C1204   1.404   .     A
C1173  C1175   1.403   .     A
C1174  C1176   1.401   .     A
C1174  C1202   1.438   .     S
C1175  C1177   1.400   .     A
C1175  C1188   1.527   .     S
C1176  C1189   1.524   .     S
C1176  C1178   1.396   .     A
C1177  C1184   1.414   .     A
C1177  C1179   1.417   .     A
C1178  C1185   1.412   .     A
C1178  C1180   1.415   .     A
C1179  C1181   1.430   .     A
C1180  C1183   1.429   .     A
C1180  C477    1.406   1_556 S
C1181  C1204   1.415   .     A
C1181  C1199   1.422   .     A
C1182  O1239   1.286   .     A
C1182  O1241   1.303   .     A
C1182  C1201   1.436   .     S
C1183  C1193   1.421   .     A
C1184  C1190   1.519   .     S
C1185  C1191   1.520   .     S
C1185  C497    1.396   1_556 S
C1186  H1205   1.109   .     S
C1186  C1204   1.527   .     S
C1186  H1216   1.106   .     S
C1186  H1226   1.106   .     S
C1187  H1228   1.107   .     S
C1187  H1229   1.106   .     S
C1187  H1227   1.106   .     S
C1188  H1232   1.108   .     S
C1188  H1230   1.104   .     S
C1188  H1231   1.111   .     S
C1189  H1206   1.105   .     S
C1189  H1207   1.108   .     S
C1189  H1208   1.106   .     S
C1190  H1210   1.109   .     S
C1190  H1209   1.107   .     S
C1190  H743    1.109   1_565 S
C1191  H1213   1.108   .     S
C1191  H1212   1.109   .     S
C1192  O1246   1.221   .     D
C1192  H1215   1.085   .     S
C1192  C1193   1.488   .     S
C1193  C482    1.396   1_556 S
C1194  C1199   1.489   .     S
C1194  O1236   1.221   .     D
C1194  H1217   1.085   .     S
C1195  H1218   1.086   .     S
C1196  O1238   1.220   .     D
C1196  C733    1.486   1_565 S
C1196  H751    1.083   1_565 S
C1197  H1221   1.109   .     S
C1197  H1222   1.101   .     S
C1197  H1376   1.109   1_455 S
C1197  N1389   1.435   1_455 S
C1198  H1225   1.109   .     S
C1198  H1224   1.103   .     S
C1198  H1301   1.102   .     S
C1198  N1312   1.433   .     S
C1200  C727    1.498   1_565 S
C1200  C733    1.354   1_565 S
C1202  O1242   1.288   .     A
C1202  O1244   1.302   .     A
C1203  O1245   1.301   .     A
C1203  O1243   1.287   .     A
H1214  C723    1.109   1_565 S
H1220  C1275   1.109   .     S
H1223  C1354   1.102   1_455 S
N1233  Zn1248  2.035   .     S
N1233  C1275   1.435   .     S
N1233  N1312   1.282   .     S
N1234  Zn1247  2.035   .     S
N1234  N1389   1.282   1_455 S
N1234  C1354   1.433   1_455 S
O1235  Zn1247  1.945   .     S
O1237  C727    1.221   1_565 S
O1239  Zn1248  1.945   .     S
O1240  Zn1248  1.960   .     S
O1241  Zn1247  1.960   .     S
O1242  Zn1247  2.018   .     S
O1243  Zn1248  2.018   .     S
O1244  Zn1248  2.020   .     S
O1245  Zn1247  2.020   .     S
C1249  O1313   1.295   .     A
C1249  O1318   1.295   .     A
C1249  C1278   1.436   .     S
C1250  C1261   1.417   .     A
C1250  C1265   1.525   .     S
C1250  C1252   1.405   .     A
C1251  C1281   1.435   .     S
C1251  C1282   1.404   .     A
C1251  C1253   1.403   .     A
C1252  C1254   1.401   .     A
C1252  C1280   1.438   .     S
C1253  C1255   1.400   .     A
C1253  C1266   1.527   .     S
C1254  C1267   1.524   .     S
C1254  C1256   1.396   .     A
C1255  C1262   1.414   .     A
C1255  C1257   1.417   .     A
C1256  C1263   1.412   .     A
C1256  C1258   1.415   .     A
C1257  C1259   1.430   .     A
C1258  C1261   1.429   .     A
C1258  C555    1.406   1_556 S
C1259  C1282   1.415   .     A
C1259  C1277   1.422   .     A
C1260  O1317   1.286   .     A
C1260  O1319   1.303   .     A
C1260  C1279   1.436   .     S
C1261  C1271   1.421   .     A
C1262  C1268   1.519   .     S
C1263  C1269   1.520   .     S
C1263  C575    1.396   1_556 S
C1264  H1283   1.109   .     S
C1264  C1282   1.527   .     S
C1264  H1294   1.106   .     S
C1264  H1304   1.106   .     S
C1265  H1306   1.107   .     S
C1265  H1307   1.106   .     S
C1265  H1305   1.106   .     S
C1266  H1310   1.108   .     S
C1266  H1308   1.104   .     S
C1266  H1309   1.111   .     S
C1267  H1284   1.105   .     S
C1267  H1285   1.108   .     S
C1267  H1286   1.106   .     S
C1268  H1288   1.109   .     S
C1268  H1287   1.107   .     S
C1268  H821    1.109   1_565 S
C1269  H1291   1.108   .     S
C1269  H1290   1.109   .     S
C1270  O1324   1.221   .     D
C1270  H1293   1.085   .     S
C1270  C1271   1.488   .     S
C1271  C560    1.396   1_556 S
C1272  C1277   1.489   .     S
C1272  O1314   1.221   .     D
C1272  H1295   1.085   .     S
C1273  H1296   1.086   .     S
C1274  O1316   1.220   .     D
C1274  C811    1.486   1_565 S
C1274  H829    1.083   1_565 S
C1275  H1299   1.109   .     S
C1275  H1300   1.101   .     S
C1276  H1303   1.109   .     S
C1276  H1302   1.103   .     S
C1276  H1379   1.102   .     S
C1276  N1390   1.433   .     S
C1278  C805    1.498   1_565 S
C1278  C811    1.354   1_565 S
C1280  O1320   1.288   .     A
C1280  O1322   1.302   .     A
C1281  O1323   1.301   .     A
C1281  O1321   1.287   .     A
H1292  C801    1.109   1_565 S
H1298  C1353   1.109   .     S
N1311  Zn1326  2.035   .     S
N1311  C1353   1.435   .     S
N1311  N1390   1.282   .     S
N1312  Zn1325  2.035   .     S
O1313  Zn1325  1.945   .     S
O1315  C805    1.221   1_565 S
O1317  Zn1326  1.945   .     S
O1318  Zn1326  1.960   .     S
O1319  Zn1325  1.960   .     S
O1320  Zn1325  2.018   .     S
O1321  Zn1326  2.018   .     S
O1322  Zn1326  2.020   .     S
O1323  Zn1325  2.020   .     S
C1327  O1391   1.295   .     A
C1327  O1396   1.295   .     A
C1327  C1356   1.436   .     S
C1328  C1339   1.417   .     A
C1328  C1343   1.525   .     S
C1328  C1330   1.405   .     A
C1329  C1359   1.435   .     S
C1329  C1360   1.404   .     A
C1329  C1331   1.403   .     A
C1330  C1332   1.401   .     A
C1330  C1358   1.438   .     S
C1331  C1333   1.400   .     A
C1331  C1344   1.527   .     S
C1332  C1345   1.524   .     S
C1332  C1334   1.396   .     A
C1333  C1340   1.414   .     A
C1333  C1335   1.417   .     A
C1334  C1341   1.412   .     A
C1334  C1336   1.415   .     A
C1335  C1337   1.430   .     A
C1336  C1339   1.429   .     A
C1336  C633    1.406   1_556 S
C1337  C1360   1.415   .     A
C1337  C1355   1.422   .     A
C1338  O1395   1.286   .     A
C1338  O1397   1.303   .     A
C1338  C1357   1.436   .     S
C1339  C1349   1.421   .     A
C1340  C1346   1.519   .     S
C1341  C1347   1.520   .     S
C1341  C653    1.396   1_556 S
C1342  H1361   1.109   .     S
C1342  C1360   1.527   .     S
C1342  H1372   1.106   .     S
C1342  H1382   1.106   .     S
C1343  H1384   1.107   .     S
C1343  H1385   1.106   .     S
C1343  H1383   1.106   .     S
C1344  H1388   1.108   .     S
C1344  H1386   1.104   .     S
C1344  H1387   1.111   .     S
C1345  H1362   1.105   .     S
C1345  H1363   1.108   .     S
C1345  H1364   1.106   .     S
C1346  H1366   1.109   .     S
C1346  H1365   1.107   .     S
C1346  H899    1.109   1_565 S
C1347  H1369   1.108   .     S
C1347  H1368   1.109   .     S
C1348  O1402   1.221   .     D
C1348  H1371   1.085   .     S
C1348  C1349   1.488   .     S
C1349  C638    1.396   1_556 S
C1350  C1355   1.489   .     S
C1350  O1392   1.221   .     D
C1350  H1373   1.085   .     S
C1351  H1374   1.086   .     S
C1352  O1394   1.220   .     D
C1352  C889    1.486   1_565 S
C1352  H907    1.083   1_565 S
C1353  H1377   1.109   .     S
C1353  H1378   1.101   .     S
C1354  H1381   1.109   .     S
C1354  H1380   1.103   .     S
C1354  H1223   1.102   1_655 S
C1354  N1234   1.433   1_655 S
C1356  C883    1.498   1_565 S
C1356  C889    1.354   1_565 S
C1358  O1398   1.288   .     A
C1358  O1400   1.302   .     A
C1359  O1401   1.301   .     A
C1359  O1399   1.287   .     A
H1370  C879    1.109   1_565 S
H1376  C1197   1.109   1_655 S
N1389  Zn1404  2.035   .     S
N1389  C1197   1.435   1_655 S
N1389  N1234   1.282   1_655 S
N1390  Zn1403  2.035   .     S
O1391  Zn1403  1.945   .     S
O1393  C883    1.221   1_565 S
O1395  Zn1404  1.945   .     S
O1396  Zn1404  1.960   .     S
O1397  Zn1403  1.960   .     S
O1398  Zn1403  2.018   .     S
O1399  Zn1404  2.018   .     S
O1400  Zn1404  2.020   .     S
O1401  Zn1403  2.020   .     S
