data_str_m3_o5_o17_pcu_sym.16
_audit_creation_date              2020-01-03
_audit_creation_method            'Materials Studio'
_symmetry_space_group_name_H-M    'P1'
_symmetry_Int_Tables_number       1
_symmetry_cell_setting            triclinic
loop_
_symmetry_equiv_pos_as_xyz
  x,y,z
_cell_length_a                    30.0198
_cell_length_b                    26.8720
_cell_length_c                    24.3517
_cell_angle_alpha                 90.0546
_cell_angle_beta                  90.4347
_cell_angle_gamma                 90.2768
loop_
_atom_site_label
_atom_site_type_symbol
_atom_site_fract_x
_atom_site_fract_y
_atom_site_fract_z
_atom_site_U_iso_or_equiv
_atom_site_adp_type
_atom_site_occupancy
O1     O     0.25000   0.09512   0.21228   0.00000  Uiso   1.00
O2     O     0.25000   0.23822   0.12105   0.00000  Uiso   1.00
O3     O     0.25000   0.23822   0.21228   0.00000  Uiso   1.00
O4     O     0.25000   0.09512   0.12105   0.00000  Uiso   1.00
C5     C     0.25034   0.07267   0.16666   0.00000  Uiso   1.00
C6     C     0.24967   0.26067   0.16667   0.00000  Uiso   1.00
O7     O     0.18392   0.16667   0.21230   0.00000  Uiso   1.00
O8     O     0.31607   0.16667   0.12104   0.00000  Uiso   1.00
O9     O     0.31607   0.16667   0.21230   0.00000  Uiso   1.00
O10    O     0.18392   0.16667   0.12104   0.00000  Uiso   1.00
C11    C     0.16346   0.16607   0.16643   0.00000  Uiso   1.00
C12    C     0.33653   0.16727   0.16690   0.00000  Uiso   1.00
Zn13   Zn    0.25000   0.16667   0.22759   0.00000  Uiso   1.00
Zn14   Zn    0.25000   0.16667   0.10574   0.00000  Uiso   1.00
N15    N     0.25000   0.16667   0.02455   0.00000  Uiso   1.00
N16    N     0.25000   0.16667   0.30879   0.00000  Uiso   1.00
C17    C     0.40706   0.21302   0.16863   0.00000  Uiso   1.00
C18    C     0.09294   0.12032   0.16484   0.00000  Uiso   1.00
C19    C     0.40620   0.12140   0.16803   0.00000  Uiso   1.00
C20    C     0.09379   0.21194   0.16531   0.00000  Uiso   1.00
C21    C     0.38414   0.16729   0.16768   0.00000  Uiso   1.00
C22    C     0.11586   0.16605   0.16567   0.00000  Uiso   1.00
C23    C     0.45277   0.12117   0.16488   0.00000  Uiso   1.00
C24    C     0.04723   0.21215   0.16861   0.00000  Uiso   1.00
C25    C     0.45368   0.21264   0.17033   0.00000  Uiso   1.00
C26    C     0.04632   0.12069   0.16320   0.00000  Uiso   1.00
C27    C     0.47656   0.16678   0.16717   0.00000  Uiso   1.00
C28    C     0.02344   0.16654   0.16635   0.00000  Uiso   1.00
C29    C     0.47604   0.07659   0.15765   0.00000  Uiso   1.00
C30    C     0.02395   0.25672   0.17596   0.00000  Uiso   1.00
C31    C     0.47801   0.25700   0.17659   0.00000  Uiso   1.00
C32    C     0.02199   0.07631   0.15704   0.00000  Uiso   1.00
C33    C     0.25014   0.02171   0.16666   0.00000  Uiso   1.00
C34    C     0.24987   0.31162   0.16668   0.00000  Uiso   1.00
H35    H     0.45906   0.04156   0.15110   0.00000  Uiso   1.00
H36    H     0.04094   0.29174   0.18260   0.00000  Uiso   1.00
H37    H     0.46190   0.29233   0.18313   0.00000  Uiso   1.00
H38    H     0.03810   0.04097   0.15057   0.00000  Uiso   1.00
C39    C     0.38247   0.26104   0.16664   0.00000  Uiso   1.00
H40    H     0.39365   0.29061   0.13966   0.00000  Uiso   1.00
O41    O     0.35052   0.26843   0.19618   0.00000  Uiso   1.00
C42    C     0.11754   0.07230   0.16687   0.00000  Uiso   1.00
H43    H     0.10639   0.04277   0.19392   0.00000  Uiso   1.00
O44    O     0.14946   0.06488   0.13729   0.00000  Uiso   1.00
C45    C     0.37990   0.07443   0.17307   0.00000  Uiso   1.00
H46    H     0.34949   0.06926   0.14936   0.00000  Uiso   1.00
O47    O     0.39085   0.04243   0.20600   0.00000  Uiso   1.00
C48    C     0.12008   0.25891   0.16006   0.00000  Uiso   1.00
H49    H     0.15075   0.26397   0.18331   0.00000  Uiso   1.00
O50    O     0.10882   0.29105   0.12744   0.00000  Uiso   1.00
O51    O     0.75000   0.09512   0.21228   0.00000  Uiso   1.00
O52    O     0.75000   0.23822   0.12105   0.00000  Uiso   1.00
O53    O     0.75000   0.23822   0.21228   0.00000  Uiso   1.00
O54    O     0.75000   0.09512   0.12105   0.00000  Uiso   1.00
C55    C     0.75034   0.07267   0.16666   0.00000  Uiso   1.00
C56    C     0.74967   0.26067   0.16667   0.00000  Uiso   1.00
O57    O     0.68392   0.16667   0.21230   0.00000  Uiso   1.00
O58    O     0.81607   0.16667   0.12104   0.00000  Uiso   1.00
O59    O     0.81607   0.16667   0.21230   0.00000  Uiso   1.00
O60    O     0.68392   0.16667   0.12104   0.00000  Uiso   1.00
C61    C     0.66346   0.16607   0.16643   0.00000  Uiso   1.00
C62    C     0.83653   0.16727   0.16690   0.00000  Uiso   1.00
Zn63   Zn    0.75000   0.16667   0.22759   0.00000  Uiso   1.00
Zn64   Zn    0.75000   0.16667   0.10574   0.00000  Uiso   1.00
N65    N     0.75000   0.16667   0.02455   0.00000  Uiso   1.00
N66    N     0.75000   0.16667   0.30879   0.00000  Uiso   1.00
C67    C     0.90706   0.21302   0.16863   0.00000  Uiso   1.00
C68    C     0.59294   0.12032   0.16484   0.00000  Uiso   1.00
C69    C     0.90620   0.12140   0.16803   0.00000  Uiso   1.00
C70    C     0.59379   0.21194   0.16531   0.00000  Uiso   1.00
C71    C     0.88414   0.16729   0.16768   0.00000  Uiso   1.00
C72    C     0.61586   0.16605   0.16567   0.00000  Uiso   1.00
C73    C     0.95277   0.12117   0.16488   0.00000  Uiso   1.00
C74    C     0.54723   0.21215   0.16861   0.00000  Uiso   1.00
C75    C     0.95368   0.21264   0.17033   0.00000  Uiso   1.00
C76    C     0.54632   0.12069   0.16320   0.00000  Uiso   1.00
C77    C     0.97656   0.16678   0.16717   0.00000  Uiso   1.00
C78    C     0.52344   0.16654   0.16635   0.00000  Uiso   1.00
C79    C     0.97604   0.07659   0.15765   0.00000  Uiso   1.00
C80    C     0.52395   0.25672   0.17596   0.00000  Uiso   1.00
C81    C     0.97801   0.25700   0.17659   0.00000  Uiso   1.00
C82    C     0.52199   0.07631   0.15704   0.00000  Uiso   1.00
C83    C     0.75014   0.02171   0.16666   0.00000  Uiso   1.00
C84    C     0.74987   0.31162   0.16668   0.00000  Uiso   1.00
H85    H     0.95906   0.04156   0.15110   0.00000  Uiso   1.00
H86    H     0.54094   0.29174   0.18260   0.00000  Uiso   1.00
H87    H     0.96190   0.29233   0.18313   0.00000  Uiso   1.00
H88    H     0.53810   0.04097   0.15057   0.00000  Uiso   1.00
C89    C     0.88247   0.26104   0.16664   0.00000  Uiso   1.00
H90    H     0.89365   0.29061   0.13966   0.00000  Uiso   1.00
O91    O     0.85052   0.26843   0.19618   0.00000  Uiso   1.00
C92    C     0.61754   0.07230   0.16687   0.00000  Uiso   1.00
H93    H     0.60639   0.04277   0.19392   0.00000  Uiso   1.00
O94    O     0.64946   0.06488   0.13729   0.00000  Uiso   1.00
C95    C     0.87990   0.07443   0.17307   0.00000  Uiso   1.00
H96    H     0.84949   0.06926   0.14936   0.00000  Uiso   1.00
O97    O     0.89085   0.04243   0.20600   0.00000  Uiso   1.00
C98    C     0.62008   0.25891   0.16006   0.00000  Uiso   1.00
H99    H     0.65075   0.26397   0.18331   0.00000  Uiso   1.00
O100   O     0.60882   0.29105   0.12744   0.00000  Uiso   1.00
O101   O     0.25000   0.42845   0.21228   0.00000  Uiso   1.00
O102   O     0.25000   0.57155   0.12105   0.00000  Uiso   1.00
O103   O     0.25000   0.57155   0.21228   0.00000  Uiso   1.00
O104   O     0.25000   0.42845   0.12105   0.00000  Uiso   1.00
C105   C     0.25034   0.40600   0.16666   0.00000  Uiso   1.00
C106   C     0.24967   0.59400   0.16667   0.00000  Uiso   1.00
O107   O     0.18392   0.50000   0.21230   0.00000  Uiso   1.00
O108   O     0.31607   0.50000   0.12104   0.00000  Uiso   1.00
O109   O     0.31607   0.50000   0.21230   0.00000  Uiso   1.00
O110   O     0.18392   0.50000   0.12104   0.00000  Uiso   1.00
C111   C     0.16346   0.49940   0.16643   0.00000  Uiso   1.00
C112   C     0.33653   0.50060   0.16690   0.00000  Uiso   1.00
Zn113  Zn    0.25000   0.50000   0.22759   0.00000  Uiso   1.00
Zn114  Zn    0.25000   0.50000   0.10574   0.00000  Uiso   1.00
N115   N     0.25000   0.50000   0.02455   0.00000  Uiso   1.00
N116   N     0.25000   0.50000   0.30879   0.00000  Uiso   1.00
C117   C     0.40706   0.54635   0.16863   0.00000  Uiso   1.00
C118   C     0.09294   0.45365   0.16484   0.00000  Uiso   1.00
C119   C     0.40620   0.45473   0.16803   0.00000  Uiso   1.00
C120   C     0.09379   0.54528   0.16531   0.00000  Uiso   1.00
C121   C     0.38414   0.50063   0.16768   0.00000  Uiso   1.00
C122   C     0.11586   0.49938   0.16567   0.00000  Uiso   1.00
C123   C     0.45277   0.45451   0.16488   0.00000  Uiso   1.00
C124   C     0.04723   0.54549   0.16861   0.00000  Uiso   1.00
C125   C     0.45368   0.54597   0.17033   0.00000  Uiso   1.00
C126   C     0.04632   0.45402   0.16320   0.00000  Uiso   1.00
C127   C     0.47656   0.50012   0.16717   0.00000  Uiso   1.00
C128   C     0.02344   0.49988   0.16635   0.00000  Uiso   1.00
C129   C     0.47604   0.40992   0.15765   0.00000  Uiso   1.00
C130   C     0.02395   0.59006   0.17596   0.00000  Uiso   1.00
C131   C     0.47801   0.59034   0.17659   0.00000  Uiso   1.00
C132   C     0.02199   0.40964   0.15704   0.00000  Uiso   1.00
C133   C     0.25014   0.35505   0.16666   0.00000  Uiso   1.00
C134   C     0.24987   0.64495   0.16668   0.00000  Uiso   1.00
H135   H     0.45906   0.37489   0.15110   0.00000  Uiso   1.00
H136   H     0.04094   0.62508   0.18260   0.00000  Uiso   1.00
H137   H     0.46190   0.62567   0.18313   0.00000  Uiso   1.00
H138   H     0.03810   0.37430   0.15057   0.00000  Uiso   1.00
C139   C     0.38247   0.59438   0.16664   0.00000  Uiso   1.00
H140   H     0.39365   0.62394   0.13966   0.00000  Uiso   1.00
O141   O     0.35052   0.60176   0.19618   0.00000  Uiso   1.00
C142   C     0.11754   0.40563   0.16687   0.00000  Uiso   1.00
H143   H     0.10639   0.37610   0.19392   0.00000  Uiso   1.00
O144   O     0.14946   0.39821   0.13729   0.00000  Uiso   1.00
C145   C     0.37990   0.40776   0.17307   0.00000  Uiso   1.00
H146   H     0.34949   0.40259   0.14936   0.00000  Uiso   1.00
O147   O     0.39085   0.37577   0.20600   0.00000  Uiso   1.00
C148   C     0.12008   0.59225   0.16006   0.00000  Uiso   1.00
H149   H     0.15075   0.59730   0.18331   0.00000  Uiso   1.00
O150   O     0.10882   0.62438   0.12744   0.00000  Uiso   1.00
O151   O     0.75000   0.42845   0.21228   0.00000  Uiso   1.00
O152   O     0.75000   0.57155   0.12105   0.00000  Uiso   1.00
O153   O     0.75000   0.57155   0.21228   0.00000  Uiso   1.00
O154   O     0.75000   0.42845   0.12105   0.00000  Uiso   1.00
C155   C     0.75034   0.40600   0.16666   0.00000  Uiso   1.00
C156   C     0.74967   0.59400   0.16667   0.00000  Uiso   1.00
O157   O     0.68392   0.50000   0.21230   0.00000  Uiso   1.00
O158   O     0.81607   0.50000   0.12104   0.00000  Uiso   1.00
O159   O     0.81607   0.50000   0.21230   0.00000  Uiso   1.00
O160   O     0.68392   0.50000   0.12104   0.00000  Uiso   1.00
C161   C     0.66346   0.49940   0.16643   0.00000  Uiso   1.00
C162   C     0.83653   0.50060   0.16690   0.00000  Uiso   1.00
Zn163  Zn    0.75000   0.50000   0.22759   0.00000  Uiso   1.00
Zn164  Zn    0.75000   0.50000   0.10574   0.00000  Uiso   1.00
N165   N     0.75000   0.50000   0.02455   0.00000  Uiso   1.00
N166   N     0.75000   0.50000   0.30879   0.00000  Uiso   1.00
C167   C     0.90706   0.54635   0.16863   0.00000  Uiso   1.00
C168   C     0.59294   0.45365   0.16484   0.00000  Uiso   1.00
C169   C     0.90620   0.45473   0.16803   0.00000  Uiso   1.00
C170   C     0.59379   0.54528   0.16531   0.00000  Uiso   1.00
C171   C     0.88414   0.50063   0.16768   0.00000  Uiso   1.00
C172   C     0.61586   0.49938   0.16567   0.00000  Uiso   1.00
C173   C     0.95277   0.45451   0.16488   0.00000  Uiso   1.00
C174   C     0.54723   0.54549   0.16861   0.00000  Uiso   1.00
C175   C     0.95368   0.54597   0.17033   0.00000  Uiso   1.00
C176   C     0.54632   0.45402   0.16320   0.00000  Uiso   1.00
C177   C     0.97656   0.50012   0.16717   0.00000  Uiso   1.00
C178   C     0.52344   0.49988   0.16635   0.00000  Uiso   1.00
C179   C     0.97604   0.40992   0.15765   0.00000  Uiso   1.00
C180   C     0.52395   0.59006   0.17596   0.00000  Uiso   1.00
C181   C     0.97801   0.59034   0.17659   0.00000  Uiso   1.00
C182   C     0.52199   0.40964   0.15704   0.00000  Uiso   1.00
C183   C     0.75014   0.35505   0.16666   0.00000  Uiso   1.00
C184   C     0.74987   0.64495   0.16668   0.00000  Uiso   1.00
H185   H     0.95906   0.37489   0.15110   0.00000  Uiso   1.00
H186   H     0.54094   0.62508   0.18260   0.00000  Uiso   1.00
H187   H     0.96190   0.62567   0.18313   0.00000  Uiso   1.00
H188   H     0.53810   0.37430   0.15057   0.00000  Uiso   1.00
C189   C     0.88247   0.59438   0.16664   0.00000  Uiso   1.00
H190   H     0.89365   0.62394   0.13966   0.00000  Uiso   1.00
O191   O     0.85052   0.60176   0.19618   0.00000  Uiso   1.00
C192   C     0.61754   0.40563   0.16687   0.00000  Uiso   1.00
H193   H     0.60639   0.37610   0.19392   0.00000  Uiso   1.00
O194   O     0.64946   0.39821   0.13729   0.00000  Uiso   1.00
C195   C     0.87990   0.40776   0.17307   0.00000  Uiso   1.00
H196   H     0.84949   0.40259   0.14936   0.00000  Uiso   1.00
O197   O     0.89085   0.37577   0.20600   0.00000  Uiso   1.00
C198   C     0.62008   0.59225   0.16006   0.00000  Uiso   1.00
H199   H     0.65075   0.59730   0.18331   0.00000  Uiso   1.00
O200   O     0.60882   0.62438   0.12744   0.00000  Uiso   1.00
O201   O     0.25000   0.76178   0.21228   0.00000  Uiso   1.00
O202   O     0.25000   0.90488   0.12105   0.00000  Uiso   1.00
O203   O     0.25000   0.90488   0.21228   0.00000  Uiso   1.00
O204   O     0.25000   0.76178   0.12105   0.00000  Uiso   1.00
C205   C     0.25034   0.73933   0.16666   0.00000  Uiso   1.00
C206   C     0.24967   0.92733   0.16667   0.00000  Uiso   1.00
O207   O     0.18392   0.83333   0.21230   0.00000  Uiso   1.00
O208   O     0.31607   0.83333   0.12104   0.00000  Uiso   1.00
O209   O     0.31607   0.83333   0.21230   0.00000  Uiso   1.00
O210   O     0.18392   0.83333   0.12104   0.00000  Uiso   1.00
C211   C     0.16346   0.83274   0.16643   0.00000  Uiso   1.00
C212   C     0.33653   0.83393   0.16690   0.00000  Uiso   1.00
Zn213  Zn    0.25000   0.83333   0.22759   0.00000  Uiso   1.00
Zn214  Zn    0.25000   0.83333   0.10574   0.00000  Uiso   1.00
N215   N     0.25000   0.83333   0.02455   0.00000  Uiso   1.00
N216   N     0.25000   0.83333   0.30879   0.00000  Uiso   1.00
C217   C     0.40706   0.87968   0.16863   0.00000  Uiso   1.00
C218   C     0.09294   0.78698   0.16484   0.00000  Uiso   1.00
C219   C     0.40620   0.78806   0.16803   0.00000  Uiso   1.00
C220   C     0.09379   0.87861   0.16531   0.00000  Uiso   1.00
C221   C     0.38414   0.83396   0.16768   0.00000  Uiso   1.00
C222   C     0.11586   0.83271   0.16567   0.00000  Uiso   1.00
C223   C     0.45277   0.78784   0.16488   0.00000  Uiso   1.00
C224   C     0.04723   0.87882   0.16861   0.00000  Uiso   1.00
C225   C     0.45368   0.87930   0.17033   0.00000  Uiso   1.00
C226   C     0.04632   0.78736   0.16320   0.00000  Uiso   1.00
C227   C     0.47656   0.83345   0.16717   0.00000  Uiso   1.00
C228   C     0.02344   0.83321   0.16635   0.00000  Uiso   1.00
C229   C     0.47604   0.74326   0.15765   0.00000  Uiso   1.00
C230   C     0.02395   0.92339   0.17596   0.00000  Uiso   1.00
C231   C     0.47801   0.92367   0.17659   0.00000  Uiso   1.00
C232   C     0.02199   0.74298   0.15704   0.00000  Uiso   1.00
C233   C     0.25014   0.68838   0.16666   0.00000  Uiso   1.00
C234   C     0.24987   0.97829   0.16668   0.00000  Uiso   1.00
H235   H     0.45906   0.70823   0.15110   0.00000  Uiso   1.00
H236   H     0.04094   0.95841   0.18260   0.00000  Uiso   1.00
H237   H     0.46190   0.95900   0.18313   0.00000  Uiso   1.00
H238   H     0.03810   0.70764   0.15057   0.00000  Uiso   1.00
C239   C     0.38247   0.92771   0.16664   0.00000  Uiso   1.00
H240   H     0.39365   0.95727   0.13966   0.00000  Uiso   1.00
O241   O     0.35052   0.93510   0.19618   0.00000  Uiso   1.00
C242   C     0.11754   0.73897   0.16687   0.00000  Uiso   1.00
H243   H     0.10639   0.70943   0.19392   0.00000  Uiso   1.00
O244   O     0.14946   0.73155   0.13729   0.00000  Uiso   1.00
C245   C     0.37990   0.74109   0.17307   0.00000  Uiso   1.00
H246   H     0.34949   0.73593   0.14936   0.00000  Uiso   1.00
O247   O     0.39085   0.70910   0.20600   0.00000  Uiso   1.00
C248   C     0.12008   0.92558   0.16006   0.00000  Uiso   1.00
H249   H     0.15075   0.93064   0.18331   0.00000  Uiso   1.00
O250   O     0.10882   0.95772   0.12744   0.00000  Uiso   1.00
O251   O     0.75000   0.76178   0.21228   0.00000  Uiso   1.00
O252   O     0.75000   0.90488   0.12105   0.00000  Uiso   1.00
O253   O     0.75000   0.90488   0.21228   0.00000  Uiso   1.00
O254   O     0.75000   0.76178   0.12105   0.00000  Uiso   1.00
C255   C     0.75034   0.73933   0.16666   0.00000  Uiso   1.00
C256   C     0.74967   0.92733   0.16667   0.00000  Uiso   1.00
O257   O     0.68392   0.83333   0.21230   0.00000  Uiso   1.00
O258   O     0.81607   0.83333   0.12104   0.00000  Uiso   1.00
O259   O     0.81607   0.83333   0.21230   0.00000  Uiso   1.00
O260   O     0.68392   0.83333   0.12104   0.00000  Uiso   1.00
C261   C     0.66346   0.83274   0.16643   0.00000  Uiso   1.00
C262   C     0.83653   0.83393   0.16690   0.00000  Uiso   1.00
Zn263  Zn    0.75000   0.83333   0.22759   0.00000  Uiso   1.00
Zn264  Zn    0.75000   0.83333   0.10574   0.00000  Uiso   1.00
N265   N     0.75000   0.83333   0.02455   0.00000  Uiso   1.00
N266   N     0.75000   0.83333   0.30879   0.00000  Uiso   1.00
C267   C     0.90706   0.87968   0.16863   0.00000  Uiso   1.00
C268   C     0.59294   0.78698   0.16484   0.00000  Uiso   1.00
C269   C     0.90620   0.78806   0.16803   0.00000  Uiso   1.00
C270   C     0.59379   0.87861   0.16531   0.00000  Uiso   1.00
C271   C     0.88414   0.83396   0.16768   0.00000  Uiso   1.00
C272   C     0.61586   0.83271   0.16567   0.00000  Uiso   1.00
C273   C     0.95277   0.78784   0.16488   0.00000  Uiso   1.00
C274   C     0.54723   0.87882   0.16861   0.00000  Uiso   1.00
C275   C     0.95368   0.87930   0.17033   0.00000  Uiso   1.00
C276   C     0.54632   0.78736   0.16320   0.00000  Uiso   1.00
C277   C     0.97656   0.83345   0.16717   0.00000  Uiso   1.00
C278   C     0.52344   0.83321   0.16635   0.00000  Uiso   1.00
C279   C     0.97604   0.74326   0.15765   0.00000  Uiso   1.00
C280   C     0.52395   0.92339   0.17596   0.00000  Uiso   1.00
C281   C     0.97801   0.92367   0.17659   0.00000  Uiso   1.00
C282   C     0.52199   0.74298   0.15704   0.00000  Uiso   1.00
C283   C     0.75014   0.68838   0.16666   0.00000  Uiso   1.00
C284   C     0.74987   0.97829   0.16668   0.00000  Uiso   1.00
H285   H     0.95906   0.70823   0.15110   0.00000  Uiso   1.00
H286   H     0.54094   0.95841   0.18260   0.00000  Uiso   1.00
H287   H     0.96190   0.95900   0.18313   0.00000  Uiso   1.00
H288   H     0.53810   0.70764   0.15057   0.00000  Uiso   1.00
C289   C     0.88247   0.92771   0.16664   0.00000  Uiso   1.00
H290   H     0.89365   0.95727   0.13966   0.00000  Uiso   1.00
O291   O     0.85052   0.93510   0.19618   0.00000  Uiso   1.00
C292   C     0.61754   0.73897   0.16687   0.00000  Uiso   1.00
H293   H     0.60639   0.70943   0.19392   0.00000  Uiso   1.00
O294   O     0.64946   0.73155   0.13729   0.00000  Uiso   1.00
C295   C     0.87990   0.74109   0.17307   0.00000  Uiso   1.00
H296   H     0.84949   0.73593   0.14936   0.00000  Uiso   1.00
O297   O     0.89085   0.70910   0.20600   0.00000  Uiso   1.00
C298   C     0.62008   0.92558   0.16006   0.00000  Uiso   1.00
H299   H     0.65075   0.93064   0.18331   0.00000  Uiso   1.00
O300   O     0.60882   0.95772   0.12744   0.00000  Uiso   1.00
O301   O     0.25000   0.09512   0.54562   0.00000  Uiso   1.00
O302   O     0.25000   0.23822   0.45438   0.00000  Uiso   1.00
O303   O     0.25000   0.23822   0.54562   0.00000  Uiso   1.00
O304   O     0.25000   0.09512   0.45438   0.00000  Uiso   1.00
C305   C     0.25034   0.07267   0.50000   0.00000  Uiso   1.00
C306   C     0.24967   0.26067   0.50000   0.00000  Uiso   1.00
O307   O     0.18392   0.16667   0.54563   0.00000  Uiso   1.00
O308   O     0.31607   0.16667   0.45437   0.00000  Uiso   1.00
O309   O     0.31607   0.16667   0.54563   0.00000  Uiso   1.00
O310   O     0.18392   0.16667   0.45437   0.00000  Uiso   1.00
C311   C     0.16346   0.16607   0.49977   0.00000  Uiso   1.00
C312   C     0.33653   0.16727   0.50024   0.00000  Uiso   1.00
Zn313  Zn    0.25000   0.16667   0.56093   0.00000  Uiso   1.00
Zn314  Zn    0.25000   0.16667   0.43907   0.00000  Uiso   1.00
N315   N     0.25000   0.16667   0.35788   0.00000  Uiso   1.00
N316   N     0.25000   0.16667   0.64212   0.00000  Uiso   1.00
C317   C     0.40706   0.21302   0.50197   0.00000  Uiso   1.00
C318   C     0.09294   0.12032   0.49817   0.00000  Uiso   1.00
C319   C     0.40620   0.12140   0.50137   0.00000  Uiso   1.00
C320   C     0.09379   0.21194   0.49864   0.00000  Uiso   1.00
C321   C     0.38414   0.16729   0.50101   0.00000  Uiso   1.00
C322   C     0.11586   0.16605   0.49900   0.00000  Uiso   1.00
C323   C     0.45277   0.12117   0.49822   0.00000  Uiso   1.00
C324   C     0.04723   0.21215   0.50194   0.00000  Uiso   1.00
C325   C     0.45368   0.21264   0.50367   0.00000  Uiso   1.00
C326   C     0.04632   0.12069   0.49654   0.00000  Uiso   1.00
C327   C     0.47656   0.16678   0.50051   0.00000  Uiso   1.00
C328   C     0.02344   0.16654   0.49968   0.00000  Uiso   1.00
C329   C     0.47604   0.07659   0.49098   0.00000  Uiso   1.00
C330   C     0.02395   0.25672   0.50929   0.00000  Uiso   1.00
C331   C     0.47801   0.25700   0.50992   0.00000  Uiso   1.00
C332   C     0.02199   0.07631   0.49037   0.00000  Uiso   1.00
C333   C     0.25014   0.02171   0.49999   0.00000  Uiso   1.00
C334   C     0.24987   0.31162   0.50001   0.00000  Uiso   1.00
H335   H     0.45906   0.04156   0.48443   0.00000  Uiso   1.00
H336   H     0.04094   0.29174   0.51593   0.00000  Uiso   1.00
H337   H     0.46190   0.29233   0.51646   0.00000  Uiso   1.00
H338   H     0.03810   0.04097   0.48390   0.00000  Uiso   1.00
C339   C     0.38247   0.26104   0.49997   0.00000  Uiso   1.00
H340   H     0.39365   0.29061   0.47299   0.00000  Uiso   1.00
O341   O     0.35052   0.26843   0.52951   0.00000  Uiso   1.00
C342   C     0.11754   0.07230   0.50020   0.00000  Uiso   1.00
H343   H     0.10639   0.04277   0.52725   0.00000  Uiso   1.00
O344   O     0.14946   0.06488   0.47062   0.00000  Uiso   1.00
C345   C     0.37990   0.07443   0.50640   0.00000  Uiso   1.00
H346   H     0.34949   0.06926   0.48270   0.00000  Uiso   1.00
O347   O     0.39085   0.04243   0.53934   0.00000  Uiso   1.00
C348   C     0.12008   0.25891   0.49340   0.00000  Uiso   1.00
H349   H     0.15075   0.26397   0.51665   0.00000  Uiso   1.00
O350   O     0.10882   0.29105   0.46078   0.00000  Uiso   1.00
O351   O     0.75000   0.09512   0.54562   0.00000  Uiso   1.00
O352   O     0.75000   0.23822   0.45438   0.00000  Uiso   1.00
O353   O     0.75000   0.23822   0.54562   0.00000  Uiso   1.00
O354   O     0.75000   0.09512   0.45438   0.00000  Uiso   1.00
C355   C     0.75034   0.07267   0.50000   0.00000  Uiso   1.00
C356   C     0.74967   0.26067   0.50000   0.00000  Uiso   1.00
O357   O     0.68392   0.16667   0.54563   0.00000  Uiso   1.00
O358   O     0.81607   0.16667   0.45437   0.00000  Uiso   1.00
O359   O     0.81607   0.16667   0.54563   0.00000  Uiso   1.00
O360   O     0.68392   0.16667   0.45437   0.00000  Uiso   1.00
C361   C     0.66346   0.16607   0.49977   0.00000  Uiso   1.00
C362   C     0.83653   0.16727   0.50024   0.00000  Uiso   1.00
Zn363  Zn    0.75000   0.16667   0.56093   0.00000  Uiso   1.00
Zn364  Zn    0.75000   0.16667   0.43907   0.00000  Uiso   1.00
N365   N     0.75000   0.16667   0.35788   0.00000  Uiso   1.00
N366   N     0.75000   0.16667   0.64212   0.00000  Uiso   1.00
C367   C     0.90706   0.21302   0.50197   0.00000  Uiso   1.00
C368   C     0.59294   0.12032   0.49817   0.00000  Uiso   1.00
C369   C     0.90620   0.12140   0.50137   0.00000  Uiso   1.00
C370   C     0.59379   0.21194   0.49864   0.00000  Uiso   1.00
C371   C     0.88414   0.16729   0.50101   0.00000  Uiso   1.00
C372   C     0.61586   0.16605   0.49900   0.00000  Uiso   1.00
C373   C     0.95277   0.12117   0.49822   0.00000  Uiso   1.00
C374   C     0.54723   0.21215   0.50194   0.00000  Uiso   1.00
C375   C     0.95368   0.21264   0.50367   0.00000  Uiso   1.00
C376   C     0.54632   0.12069   0.49654   0.00000  Uiso   1.00
C377   C     0.97656   0.16678   0.50051   0.00000  Uiso   1.00
C378   C     0.52344   0.16654   0.49968   0.00000  Uiso   1.00
C379   C     0.97604   0.07659   0.49098   0.00000  Uiso   1.00
C380   C     0.52395   0.25672   0.50929   0.00000  Uiso   1.00
C381   C     0.97801   0.25700   0.50992   0.00000  Uiso   1.00
C382   C     0.52199   0.07631   0.49037   0.00000  Uiso   1.00
C383   C     0.75014   0.02171   0.49999   0.00000  Uiso   1.00
C384   C     0.74987   0.31162   0.50001   0.00000  Uiso   1.00
H385   H     0.95906   0.04156   0.48443   0.00000  Uiso   1.00
H386   H     0.54094   0.29174   0.51593   0.00000  Uiso   1.00
H387   H     0.96190   0.29233   0.51646   0.00000  Uiso   1.00
H388   H     0.53810   0.04097   0.48390   0.00000  Uiso   1.00
C389   C     0.88247   0.26104   0.49997   0.00000  Uiso   1.00
H390   H     0.89365   0.29061   0.47299   0.00000  Uiso   1.00
O391   O     0.85052   0.26843   0.52951   0.00000  Uiso   1.00
C392   C     0.61754   0.07230   0.50020   0.00000  Uiso   1.00
H393   H     0.60639   0.04277   0.52725   0.00000  Uiso   1.00
O394   O     0.64946   0.06488   0.47062   0.00000  Uiso   1.00
C395   C     0.87990   0.07443   0.50640   0.00000  Uiso   1.00
H396   H     0.84949   0.06926   0.48270   0.00000  Uiso   1.00
O397   O     0.89085   0.04243   0.53934   0.00000  Uiso   1.00
C398   C     0.62008   0.25891   0.49340   0.00000  Uiso   1.00
H399   H     0.65075   0.26397   0.51665   0.00000  Uiso   1.00
O400   O     0.60882   0.29105   0.46078   0.00000  Uiso   1.00
O401   O     0.25000   0.42845   0.54562   0.00000  Uiso   1.00
O402   O     0.25000   0.57155   0.45438   0.00000  Uiso   1.00
O403   O     0.25000   0.57155   0.54562   0.00000  Uiso   1.00
O404   O     0.25000   0.42845   0.45438   0.00000  Uiso   1.00
C405   C     0.25034   0.40600   0.50000   0.00000  Uiso   1.00
C406   C     0.24967   0.59400   0.50000   0.00000  Uiso   1.00
O407   O     0.18392   0.50000   0.54563   0.00000  Uiso   1.00
O408   O     0.31607   0.50000   0.45437   0.00000  Uiso   1.00
O409   O     0.31607   0.50000   0.54563   0.00000  Uiso   1.00
O410   O     0.18392   0.50000   0.45437   0.00000  Uiso   1.00
C411   C     0.16346   0.49940   0.49977   0.00000  Uiso   1.00
C412   C     0.33653   0.50060   0.50024   0.00000  Uiso   1.00
Zn413  Zn    0.25000   0.50000   0.56093   0.00000  Uiso   1.00
Zn414  Zn    0.25000   0.50000   0.43907   0.00000  Uiso   1.00
N415   N     0.25000   0.50000   0.35788   0.00000  Uiso   1.00
N416   N     0.25000   0.50000   0.64212   0.00000  Uiso   1.00
C417   C     0.40706   0.54635   0.50197   0.00000  Uiso   1.00
C418   C     0.09294   0.45365   0.49817   0.00000  Uiso   1.00
C419   C     0.40620   0.45473   0.50137   0.00000  Uiso   1.00
C420   C     0.09379   0.54528   0.49864   0.00000  Uiso   1.00
C421   C     0.38414   0.50063   0.50101   0.00000  Uiso   1.00
C422   C     0.11586   0.49938   0.49900   0.00000  Uiso   1.00
C423   C     0.45277   0.45451   0.49822   0.00000  Uiso   1.00
C424   C     0.04723   0.54549   0.50194   0.00000  Uiso   1.00
C425   C     0.45368   0.54597   0.50367   0.00000  Uiso   1.00
C426   C     0.04632   0.45402   0.49654   0.00000  Uiso   1.00
C427   C     0.47656   0.50012   0.50051   0.00000  Uiso   1.00
C428   C     0.02344   0.49988   0.49968   0.00000  Uiso   1.00
C429   C     0.47604   0.40992   0.49098   0.00000  Uiso   1.00
C430   C     0.02395   0.59006   0.50929   0.00000  Uiso   1.00
C431   C     0.47801   0.59034   0.50992   0.00000  Uiso   1.00
C432   C     0.02199   0.40964   0.49037   0.00000  Uiso   1.00
C433   C     0.25014   0.35505   0.49999   0.00000  Uiso   1.00
C434   C     0.24987   0.64495   0.50001   0.00000  Uiso   1.00
H435   H     0.45906   0.37489   0.48443   0.00000  Uiso   1.00
H436   H     0.04094   0.62508   0.51593   0.00000  Uiso   1.00
H437   H     0.46190   0.62567   0.51646   0.00000  Uiso   1.00
H438   H     0.03810   0.37430   0.48390   0.00000  Uiso   1.00
C439   C     0.38247   0.59438   0.49997   0.00000  Uiso   1.00
H440   H     0.39365   0.62394   0.47299   0.00000  Uiso   1.00
O441   O     0.35052   0.60176   0.52951   0.00000  Uiso   1.00
C442   C     0.11754   0.40563   0.50020   0.00000  Uiso   1.00
H443   H     0.10639   0.37610   0.52725   0.00000  Uiso   1.00
O444   O     0.14946   0.39821   0.47062   0.00000  Uiso   1.00
C445   C     0.37990   0.40776   0.50640   0.00000  Uiso   1.00
H446   H     0.34949   0.40259   0.48270   0.00000  Uiso   1.00
O447   O     0.39085   0.37577   0.53934   0.00000  Uiso   1.00
C448   C     0.12008   0.59225   0.49340   0.00000  Uiso   1.00
H449   H     0.15075   0.59730   0.51665   0.00000  Uiso   1.00
O450   O     0.10882   0.62438   0.46078   0.00000  Uiso   1.00
O451   O     0.75000   0.42845   0.54562   0.00000  Uiso   1.00
O452   O     0.75000   0.57155   0.45438   0.00000  Uiso   1.00
O453   O     0.75000   0.57155   0.54562   0.00000  Uiso   1.00
O454   O     0.75000   0.42845   0.45438   0.00000  Uiso   1.00
C455   C     0.75034   0.40600   0.50000   0.00000  Uiso   1.00
C456   C     0.74967   0.59400   0.50000   0.00000  Uiso   1.00
O457   O     0.68392   0.50000   0.54563   0.00000  Uiso   1.00
O458   O     0.81607   0.50000   0.45437   0.00000  Uiso   1.00
O459   O     0.81607   0.50000   0.54563   0.00000  Uiso   1.00
O460   O     0.68392   0.50000   0.45437   0.00000  Uiso   1.00
C461   C     0.66346   0.49940   0.49977   0.00000  Uiso   1.00
C462   C     0.83653   0.50060   0.50024   0.00000  Uiso   1.00
Zn463  Zn    0.75000   0.50000   0.56093   0.00000  Uiso   1.00
Zn464  Zn    0.75000   0.50000   0.43907   0.00000  Uiso   1.00
N465   N     0.75000   0.50000   0.35788   0.00000  Uiso   1.00
N466   N     0.75000   0.50000   0.64212   0.00000  Uiso   1.00
C467   C     0.90706   0.54635   0.50197   0.00000  Uiso   1.00
C468   C     0.59294   0.45365   0.49817   0.00000  Uiso   1.00
C469   C     0.90620   0.45473   0.50137   0.00000  Uiso   1.00
C470   C     0.59379   0.54528   0.49864   0.00000  Uiso   1.00
C471   C     0.88414   0.50063   0.50101   0.00000  Uiso   1.00
C472   C     0.61586   0.49938   0.49900   0.00000  Uiso   1.00
C473   C     0.95277   0.45451   0.49822   0.00000  Uiso   1.00
C474   C     0.54723   0.54549   0.50194   0.00000  Uiso   1.00
C475   C     0.95368   0.54597   0.50367   0.00000  Uiso   1.00
C476   C     0.54632   0.45402   0.49654   0.00000  Uiso   1.00
C477   C     0.97656   0.50012   0.50051   0.00000  Uiso   1.00
C478   C     0.52344   0.49988   0.49968   0.00000  Uiso   1.00
C479   C     0.97604   0.40992   0.49098   0.00000  Uiso   1.00
C480   C     0.52395   0.59006   0.50929   0.00000  Uiso   1.00
C481   C     0.97801   0.59034   0.50992   0.00000  Uiso   1.00
C482   C     0.52199   0.40964   0.49037   0.00000  Uiso   1.00
C483   C     0.75014   0.35505   0.49999   0.00000  Uiso   1.00
C484   C     0.74987   0.64495   0.50001   0.00000  Uiso   1.00
H485   H     0.95906   0.37489   0.48443   0.00000  Uiso   1.00
H486   H     0.54094   0.62508   0.51593   0.00000  Uiso   1.00
H487   H     0.96190   0.62567   0.51646   0.00000  Uiso   1.00
H488   H     0.53810   0.37430   0.48390   0.00000  Uiso   1.00
C489   C     0.88247   0.59438   0.49997   0.00000  Uiso   1.00
H490   H     0.89365   0.62394   0.47299   0.00000  Uiso   1.00
O491   O     0.85052   0.60176   0.52951   0.00000  Uiso   1.00
C492   C     0.61754   0.40563   0.50020   0.00000  Uiso   1.00
H493   H     0.60639   0.37610   0.52725   0.00000  Uiso   1.00
O494   O     0.64946   0.39821   0.47062   0.00000  Uiso   1.00
C495   C     0.87990   0.40776   0.50640   0.00000  Uiso   1.00
H496   H     0.84949   0.40259   0.48270   0.00000  Uiso   1.00
O497   O     0.89085   0.37577   0.53934   0.00000  Uiso   1.00
C498   C     0.62008   0.59225   0.49340   0.00000  Uiso   1.00
H499   H     0.65075   0.59730   0.51665   0.00000  Uiso   1.00
O500   O     0.60882   0.62438   0.46078   0.00000  Uiso   1.00
O501   O     0.25000   0.76178   0.54562   0.00000  Uiso   1.00
O502   O     0.25000   0.90488   0.45438   0.00000  Uiso   1.00
O503   O     0.25000   0.90488   0.54562   0.00000  Uiso   1.00
O504   O     0.25000   0.76178   0.45438   0.00000  Uiso   1.00
C505   C     0.25034   0.73933   0.50000   0.00000  Uiso   1.00
C506   C     0.24967   0.92733   0.50000   0.00000  Uiso   1.00
O507   O     0.18392   0.83333   0.54563   0.00000  Uiso   1.00
O508   O     0.31607   0.83333   0.45437   0.00000  Uiso   1.00
O509   O     0.31607   0.83333   0.54563   0.00000  Uiso   1.00
O510   O     0.18392   0.83333   0.45437   0.00000  Uiso   1.00
C511   C     0.16346   0.83274   0.49977   0.00000  Uiso   1.00
C512   C     0.33653   0.83393   0.50024   0.00000  Uiso   1.00
Zn513  Zn    0.25000   0.83333   0.56093   0.00000  Uiso   1.00
Zn514  Zn    0.25000   0.83333   0.43907   0.00000  Uiso   1.00
N515   N     0.25000   0.83333   0.35788   0.00000  Uiso   1.00
N516   N     0.25000   0.83333   0.64212   0.00000  Uiso   1.00
C517   C     0.40706   0.87968   0.50197   0.00000  Uiso   1.00
C518   C     0.09294   0.78698   0.49817   0.00000  Uiso   1.00
C519   C     0.40620   0.78806   0.50137   0.00000  Uiso   1.00
C520   C     0.09379   0.87861   0.49864   0.00000  Uiso   1.00
C521   C     0.38414   0.83396   0.50101   0.00000  Uiso   1.00
C522   C     0.11586   0.83271   0.49900   0.00000  Uiso   1.00
C523   C     0.45277   0.78784   0.49822   0.00000  Uiso   1.00
C524   C     0.04723   0.87882   0.50194   0.00000  Uiso   1.00
C525   C     0.45368   0.87930   0.50367   0.00000  Uiso   1.00
C526   C     0.04632   0.78736   0.49654   0.00000  Uiso   1.00
C527   C     0.47656   0.83345   0.50051   0.00000  Uiso   1.00
C528   C     0.02344   0.83321   0.49968   0.00000  Uiso   1.00
C529   C     0.47604   0.74326   0.49098   0.00000  Uiso   1.00
C530   C     0.02395   0.92339   0.50929   0.00000  Uiso   1.00
C531   C     0.47801   0.92367   0.50992   0.00000  Uiso   1.00
C532   C     0.02199   0.74298   0.49037   0.00000  Uiso   1.00
C533   C     0.25014   0.68838   0.49999   0.00000  Uiso   1.00
C534   C     0.24987   0.97829   0.50001   0.00000  Uiso   1.00
H535   H     0.45906   0.70823   0.48443   0.00000  Uiso   1.00
H536   H     0.04094   0.95841   0.51593   0.00000  Uiso   1.00
H537   H     0.46190   0.95900   0.51646   0.00000  Uiso   1.00
H538   H     0.03810   0.70764   0.48390   0.00000  Uiso   1.00
C539   C     0.38247   0.92771   0.49997   0.00000  Uiso   1.00
H540   H     0.39365   0.95727   0.47299   0.00000  Uiso   1.00
O541   O     0.35052   0.93510   0.52951   0.00000  Uiso   1.00
C542   C     0.11754   0.73897   0.50020   0.00000  Uiso   1.00
H543   H     0.10639   0.70943   0.52725   0.00000  Uiso   1.00
O544   O     0.14946   0.73155   0.47062   0.00000  Uiso   1.00
C545   C     0.37990   0.74109   0.50640   0.00000  Uiso   1.00
H546   H     0.34949   0.73593   0.48270   0.00000  Uiso   1.00
O547   O     0.39085   0.70910   0.53934   0.00000  Uiso   1.00
C548   C     0.12008   0.92558   0.49340   0.00000  Uiso   1.00
H549   H     0.15075   0.93064   0.51665   0.00000  Uiso   1.00
O550   O     0.10882   0.95772   0.46078   0.00000  Uiso   1.00
O551   O     0.75000   0.76178   0.54562   0.00000  Uiso   1.00
O552   O     0.75000   0.90488   0.45438   0.00000  Uiso   1.00
O553   O     0.75000   0.90488   0.54562   0.00000  Uiso   1.00
O554   O     0.75000   0.76178   0.45438   0.00000  Uiso   1.00
C555   C     0.75034   0.73933   0.50000   0.00000  Uiso   1.00
C556   C     0.74967   0.92733   0.50000   0.00000  Uiso   1.00
O557   O     0.68392   0.83333   0.54563   0.00000  Uiso   1.00
O558   O     0.81607   0.83333   0.45437   0.00000  Uiso   1.00
O559   O     0.81607   0.83333   0.54563   0.00000  Uiso   1.00
O560   O     0.68392   0.83333   0.45437   0.00000  Uiso   1.00
C561   C     0.66346   0.83274   0.49977   0.00000  Uiso   1.00
C562   C     0.83653   0.83393   0.50024   0.00000  Uiso   1.00
Zn563  Zn    0.75000   0.83333   0.56093   0.00000  Uiso   1.00
Zn564  Zn    0.75000   0.83333   0.43907   0.00000  Uiso   1.00
N565   N     0.75000   0.83333   0.35788   0.00000  Uiso   1.00
N566   N     0.75000   0.83333   0.64212   0.00000  Uiso   1.00
C567   C     0.90706   0.87968   0.50197   0.00000  Uiso   1.00
C568   C     0.59294   0.78698   0.49817   0.00000  Uiso   1.00
C569   C     0.90620   0.78806   0.50137   0.00000  Uiso   1.00
C570   C     0.59379   0.87861   0.49864   0.00000  Uiso   1.00
C571   C     0.88414   0.83396   0.50101   0.00000  Uiso   1.00
C572   C     0.61586   0.83271   0.49900   0.00000  Uiso   1.00
C573   C     0.95277   0.78784   0.49822   0.00000  Uiso   1.00
C574   C     0.54723   0.87882   0.50194   0.00000  Uiso   1.00
C575   C     0.95368   0.87930   0.50367   0.00000  Uiso   1.00
C576   C     0.54632   0.78736   0.49654   0.00000  Uiso   1.00
C577   C     0.97656   0.83345   0.50051   0.00000  Uiso   1.00
C578   C     0.52344   0.83321   0.49968   0.00000  Uiso   1.00
C579   C     0.97604   0.74326   0.49098   0.00000  Uiso   1.00
C580   C     0.52395   0.92339   0.50929   0.00000  Uiso   1.00
C581   C     0.97801   0.92367   0.50992   0.00000  Uiso   1.00
C582   C     0.52199   0.74298   0.49037   0.00000  Uiso   1.00
C583   C     0.75014   0.68838   0.49999   0.00000  Uiso   1.00
C584   C     0.74987   0.97829   0.50001   0.00000  Uiso   1.00
H585   H     0.95906   0.70823   0.48443   0.00000  Uiso   1.00
H586   H     0.54094   0.95841   0.51593   0.00000  Uiso   1.00
H587   H     0.96190   0.95900   0.51646   0.00000  Uiso   1.00
H588   H     0.53810   0.70764   0.48390   0.00000  Uiso   1.00
C589   C     0.88247   0.92771   0.49997   0.00000  Uiso   1.00
H590   H     0.89365   0.95727   0.47299   0.00000  Uiso   1.00
O591   O     0.85052   0.93510   0.52951   0.00000  Uiso   1.00
C592   C     0.61754   0.73897   0.50020   0.00000  Uiso   1.00
H593   H     0.60639   0.70943   0.52725   0.00000  Uiso   1.00
O594   O     0.64946   0.73155   0.47062   0.00000  Uiso   1.00
C595   C     0.87990   0.74109   0.50640   0.00000  Uiso   1.00
H596   H     0.84949   0.73593   0.48270   0.00000  Uiso   1.00
O597   O     0.89085   0.70910   0.53934   0.00000  Uiso   1.00
C598   C     0.62008   0.92558   0.49340   0.00000  Uiso   1.00
H599   H     0.65075   0.93064   0.51665   0.00000  Uiso   1.00
O600   O     0.60882   0.95772   0.46078   0.00000  Uiso   1.00
O601   O     0.25000   0.09512   0.87895   0.00000  Uiso   1.00
O602   O     0.25000   0.23822   0.78772   0.00000  Uiso   1.00
O603   O     0.25000   0.23822   0.87895   0.00000  Uiso   1.00
O604   O     0.25000   0.09512   0.78772   0.00000  Uiso   1.00
C605   C     0.25034   0.07267   0.83333   0.00000  Uiso   1.00
C606   C     0.24967   0.26067   0.83334   0.00000  Uiso   1.00
O607   O     0.18392   0.16667   0.87896   0.00000  Uiso   1.00
O608   O     0.31607   0.16667   0.78770   0.00000  Uiso   1.00
O609   O     0.31607   0.16667   0.87896   0.00000  Uiso   1.00
O610   O     0.18392   0.16667   0.78770   0.00000  Uiso   1.00
C611   C     0.16346   0.16607   0.83310   0.00000  Uiso   1.00
C612   C     0.33653   0.16727   0.83357   0.00000  Uiso   1.00
Zn613  Zn    0.25000   0.16667   0.89426   0.00000  Uiso   1.00
Zn614  Zn    0.25000   0.16667   0.77241   0.00000  Uiso   1.00
N615   N     0.25000   0.16667   0.69121   0.00000  Uiso   1.00
N616   N     0.25000   0.16667   0.97545   0.00000  Uiso   1.00
C617   C     0.40706   0.21302   0.83530   0.00000  Uiso   1.00
C618   C     0.09294   0.12032   0.83151   0.00000  Uiso   1.00
C619   C     0.40620   0.12140   0.83470   0.00000  Uiso   1.00
C620   C     0.09379   0.21194   0.83197   0.00000  Uiso   1.00
C621   C     0.38414   0.16729   0.83435   0.00000  Uiso   1.00
C622   C     0.11586   0.16605   0.83234   0.00000  Uiso   1.00
C623   C     0.45277   0.12117   0.83155   0.00000  Uiso   1.00
C624   C     0.04723   0.21215   0.83527   0.00000  Uiso   1.00
C625   C     0.45368   0.21264   0.83700   0.00000  Uiso   1.00
C626   C     0.04632   0.12069   0.82987   0.00000  Uiso   1.00
C627   C     0.47656   0.16678   0.83384   0.00000  Uiso   1.00
C628   C     0.02344   0.16654   0.83301   0.00000  Uiso   1.00
C629   C     0.47604   0.07659   0.82432   0.00000  Uiso   1.00
C630   C     0.02395   0.25672   0.84263   0.00000  Uiso   1.00
C631   C     0.47801   0.25700   0.84325   0.00000  Uiso   1.00
C632   C     0.02199   0.07631   0.82371   0.00000  Uiso   1.00
C633   C     0.25014   0.02171   0.83332   0.00000  Uiso   1.00
C634   C     0.24987   0.31162   0.83334   0.00000  Uiso   1.00
H635   H     0.45906   0.04156   0.81776   0.00000  Uiso   1.00
H636   H     0.04094   0.29174   0.84926   0.00000  Uiso   1.00
H637   H     0.46190   0.29233   0.84979   0.00000  Uiso   1.00
H638   H     0.03810   0.04097   0.81724   0.00000  Uiso   1.00
C639   C     0.38247   0.26104   0.83331   0.00000  Uiso   1.00
H640   H     0.39365   0.29061   0.80632   0.00000  Uiso   1.00
O641   O     0.35052   0.26843   0.86284   0.00000  Uiso   1.00
C642   C     0.11754   0.07230   0.83353   0.00000  Uiso   1.00
H643   H     0.10639   0.04277   0.86058   0.00000  Uiso   1.00
O644   O     0.14946   0.06488   0.80395   0.00000  Uiso   1.00
C645   C     0.37990   0.07443   0.83974   0.00000  Uiso   1.00
H646   H     0.34949   0.06926   0.81603   0.00000  Uiso   1.00
O647   O     0.39085   0.04243   0.87267   0.00000  Uiso   1.00
C648   C     0.12008   0.25891   0.82673   0.00000  Uiso   1.00
H649   H     0.15075   0.26397   0.84998   0.00000  Uiso   1.00
O650   O     0.10882   0.29105   0.79411   0.00000  Uiso   1.00
O651   O     0.75000   0.09512   0.87895   0.00000  Uiso   1.00
O652   O     0.75000   0.23822   0.78772   0.00000  Uiso   1.00
O653   O     0.75000   0.23822   0.87895   0.00000  Uiso   1.00
O654   O     0.75000   0.09512   0.78772   0.00000  Uiso   1.00
C655   C     0.75034   0.07267   0.83333   0.00000  Uiso   1.00
C656   C     0.74967   0.26067   0.83334   0.00000  Uiso   1.00
O657   O     0.68392   0.16667   0.87896   0.00000  Uiso   1.00
O658   O     0.81607   0.16667   0.78770   0.00000  Uiso   1.00
O659   O     0.81607   0.16667   0.87896   0.00000  Uiso   1.00
O660   O     0.68392   0.16667   0.78770   0.00000  Uiso   1.00
C661   C     0.66346   0.16607   0.83310   0.00000  Uiso   1.00
C662   C     0.83653   0.16727   0.83357   0.00000  Uiso   1.00
Zn663  Zn    0.75000   0.16667   0.89426   0.00000  Uiso   1.00
Zn664  Zn    0.75000   0.16667   0.77241   0.00000  Uiso   1.00
N665   N     0.75000   0.16667   0.69121   0.00000  Uiso   1.00
N666   N     0.75000   0.16667   0.97545   0.00000  Uiso   1.00
C667   C     0.90706   0.21302   0.83530   0.00000  Uiso   1.00
C668   C     0.59294   0.12032   0.83151   0.00000  Uiso   1.00
C669   C     0.90620   0.12140   0.83470   0.00000  Uiso   1.00
C670   C     0.59379   0.21194   0.83197   0.00000  Uiso   1.00
C671   C     0.88414   0.16729   0.83435   0.00000  Uiso   1.00
C672   C     0.61586   0.16605   0.83234   0.00000  Uiso   1.00
C673   C     0.95277   0.12117   0.83155   0.00000  Uiso   1.00
C674   C     0.54723   0.21215   0.83527   0.00000  Uiso   1.00
C675   C     0.95368   0.21264   0.83700   0.00000  Uiso   1.00
C676   C     0.54632   0.12069   0.82987   0.00000  Uiso   1.00
C677   C     0.97656   0.16678   0.83384   0.00000  Uiso   1.00
C678   C     0.52344   0.16654   0.83301   0.00000  Uiso   1.00
C679   C     0.97604   0.07659   0.82432   0.00000  Uiso   1.00
C680   C     0.52395   0.25672   0.84263   0.00000  Uiso   1.00
C681   C     0.97801   0.25700   0.84325   0.00000  Uiso   1.00
C682   C     0.52199   0.07631   0.82371   0.00000  Uiso   1.00
C683   C     0.75014   0.02171   0.83332   0.00000  Uiso   1.00
C684   C     0.74987   0.31162   0.83334   0.00000  Uiso   1.00
H685   H     0.95906   0.04156   0.81776   0.00000  Uiso   1.00
H686   H     0.54094   0.29174   0.84926   0.00000  Uiso   1.00
H687   H     0.96190   0.29233   0.84979   0.00000  Uiso   1.00
H688   H     0.53810   0.04097   0.81724   0.00000  Uiso   1.00
C689   C     0.88247   0.26104   0.83331   0.00000  Uiso   1.00
H690   H     0.89365   0.29061   0.80632   0.00000  Uiso   1.00
O691   O     0.85052   0.26843   0.86284   0.00000  Uiso   1.00
C692   C     0.61754   0.07230   0.83353   0.00000  Uiso   1.00
H693   H     0.60639   0.04277   0.86058   0.00000  Uiso   1.00
O694   O     0.64946   0.06488   0.80395   0.00000  Uiso   1.00
C695   C     0.87990   0.07443   0.83974   0.00000  Uiso   1.00
H696   H     0.84949   0.06926   0.81603   0.00000  Uiso   1.00
O697   O     0.89085   0.04243   0.87267   0.00000  Uiso   1.00
C698   C     0.62008   0.25891   0.82673   0.00000  Uiso   1.00
H699   H     0.65075   0.26397   0.84998   0.00000  Uiso   1.00
O700   O     0.60882   0.29105   0.79411   0.00000  Uiso   1.00
O701   O     0.25000   0.42845   0.87895   0.00000  Uiso   1.00
O702   O     0.25000   0.57155   0.78772   0.00000  Uiso   1.00
O703   O     0.25000   0.57155   0.87895   0.00000  Uiso   1.00
O704   O     0.25000   0.42845   0.78772   0.00000  Uiso   1.00
C705   C     0.25034   0.40600   0.83333   0.00000  Uiso   1.00
C706   C     0.24967   0.59400   0.83334   0.00000  Uiso   1.00
O707   O     0.18392   0.50000   0.87896   0.00000  Uiso   1.00
O708   O     0.31607   0.50000   0.78770   0.00000  Uiso   1.00
O709   O     0.31607   0.50000   0.87896   0.00000  Uiso   1.00
O710   O     0.18392   0.50000   0.78770   0.00000  Uiso   1.00
C711   C     0.16346   0.49940   0.83310   0.00000  Uiso   1.00
C712   C     0.33653   0.50060   0.83357   0.00000  Uiso   1.00
Zn713  Zn    0.25000   0.50000   0.89426   0.00000  Uiso   1.00
Zn714  Zn    0.25000   0.50000   0.77241   0.00000  Uiso   1.00
N715   N     0.25000   0.50000   0.69121   0.00000  Uiso   1.00
N716   N     0.25000   0.50000   0.97545   0.00000  Uiso   1.00
C717   C     0.40706   0.54635   0.83530   0.00000  Uiso   1.00
C718   C     0.09294   0.45365   0.83151   0.00000  Uiso   1.00
C719   C     0.40620   0.45473   0.83470   0.00000  Uiso   1.00
C720   C     0.09379   0.54528   0.83197   0.00000  Uiso   1.00
C721   C     0.38414   0.50063   0.83435   0.00000  Uiso   1.00
C722   C     0.11586   0.49938   0.83234   0.00000  Uiso   1.00
C723   C     0.45277   0.45451   0.83155   0.00000  Uiso   1.00
C724   C     0.04723   0.54549   0.83527   0.00000  Uiso   1.00
C725   C     0.45368   0.54597   0.83700   0.00000  Uiso   1.00
C726   C     0.04632   0.45402   0.82987   0.00000  Uiso   1.00
C727   C     0.47656   0.50012   0.83384   0.00000  Uiso   1.00
C728   C     0.02344   0.49988   0.83301   0.00000  Uiso   1.00
C729   C     0.47604   0.40992   0.82432   0.00000  Uiso   1.00
C730   C     0.02395   0.59006   0.84263   0.00000  Uiso   1.00
C731   C     0.47801   0.59034   0.84325   0.00000  Uiso   1.00
C732   C     0.02199   0.40964   0.82371   0.00000  Uiso   1.00
C733   C     0.25014   0.35505   0.83332   0.00000  Uiso   1.00
C734   C     0.24987   0.64495   0.83334   0.00000  Uiso   1.00
H735   H     0.45906   0.37489   0.81776   0.00000  Uiso   1.00
H736   H     0.04094   0.62508   0.84926   0.00000  Uiso   1.00
H737   H     0.46190   0.62567   0.84979   0.00000  Uiso   1.00
H738   H     0.03810   0.37430   0.81724   0.00000  Uiso   1.00
C739   C     0.38247   0.59438   0.83331   0.00000  Uiso   1.00
H740   H     0.39365   0.62394   0.80632   0.00000  Uiso   1.00
O741   O     0.35052   0.60176   0.86284   0.00000  Uiso   1.00
C742   C     0.11754   0.40563   0.83353   0.00000  Uiso   1.00
H743   H     0.10639   0.37610   0.86058   0.00000  Uiso   1.00
O744   O     0.14946   0.39821   0.80395   0.00000  Uiso   1.00
C745   C     0.37990   0.40776   0.83974   0.00000  Uiso   1.00
H746   H     0.34949   0.40259   0.81603   0.00000  Uiso   1.00
O747   O     0.39085   0.37577   0.87267   0.00000  Uiso   1.00
C748   C     0.12008   0.59225   0.82673   0.00000  Uiso   1.00
H749   H     0.15075   0.59730   0.84998   0.00000  Uiso   1.00
O750   O     0.10882   0.62438   0.79411   0.00000  Uiso   1.00
O751   O     0.75000   0.42845   0.87895   0.00000  Uiso   1.00
O752   O     0.75000   0.57155   0.78772   0.00000  Uiso   1.00
O753   O     0.75000   0.57155   0.87895   0.00000  Uiso   1.00
O754   O     0.75000   0.42845   0.78772   0.00000  Uiso   1.00
C755   C     0.75034   0.40600   0.83333   0.00000  Uiso   1.00
C756   C     0.74967   0.59400   0.83334   0.00000  Uiso   1.00
O757   O     0.68392   0.50000   0.87896   0.00000  Uiso   1.00
O758   O     0.81607   0.50000   0.78770   0.00000  Uiso   1.00
O759   O     0.81607   0.50000   0.87896   0.00000  Uiso   1.00
O760   O     0.68392   0.50000   0.78770   0.00000  Uiso   1.00
C761   C     0.66346   0.49940   0.83310   0.00000  Uiso   1.00
C762   C     0.83653   0.50060   0.83357   0.00000  Uiso   1.00
Zn763  Zn    0.75000   0.50000   0.89426   0.00000  Uiso   1.00
Zn764  Zn    0.75000   0.50000   0.77241   0.00000  Uiso   1.00
N765   N     0.75000   0.50000   0.69121   0.00000  Uiso   1.00
N766   N     0.75000   0.50000   0.97545   0.00000  Uiso   1.00
C767   C     0.90706   0.54635   0.83530   0.00000  Uiso   1.00
C768   C     0.59294   0.45365   0.83151   0.00000  Uiso   1.00
C769   C     0.90620   0.45473   0.83470   0.00000  Uiso   1.00
C770   C     0.59379   0.54528   0.83197   0.00000  Uiso   1.00
C771   C     0.88414   0.50063   0.83435   0.00000  Uiso   1.00
C772   C     0.61586   0.49938   0.83234   0.00000  Uiso   1.00
C773   C     0.95277   0.45451   0.83155   0.00000  Uiso   1.00
C774   C     0.54723   0.54549   0.83527   0.00000  Uiso   1.00
C775   C     0.95368   0.54597   0.83700   0.00000  Uiso   1.00
C776   C     0.54632   0.45402   0.82987   0.00000  Uiso   1.00
C777   C     0.97656   0.50012   0.83384   0.00000  Uiso   1.00
C778   C     0.52344   0.49988   0.83301   0.00000  Uiso   1.00
C779   C     0.97604   0.40992   0.82432   0.00000  Uiso   1.00
C780   C     0.52395   0.59006   0.84263   0.00000  Uiso   1.00
C781   C     0.97801   0.59034   0.84325   0.00000  Uiso   1.00
C782   C     0.52199   0.40964   0.82371   0.00000  Uiso   1.00
C783   C     0.75014   0.35505   0.83332   0.00000  Uiso   1.00
C784   C     0.74987   0.64495   0.83334   0.00000  Uiso   1.00
H785   H     0.95906   0.37489   0.81776   0.00000  Uiso   1.00
H786   H     0.54094   0.62508   0.84926   0.00000  Uiso   1.00
H787   H     0.96190   0.62567   0.84979   0.00000  Uiso   1.00
H788   H     0.53810   0.37430   0.81724   0.00000  Uiso   1.00
C789   C     0.88247   0.59438   0.83331   0.00000  Uiso   1.00
H790   H     0.89365   0.62394   0.80632   0.00000  Uiso   1.00
O791   O     0.85052   0.60176   0.86284   0.00000  Uiso   1.00
C792   C     0.61754   0.40563   0.83353   0.00000  Uiso   1.00
H793   H     0.60639   0.37610   0.86058   0.00000  Uiso   1.00
O794   O     0.64946   0.39821   0.80395   0.00000  Uiso   1.00
C795   C     0.87990   0.40776   0.83974   0.00000  Uiso   1.00
H796   H     0.84949   0.40259   0.81603   0.00000  Uiso   1.00
O797   O     0.89085   0.37577   0.87267   0.00000  Uiso   1.00
C798   C     0.62008   0.59225   0.82673   0.00000  Uiso   1.00
H799   H     0.65075   0.59730   0.84998   0.00000  Uiso   1.00
O800   O     0.60882   0.62438   0.79411   0.00000  Uiso   1.00
O801   O     0.25000   0.76178   0.87895   0.00000  Uiso   1.00
O802   O     0.25000   0.90488   0.78772   0.00000  Uiso   1.00
O803   O     0.25000   0.90488   0.87895   0.00000  Uiso   1.00
O804   O     0.25000   0.76178   0.78772   0.00000  Uiso   1.00
C805   C     0.25034   0.73933   0.83333   0.00000  Uiso   1.00
C806   C     0.24967   0.92733   0.83334   0.00000  Uiso   1.00
O807   O     0.18392   0.83333   0.87896   0.00000  Uiso   1.00
O808   O     0.31607   0.83333   0.78770   0.00000  Uiso   1.00
O809   O     0.31607   0.83333   0.87896   0.00000  Uiso   1.00
O810   O     0.18392   0.83333   0.78770   0.00000  Uiso   1.00
C811   C     0.16346   0.83274   0.83310   0.00000  Uiso   1.00
C812   C     0.33653   0.83393   0.83357   0.00000  Uiso   1.00
Zn813  Zn    0.25000   0.83333   0.89426   0.00000  Uiso   1.00
Zn814  Zn    0.25000   0.83333   0.77241   0.00000  Uiso   1.00
N815   N     0.25000   0.83333   0.69121   0.00000  Uiso   1.00
N816   N     0.25000   0.83333   0.97545   0.00000  Uiso   1.00
C817   C     0.40706   0.87968   0.83530   0.00000  Uiso   1.00
C818   C     0.09294   0.78698   0.83151   0.00000  Uiso   1.00
C819   C     0.40620   0.78806   0.83470   0.00000  Uiso   1.00
C820   C     0.09379   0.87861   0.83197   0.00000  Uiso   1.00
C821   C     0.38414   0.83396   0.83435   0.00000  Uiso   1.00
C822   C     0.11586   0.83271   0.83234   0.00000  Uiso   1.00
C823   C     0.45277   0.78784   0.83155   0.00000  Uiso   1.00
C824   C     0.04723   0.87882   0.83527   0.00000  Uiso   1.00
C825   C     0.45368   0.87930   0.83700   0.00000  Uiso   1.00
C826   C     0.04632   0.78736   0.82987   0.00000  Uiso   1.00
C827   C     0.47656   0.83345   0.83384   0.00000  Uiso   1.00
C828   C     0.02344   0.83321   0.83301   0.00000  Uiso   1.00
C829   C     0.47604   0.74326   0.82432   0.00000  Uiso   1.00
C830   C     0.02395   0.92339   0.84263   0.00000  Uiso   1.00
C831   C     0.47801   0.92367   0.84325   0.00000  Uiso   1.00
C832   C     0.02199   0.74298   0.82371   0.00000  Uiso   1.00
C833   C     0.25014   0.68838   0.83332   0.00000  Uiso   1.00
C834   C     0.24987   0.97829   0.83334   0.00000  Uiso   1.00
H835   H     0.45906   0.70823   0.81776   0.00000  Uiso   1.00
H836   H     0.04094   0.95841   0.84926   0.00000  Uiso   1.00
H837   H     0.46190   0.95900   0.84979   0.00000  Uiso   1.00
H838   H     0.03810   0.70764   0.81724   0.00000  Uiso   1.00
C839   C     0.38247   0.92771   0.83331   0.00000  Uiso   1.00
H840   H     0.39365   0.95727   0.80632   0.00000  Uiso   1.00
O841   O     0.35052   0.93510   0.86284   0.00000  Uiso   1.00
C842   C     0.11754   0.73897   0.83353   0.00000  Uiso   1.00
H843   H     0.10639   0.70943   0.86058   0.00000  Uiso   1.00
O844   O     0.14946   0.73155   0.80395   0.00000  Uiso   1.00
C845   C     0.37990   0.74109   0.83974   0.00000  Uiso   1.00
H846   H     0.34949   0.73593   0.81603   0.00000  Uiso   1.00
O847   O     0.39085   0.70910   0.87267   0.00000  Uiso   1.00
C848   C     0.12008   0.92558   0.82673   0.00000  Uiso   1.00
H849   H     0.15075   0.93064   0.84998   0.00000  Uiso   1.00
O850   O     0.10882   0.95772   0.79411   0.00000  Uiso   1.00
O851   O     0.75000   0.76178   0.87895   0.00000  Uiso   1.00
O852   O     0.75000   0.90488   0.78772   0.00000  Uiso   1.00
O853   O     0.75000   0.90488   0.87895   0.00000  Uiso   1.00
O854   O     0.75000   0.76178   0.78772   0.00000  Uiso   1.00
C855   C     0.75034   0.73933   0.83333   0.00000  Uiso   1.00
C856   C     0.74967   0.92733   0.83334   0.00000  Uiso   1.00
O857   O     0.68392   0.83333   0.87896   0.00000  Uiso   1.00
O858   O     0.81607   0.83333   0.78770   0.00000  Uiso   1.00
O859   O     0.81607   0.83333   0.87896   0.00000  Uiso   1.00
O860   O     0.68392   0.83333   0.78770   0.00000  Uiso   1.00
C861   C     0.66346   0.83274   0.83310   0.00000  Uiso   1.00
C862   C     0.83653   0.83393   0.83357   0.00000  Uiso   1.00
Zn863  Zn    0.75000   0.83333   0.89426   0.00000  Uiso   1.00
Zn864  Zn    0.75000   0.83333   0.77241   0.00000  Uiso   1.00
N865   N     0.75000   0.83333   0.69121   0.00000  Uiso   1.00
N866   N     0.75000   0.83333   0.97545   0.00000  Uiso   1.00
C867   C     0.90706   0.87968   0.83530   0.00000  Uiso   1.00
C868   C     0.59294   0.78698   0.83151   0.00000  Uiso   1.00
C869   C     0.90620   0.78806   0.83470   0.00000  Uiso   1.00
C870   C     0.59379   0.87861   0.83197   0.00000  Uiso   1.00
C871   C     0.88414   0.83396   0.83435   0.00000  Uiso   1.00
C872   C     0.61586   0.83271   0.83234   0.00000  Uiso   1.00
C873   C     0.95277   0.78784   0.83155   0.00000  Uiso   1.00
C874   C     0.54723   0.87882   0.83527   0.00000  Uiso   1.00
C875   C     0.95368   0.87930   0.83700   0.00000  Uiso   1.00
C876   C     0.54632   0.78736   0.82987   0.00000  Uiso   1.00
C877   C     0.97656   0.83345   0.83384   0.00000  Uiso   1.00
C878   C     0.52344   0.83321   0.83301   0.00000  Uiso   1.00
C879   C     0.97604   0.74326   0.82432   0.00000  Uiso   1.00
C880   C     0.52395   0.92339   0.84263   0.00000  Uiso   1.00
C881   C     0.97801   0.92367   0.84325   0.00000  Uiso   1.00
C882   C     0.52199   0.74298   0.82371   0.00000  Uiso   1.00
C883   C     0.75014   0.68838   0.83332   0.00000  Uiso   1.00
C884   C     0.74987   0.97829   0.83334   0.00000  Uiso   1.00
H885   H     0.95906   0.70823   0.81776   0.00000  Uiso   1.00
H886   H     0.54094   0.95841   0.84926   0.00000  Uiso   1.00
H887   H     0.96190   0.95900   0.84979   0.00000  Uiso   1.00
H888   H     0.53810   0.70764   0.81724   0.00000  Uiso   1.00
C889   C     0.88247   0.92771   0.83331   0.00000  Uiso   1.00
H890   H     0.89365   0.95727   0.80632   0.00000  Uiso   1.00
O891   O     0.85052   0.93510   0.86284   0.00000  Uiso   1.00
C892   C     0.61754   0.73897   0.83353   0.00000  Uiso   1.00
H893   H     0.60639   0.70943   0.86058   0.00000  Uiso   1.00
O894   O     0.64946   0.73155   0.80395   0.00000  Uiso   1.00
C895   C     0.87990   0.74109   0.83974   0.00000  Uiso   1.00
H896   H     0.84949   0.73593   0.81603   0.00000  Uiso   1.00
O897   O     0.89085   0.70910   0.87267   0.00000  Uiso   1.00
C898   C     0.62008   0.92558   0.82673   0.00000  Uiso   1.00
H899   H     0.65075   0.93064   0.84998   0.00000  Uiso   1.00
O900   O     0.60882   0.95772   0.79411   0.00000  Uiso   1.00
loop_
_geom_bond_atom_site_label_1
_geom_bond_atom_site_label_2
_geom_bond_distance
_geom_bond_site_symmetry_2
_ccdc_geom_bond_type
O1     C5      1.264   .     A
O1     Zn13    1.958   .     S
O2     C6      1.264   .     A
O2     Zn14    1.958   .     S
O3     Zn13    1.959   .     S
O3     C6      1.264   .     A
O4     Zn14    1.959   .     S
O4     C5      1.264   .     A
C5     C33     1.369   .     S
C6     C34     1.369   .     S
O7     C11     1.271   .     A
O7     Zn13    2.015   .     S
O8     C12     1.271   .     A
O8     Zn14    2.015   .     S
O9     C12     1.269   .     A
O9     Zn13    2.021   .     S
O10    C11     1.269   .     A
O10    Zn14    2.021   .     S
C11    C22     1.429   .     S
C12    C21     1.429   .     S
Zn13   N16     1.977   .     S
Zn14   N15     1.977   .     S
N15    N616    1.196   1_554 S
N16    N315    1.196   .     S
C17    C25     1.400   .     A
C17    C39     1.491   .     S
C17    C21     1.405   .     A
C18    C26     1.400   .     A
C18    C42     1.491   .     S
C18    C22     1.405   .     A
C19    C23     1.401   .     A
C19    C45     1.491   .     S
C19    C21     1.403   .     A
C20    C48     1.491   .     S
C20    C22     1.403   .     A
C20    C24     1.401   .     A
C23    C29     1.401   .     A
C23    C27     1.416   .     A
C24    C30     1.402   .     A
C24    C28     1.416   .     A
C25    C31     1.403   .     A
C25    C27     1.416   .     A
C26    C32     1.403   .     A
C26    C28     1.416   .     A
C27    C78     1.408   .     S
C28    C77     1.408   1_455 S
C29    H35     1.080   .     S
C29    C82     1.380   .     S
C30    H36     1.080   .     S
C30    C81     1.380   1_455 S
C31    H37     1.080   .     S
C31    C80     1.380   .     S
C32    H38     1.080   .     S
C32    C79     1.380   1_455 S
C33    C234    1.167   1_545 S
C34    C133    1.167   .     S
C39    O41     1.220   .     D
C39    H40     1.085   .     S
C42    O44     1.220   .     D
C42    H43     1.085   .     S
C45    H46     1.085   .     S
C45    O47     1.221   .     D
C48    O50     1.221   .     D
C48    H49     1.085   .     S
O51    C55     1.264   .     A
O51    Zn63    1.958   .     S
O52    C56     1.264   .     A
O52    Zn64    1.958   .     S
O53    Zn63    1.959   .     S
O53    C56     1.264   .     A
O54    Zn64    1.959   .     S
O54    C55     1.264   .     A
C55    C83     1.369   .     S
C56    C84     1.369   .     S
O57    C61     1.271   .     A
O57    Zn63    2.015   .     S
O58    C62     1.271   .     A
O58    Zn64    2.015   .     S
O59    C62     1.269   .     A
O59    Zn63    2.021   .     S
O60    C61     1.269   .     A
O60    Zn64    2.021   .     S
C61    C72     1.429   .     S
C62    C71     1.429   .     S
Zn63   N66     1.977   .     S
Zn64   N65     1.977   .     S
N65    N666    1.196   1_554 S
N66    N365    1.196   .     S
C67    C75     1.400   .     A
C67    C89     1.491   .     S
C67    C71     1.405   .     A
C68    C76     1.400   .     A
C68    C92     1.491   .     S
C68    C72     1.405   .     A
C69    C73     1.401   .     A
C69    C95     1.491   .     S
C69    C71     1.403   .     A
C70    C98     1.491   .     S
C70    C72     1.403   .     A
C70    C74     1.401   .     A
C73    C79     1.401   .     A
C73    C77     1.416   .     A
C74    C80     1.402   .     A
C74    C78     1.416   .     A
C75    C81     1.403   .     A
C75    C77     1.416   .     A
C76    C82     1.403   .     A
C76    C78     1.416   .     A
C77    C28     1.408   1_655 S
C79    H85     1.080   .     S
C79    C32     1.380   1_655 S
C80    H86     1.080   .     S
C81    H87     1.080   .     S
C81    C30     1.380   1_655 S
C82    H88     1.080   .     S
C83    C284    1.167   1_545 S
C84    C183    1.167   .     S
C89    O91     1.220   .     D
C89    H90     1.085   .     S
C92    O94     1.220   .     D
C92    H93     1.085   .     S
C95    H96     1.085   .     S
C95    O97     1.221   .     D
C98    O100    1.221   .     D
C98    H99     1.085   .     S
O101   C105    1.264   .     A
O101   Zn113   1.958   .     S
O102   C106    1.264   .     A
O102   Zn114   1.958   .     S
O103   Zn113   1.959   .     S
O103   C106    1.264   .     A
O104   Zn114   1.959   .     S
O104   C105    1.264   .     A
C105   C133    1.369   .     S
C106   C134    1.369   .     S
O107   C111    1.271   .     A
O107   Zn113   2.015   .     S
O108   C112    1.271   .     A
O108   Zn114   2.015   .     S
O109   C112    1.269   .     A
O109   Zn113   2.021   .     S
O110   C111    1.269   .     A
O110   Zn114   2.021   .     S
C111   C122    1.429   .     S
C112   C121    1.429   .     S
Zn113  N116    1.977   .     S
Zn114  N115    1.977   .     S
N115   N716    1.196   1_554 S
N116   N415    1.196   .     S
C117   C125    1.400   .     A
C117   C139    1.491   .     S
C117   C121    1.405   .     A
C118   C126    1.400   .     A
C118   C142    1.491   .     S
C118   C122    1.405   .     A
C119   C123    1.401   .     A
C119   C145    1.491   .     S
C119   C121    1.403   .     A
C120   C148    1.491   .     S
C120   C122    1.403   .     A
C120   C124    1.401   .     A
C123   C129    1.401   .     A
C123   C127    1.416   .     A
C124   C130    1.402   .     A
C124   C128    1.416   .     A
C125   C131    1.403   .     A
C125   C127    1.416   .     A
C126   C132    1.403   .     A
C126   C128    1.416   .     A
C127   C178    1.408   .     S
C128   C177    1.408   1_455 S
C129   H135    1.080   .     S
C129   C182    1.380   .     S
C130   H136    1.080   .     S
C130   C181    1.380   1_455 S
C131   H137    1.080   .     S
C131   C180    1.380   .     S
C132   H138    1.080   .     S
C132   C179    1.380   1_455 S
C134   C233    1.167   .     S
C139   O141    1.220   .     D
C139   H140    1.085   .     S
C142   O144    1.220   .     D
C142   H143    1.085   .     S
C145   H146    1.085   .     S
C145   O147    1.221   .     D
C148   O150    1.221   .     D
C148   H149    1.085   .     S
O151   C155    1.264   .     A
O151   Zn163   1.958   .     S
O152   C156    1.264   .     A
O152   Zn164   1.958   .     S
O153   Zn163   1.959   .     S
O153   C156    1.264   .     A
O154   Zn164   1.959   .     S
O154   C155    1.264   .     A
C155   C183    1.369   .     S
C156   C184    1.369   .     S
O157   C161    1.271   .     A
O157   Zn163   2.015   .     S
O158   C162    1.271   .     A
O158   Zn164   2.015   .     S
O159   C162    1.269   .     A
O159   Zn163   2.021   .     S
O160   C161    1.269   .     A
O160   Zn164   2.021   .     S
C161   C172    1.429   .     S
C162   C171    1.429   .     S
Zn163  N166    1.977   .     S
Zn164  N165    1.977   .     S
N165   N766    1.196   1_554 S
N166   N465    1.196   .     S
C167   C175    1.400   .     A
C167   C189    1.491   .     S
C167   C171    1.405   .     A
C168   C176    1.400   .     A
C168   C192    1.491   .     S
C168   C172    1.405   .     A
C169   C173    1.401   .     A
C169   C195    1.491   .     S
C169   C171    1.403   .     A
C170   C198    1.491   .     S
C170   C172    1.403   .     A
C170   C174    1.401   .     A
C173   C179    1.401   .     A
C173   C177    1.416   .     A
C174   C180    1.402   .     A
C174   C178    1.416   .     A
C175   C181    1.403   .     A
C175   C177    1.416   .     A
C176   C182    1.403   .     A
C176   C178    1.416   .     A
C177   C128    1.408   1_655 S
C179   H185    1.080   .     S
C179   C132    1.380   1_655 S
C180   H186    1.080   .     S
C181   H187    1.080   .     S
C181   C130    1.380   1_655 S
C182   H188    1.080   .     S
C184   C283    1.167   .     S
C189   O191    1.220   .     D
C189   H190    1.085   .     S
C192   O194    1.220   .     D
C192   H193    1.085   .     S
C195   H196    1.085   .     S
C195   O197    1.221   .     D
C198   O200    1.221   .     D
C198   H199    1.085   .     S
O201   C205    1.264   .     A
O201   Zn213   1.958   .     S
O202   C206    1.264   .     A
O202   Zn214   1.958   .     S
O203   Zn213   1.959   .     S
O203   C206    1.264   .     A
O204   Zn214   1.959   .     S
O204   C205    1.264   .     A
C205   C233    1.369   .     S
C206   C234    1.369   .     S
O207   C211    1.271   .     A
O207   Zn213   2.015   .     S
O208   C212    1.271   .     A
O208   Zn214   2.015   .     S
O209   C212    1.269   .     A
O209   Zn213   2.021   .     S
O210   C211    1.269   .     A
O210   Zn214   2.021   .     S
C211   C222    1.429   .     S
C212   C221    1.429   .     S
Zn213  N216    1.977   .     S
Zn214  N215    1.977   .     S
N215   N816    1.196   1_554 S
N216   N515    1.196   .     S
C217   C225    1.400   .     A
C217   C239    1.491   .     S
C217   C221    1.405   .     A
C218   C226    1.400   .     A
C218   C242    1.491   .     S
C218   C222    1.405   .     A
C219   C223    1.401   .     A
C219   C245    1.491   .     S
C219   C221    1.403   .     A
C220   C248    1.491   .     S
C220   C222    1.403   .     A
C220   C224    1.401   .     A
C223   C229    1.401   .     A
C223   C227    1.416   .     A
C224   C230    1.402   .     A
C224   C228    1.416   .     A
C225   C231    1.403   .     A
C225   C227    1.416   .     A
C226   C232    1.403   .     A
C226   C228    1.416   .     A
C227   C278    1.408   .     S
C228   C277    1.408   1_455 S
C229   H235    1.080   .     S
C229   C282    1.380   .     S
C230   H236    1.080   .     S
C230   C281    1.380   1_455 S
C231   H237    1.080   .     S
C231   C280    1.380   .     S
C232   H238    1.080   .     S
C232   C279    1.380   1_455 S
C234   C33     1.167   1_565 S
C239   O241    1.220   .     D
C239   H240    1.085   .     S
C242   O244    1.220   .     D
C242   H243    1.085   .     S
C245   H246    1.085   .     S
C245   O247    1.221   .     D
C248   O250    1.221   .     D
C248   H249    1.085   .     S
O251   C255    1.264   .     A
O251   Zn263   1.958   .     S
O252   C256    1.264   .     A
O252   Zn264   1.958   .     S
O253   Zn263   1.959   .     S
O253   C256    1.264   .     A
O254   Zn264   1.959   .     S
O254   C255    1.264   .     A
C255   C283    1.369   .     S
C256   C284    1.369   .     S
O257   C261    1.271   .     A
O257   Zn263   2.015   .     S
O258   C262    1.271   .     A
O258   Zn264   2.015   .     S
O259   C262    1.269   .     A
O259   Zn263   2.021   .     S
O260   C261    1.269   .     A
O260   Zn264   2.021   .     S
C261   C272    1.429   .     S
C262   C271    1.429   .     S
Zn263  N266    1.977   .     S
Zn264  N265    1.977   .     S
N265   N866    1.196   1_554 S
N266   N565    1.196   .     S
C267   C275    1.400   .     A
C267   C289    1.491   .     S
C267   C271    1.405   .     A
C268   C276    1.400   .     A
C268   C292    1.491   .     S
C268   C272    1.405   .     A
C269   C273    1.401   .     A
C269   C295    1.491   .     S
C269   C271    1.403   .     A
C270   C298    1.491   .     S
C270   C272    1.403   .     A
C270   C274    1.401   .     A
C273   C279    1.401   .     A
C273   C277    1.416   .     A
C274   C280    1.402   .     A
C274   C278    1.416   .     A
C275   C281    1.403   .     A
C275   C277    1.416   .     A
C276   C282    1.403   .     A
C276   C278    1.416   .     A
C277   C228    1.408   1_655 S
C279   H285    1.080   .     S
C279   C232    1.380   1_655 S
C280   H286    1.080   .     S
C281   H287    1.080   .     S
C281   C230    1.380   1_655 S
C282   H288    1.080   .     S
C284   C83     1.167   1_565 S
C289   O291    1.220   .     D
C289   H290    1.085   .     S
C292   O294    1.220   .     D
C292   H293    1.085   .     S
C295   H296    1.085   .     S
C295   O297    1.221   .     D
C298   O300    1.221   .     D
C298   H299    1.085   .     S
O301   C305    1.264   .     A
O301   Zn313   1.958   .     S
O302   C306    1.264   .     A
O302   Zn314   1.958   .     S
O303   Zn313   1.959   .     S
O303   C306    1.264   .     A
O304   Zn314   1.959   .     S
O304   C305    1.264   .     A
C305   C333    1.369   .     S
C306   C334    1.369   .     S
O307   C311    1.271   .     A
O307   Zn313   2.015   .     S
O308   C312    1.271   .     A
O308   Zn314   2.015   .     S
O309   C312    1.269   .     A
O309   Zn313   2.021   .     S
O310   C311    1.269   .     A
O310   Zn314   2.021   .     S
C311   C322    1.429   .     S
C312   C321    1.429   .     S
Zn313  N316    1.977   .     S
Zn314  N315    1.977   .     S
N316   N615    1.196   .     S
C317   C325    1.400   .     A
C317   C339    1.491   .     S
C317   C321    1.405   .     A
C318   C326    1.400   .     A
C318   C342    1.491   .     S
C318   C322    1.405   .     A
C319   C323    1.401   .     A
C319   C345    1.491   .     S
C319   C321    1.403   .     A
C320   C348    1.491   .     S
C320   C322    1.403   .     A
C320   C324    1.401   .     A
C323   C329    1.401   .     A
C323   C327    1.416   .     A
C324   C330    1.402   .     A
C324   C328    1.416   .     A
C325   C331    1.403   .     A
C325   C327    1.416   .     A
C326   C332    1.403   .     A
C326   C328    1.416   .     A
C327   C378    1.408   .     S
C328   C377    1.408   1_455 S
C329   H335    1.080   .     S
C329   C382    1.380   .     S
C330   H336    1.080   .     S
C330   C381    1.380   1_455 S
C331   H337    1.080   .     S
C331   C380    1.380   .     S
C332   H338    1.080   .     S
C332   C379    1.380   1_455 S
C333   C534    1.167   1_545 S
C334   C433    1.167   .     S
C339   O341    1.220   .     D
C339   H340    1.085   .     S
C342   O344    1.220   .     D
C342   H343    1.085   .     S
C345   H346    1.085   .     S
C345   O347    1.221   .     D
C348   O350    1.221   .     D
C348   H349    1.085   .     S
O351   C355    1.264   .     A
O351   Zn363   1.958   .     S
O352   C356    1.264   .     A
O352   Zn364   1.958   .     S
O353   Zn363   1.959   .     S
O353   C356    1.264   .     A
O354   Zn364   1.959   .     S
O354   C355    1.264   .     A
C355   C383    1.369   .     S
C356   C384    1.369   .     S
O357   C361    1.271   .     A
O357   Zn363   2.015   .     S
O358   C362    1.271   .     A
O358   Zn364   2.015   .     S
O359   C362    1.269   .     A
O359   Zn363   2.021   .     S
O360   C361    1.269   .     A
O360   Zn364   2.021   .     S
C361   C372    1.429   .     S
C362   C371    1.429   .     S
Zn363  N366    1.977   .     S
Zn364  N365    1.977   .     S
N366   N665    1.196   .     S
C367   C375    1.400   .     A
C367   C389    1.491   .     S
C367   C371    1.405   .     A
C368   C376    1.400   .     A
C368   C392    1.491   .     S
C368   C372    1.405   .     A
C369   C373    1.401   .     A
C369   C395    1.491   .     S
C369   C371    1.403   .     A
C370   C398    1.491   .     S
C370   C372    1.403   .     A
C370   C374    1.401   .     A
C373   C379    1.401   .     A
C373   C377    1.416   .     A
C374   C380    1.402   .     A
C374   C378    1.416   .     A
C375   C381    1.403   .     A
C375   C377    1.416   .     A
C376   C382    1.403   .     A
C376   C378    1.416   .     A
C377   C328    1.408   1_655 S
C379   H385    1.080   .     S
C379   C332    1.380   1_655 S
C380   H386    1.080   .     S
C381   H387    1.080   .     S
C381   C330    1.380   1_655 S
C382   H388    1.080   .     S
C383   C584    1.167   1_545 S
C384   C483    1.167   .     S
C389   O391    1.220   .     D
C389   H390    1.085   .     S
C392   O394    1.220   .     D
C392   H393    1.085   .     S
C395   H396    1.085   .     S
C395   O397    1.221   .     D
C398   O400    1.221   .     D
C398   H399    1.085   .     S
O401   C405    1.264   .     A
O401   Zn413   1.958   .     S
O402   C406    1.264   .     A
O402   Zn414   1.958   .     S
O403   Zn413   1.959   .     S
O403   C406    1.264   .     A
O404   Zn414   1.959   .     S
O404   C405    1.264   .     A
C405   C433    1.369   .     S
C406   C434    1.369   .     S
O407   C411    1.271   .     A
O407   Zn413   2.015   .     S
O408   C412    1.271   .     A
O408   Zn414   2.015   .     S
O409   C412    1.269   .     A
O409   Zn413   2.021   .     S
O410   C411    1.269   .     A
O410   Zn414   2.021   .     S
C411   C422    1.429   .     S
C412   C421    1.429   .     S
Zn413  N416    1.977   .     S
Zn414  N415    1.977   .     S
N416   N715    1.196   .     S
C417   C425    1.400   .     A
C417   C439    1.491   .     S
C417   C421    1.405   .     A
C418   C426    1.400   .     A
C418   C442    1.491   .     S
C418   C422    1.405   .     A
C419   C423    1.401   .     A
C419   C445    1.491   .     S
C419   C421    1.403   .     A
C420   C448    1.491   .     S
C420   C422    1.403   .     A
C420   C424    1.401   .     A
C423   C429    1.401   .     A
C423   C427    1.416   .     A
C424   C430    1.402   .     A
C424   C428    1.416   .     A
C425   C431    1.403   .     A
C425   C427    1.416   .     A
C426   C432    1.403   .     A
C426   C428    1.416   .     A
C427   C478    1.408   .     S
C428   C477    1.408   1_455 S
C429   H435    1.080   .     S
C429   C482    1.380   .     S
C430   H436    1.080   .     S
C430   C481    1.380   1_455 S
C431   H437    1.080   .     S
C431   C480    1.380   .     S
C432   H438    1.080   .     S
C432   C479    1.380   1_455 S
C434   C533    1.167   .     S
C439   O441    1.220   .     D
C439   H440    1.085   .     S
C442   O444    1.220   .     D
C442   H443    1.085   .     S
C445   H446    1.085   .     S
C445   O447    1.221   .     D
C448   O450    1.221   .     D
C448   H449    1.085   .     S
O451   C455    1.264   .     A
O451   Zn463   1.958   .     S
O452   C456    1.264   .     A
O452   Zn464   1.958   .     S
O453   Zn463   1.959   .     S
O453   C456    1.264   .     A
O454   Zn464   1.959   .     S
O454   C455    1.264   .     A
C455   C483    1.369   .     S
C456   C484    1.369   .     S
O457   C461    1.271   .     A
O457   Zn463   2.015   .     S
O458   C462    1.271   .     A
O458   Zn464   2.015   .     S
O459   C462    1.269   .     A
O459   Zn463   2.021   .     S
O460   C461    1.269   .     A
O460   Zn464   2.021   .     S
C461   C472    1.429   .     S
C462   C471    1.429   .     S
Zn463  N466    1.977   .     S
Zn464  N465    1.977   .     S
N466   N765    1.196   .     S
C467   C475    1.400   .     A
C467   C489    1.491   .     S
C467   C471    1.405   .     A
C468   C476    1.400   .     A
C468   C492    1.491   .     S
C468   C472    1.405   .     A
C469   C473    1.401   .     A
C469   C495    1.491   .     S
C469   C471    1.403   .     A
C470   C498    1.491   .     S
C470   C472    1.403   .     A
C470   C474    1.401   .     A
C473   C479    1.401   .     A
C473   C477    1.416   .     A
C474   C480    1.402   .     A
C474   C478    1.416   .     A
C475   C481    1.403   .     A
C475   C477    1.416   .     A
C476   C482    1.403   .     A
C476   C478    1.416   .     A
C477   C428    1.408   1_655 S
C479   H485    1.080   .     S
C479   C432    1.380   1_655 S
C480   H486    1.080   .     S
C481   H487    1.080   .     S
C481   C430    1.380   1_655 S
C482   H488    1.080   .     S
C484   C583    1.167   .     S
C489   O491    1.220   .     D
C489   H490    1.085   .     S
C492   O494    1.220   .     D
C492   H493    1.085   .     S
C495   H496    1.085   .     S
C495   O497    1.221   .     D
C498   O500    1.221   .     D
C498   H499    1.085   .     S
O501   C505    1.264   .     A
O501   Zn513   1.958   .     S
O502   C506    1.264   .     A
O502   Zn514   1.958   .     S
O503   Zn513   1.959   .     S
O503   C506    1.264   .     A
O504   Zn514   1.959   .     S
O504   C505    1.264   .     A
C505   C533    1.369   .     S
C506   C534    1.369   .     S
O507   C511    1.271   .     A
O507   Zn513   2.015   .     S
O508   C512    1.271   .     A
O508   Zn514   2.015   .     S
O509   C512    1.269   .     A
O509   Zn513   2.021   .     S
O510   C511    1.269   .     A
O510   Zn514   2.021   .     S
C511   C522    1.429   .     S
C512   C521    1.429   .     S
Zn513  N516    1.977   .     S
Zn514  N515    1.977   .     S
N516   N815    1.196   .     S
C517   C525    1.400   .     A
C517   C539    1.491   .     S
C517   C521    1.405   .     A
C518   C526    1.400   .     A
C518   C542    1.491   .     S
C518   C522    1.405   .     A
C519   C523    1.401   .     A
C519   C545    1.491   .     S
C519   C521    1.403   .     A
C520   C548    1.491   .     S
C520   C522    1.403   .     A
C520   C524    1.401   .     A
C523   C529    1.401   .     A
C523   C527    1.416   .     A
C524   C530    1.402   .     A
C524   C528    1.416   .     A
C525   C531    1.403   .     A
C525   C527    1.416   .     A
C526   C532    1.403   .     A
C526   C528    1.416   .     A
C527   C578    1.408   .     S
C528   C577    1.408   1_455 S
C529   H535    1.080   .     S
C529   C582    1.380   .     S
C530   H536    1.080   .     S
C530   C581    1.380   1_455 S
C531   H537    1.080   .     S
C531   C580    1.380   .     S
C532   H538    1.080   .     S
C532   C579    1.380   1_455 S
C534   C333    1.167   1_565 S
C539   O541    1.220   .     D
C539   H540    1.085   .     S
C542   O544    1.220   .     D
C542   H543    1.085   .     S
C545   H546    1.085   .     S
C545   O547    1.221   .     D
C548   O550    1.221   .     D
C548   H549    1.085   .     S
O551   C555    1.264   .     A
O551   Zn563   1.958   .     S
O552   C556    1.264   .     A
O552   Zn564   1.958   .     S
O553   Zn563   1.959   .     S
O553   C556    1.264   .     A
O554   Zn564   1.959   .     S
O554   C555    1.264   .     A
C555   C583    1.369   .     S
C556   C584    1.369   .     S
O557   C561    1.271   .     A
O557   Zn563   2.015   .     S
O558   C562    1.271   .     A
O558   Zn564   2.015   .     S
O559   C562    1.269   .     A
O559   Zn563   2.021   .     S
O560   C561    1.269   .     A
O560   Zn564   2.021   .     S
C561   C572    1.429   .     S
C562   C571    1.429   .     S
Zn563  N566    1.977   .     S
Zn564  N565    1.977   .     S
N566   N865    1.196   .     S
C567   C575    1.400   .     A
C567   C589    1.491   .     S
C567   C571    1.405   .     A
C568   C576    1.400   .     A
C568   C592    1.491   .     S
C568   C572    1.405   .     A
C569   C573    1.401   .     A
C569   C595    1.491   .     S
C569   C571    1.403   .     A
C570   C598    1.491   .     S
C570   C572    1.403   .     A
C570   C574    1.401   .     A
C573   C579    1.401   .     A
C573   C577    1.416   .     A
C574   C580    1.402   .     A
C574   C578    1.416   .     A
C575   C581    1.403   .     A
C575   C577    1.416   .     A
C576   C582    1.403   .     A
C576   C578    1.416   .     A
C577   C528    1.408   1_655 S
C579   H585    1.080   .     S
C579   C532    1.380   1_655 S
C580   H586    1.080   .     S
C581   H587    1.080   .     S
C581   C530    1.380   1_655 S
C582   H588    1.080   .     S
C584   C383    1.167   1_565 S
C589   O591    1.220   .     D
C589   H590    1.085   .     S
C592   O594    1.220   .     D
C592   H593    1.085   .     S
C595   H596    1.085   .     S
C595   O597    1.221   .     D
C598   O600    1.221   .     D
C598   H599    1.085   .     S
O601   C605    1.264   .     A
O601   Zn613   1.958   .     S
O602   C606    1.264   .     A
O602   Zn614   1.958   .     S
O603   Zn613   1.959   .     S
O603   C606    1.264   .     A
O604   Zn614   1.959   .     S
O604   C605    1.264   .     A
C605   C633    1.369   .     S
C606   C634    1.369   .     S
O607   C611    1.271   .     A
O607   Zn613   2.015   .     S
O608   C612    1.271   .     A
O608   Zn614   2.015   .     S
O609   C612    1.269   .     A
O609   Zn613   2.021   .     S
O610   C611    1.269   .     A
O610   Zn614   2.021   .     S
C611   C622    1.429   .     S
C612   C621    1.429   .     S
Zn613  N616    1.977   .     S
Zn614  N615    1.977   .     S
N616   N15     1.196   1_556 S
C617   C625    1.400   .     A
C617   C639    1.491   .     S
C617   C621    1.405   .     A
C618   C626    1.400   .     A
C618   C642    1.491   .     S
C618   C622    1.405   .     A
C619   C623    1.401   .     A
C619   C645    1.491   .     S
C619   C621    1.403   .     A
C620   C648    1.491   .     S
C620   C622    1.403   .     A
C620   C624    1.401   .     A
C623   C629    1.401   .     A
C623   C627    1.416   .     A
C624   C630    1.402   .     A
C624   C628    1.416   .     A
C625   C631    1.403   .     A
C625   C627    1.416   .     A
C626   C632    1.403   .     A
C626   C628    1.416   .     A
C627   C678    1.408   .     S
C628   C677    1.408   1_455 S
C629   H635    1.080   .     S
C629   C682    1.380   .     S
C630   H636    1.080   .     S
C630   C681    1.380   1_455 S
C631   H637    1.080   .     S
C631   C680    1.380   .     S
C632   H638    1.080   .     S
C632   C679    1.380   1_455 S
C633   C834    1.167   1_545 S
C634   C733    1.167   .     S
C639   O641    1.220   .     D
C639   H640    1.085   .     S
C642   O644    1.220   .     D
C642   H643    1.085   .     S
C645   H646    1.085   .     S
C645   O647    1.221   .     D
C648   O650    1.221   .     D
C648   H649    1.085   .     S
O651   C655    1.264   .     A
O651   Zn663   1.958   .     S
O652   C656    1.264   .     A
O652   Zn664   1.958   .     S
O653   Zn663   1.959   .     S
O653   C656    1.264   .     A
O654   Zn664   1.959   .     S
O654   C655    1.264   .     A
C655   C683    1.369   .     S
C656   C684    1.369   .     S
O657   C661    1.271   .     A
O657   Zn663   2.015   .     S
O658   C662    1.271   .     A
O658   Zn664   2.015   .     S
O659   C662    1.269   .     A
O659   Zn663   2.021   .     S
O660   C661    1.269   .     A
O660   Zn664   2.021   .     S
C661   C672    1.429   .     S
C662   C671    1.429   .     S
Zn663  N666    1.977   .     S
Zn664  N665    1.977   .     S
N666   N65     1.196   1_556 S
C667   C675    1.400   .     A
C667   C689    1.491   .     S
C667   C671    1.405   .     A
C668   C676    1.400   .     A
C668   C692    1.491   .     S
C668   C672    1.405   .     A
C669   C673    1.401   .     A
C669   C695    1.491   .     S
C669   C671    1.403   .     A
C670   C698    1.491   .     S
C670   C672    1.403   .     A
C670   C674    1.401   .     A
C673   C679    1.401   .     A
C673   C677    1.416   .     A
C674   C680    1.402   .     A
C674   C678    1.416   .     A
C675   C681    1.403   .     A
C675   C677    1.416   .     A
C676   C682    1.403   .     A
C676   C678    1.416   .     A
C677   C628    1.408   1_655 S
C679   H685    1.080   .     S
C679   C632    1.380   1_655 S
C680   H686    1.080   .     S
C681   H687    1.080   .     S
C681   C630    1.380   1_655 S
C682   H688    1.080   .     S
C683   C884    1.167   1_545 S
C684   C783    1.167   .     S
C689   O691    1.220   .     D
C689   H690    1.085   .     S
C692   O694    1.220   .     D
C692   H693    1.085   .     S
C695   H696    1.085   .     S
C695   O697    1.221   .     D
C698   O700    1.221   .     D
C698   H699    1.085   .     S
O701   C705    1.264   .     A
O701   Zn713   1.958   .     S
O702   C706    1.264   .     A
O702   Zn714   1.958   .     S
O703   Zn713   1.959   .     S
O703   C706    1.264   .     A
O704   Zn714   1.959   .     S
O704   C705    1.264   .     A
C705   C733    1.369   .     S
C706   C734    1.369   .     S
O707   C711    1.271   .     A
O707   Zn713   2.015   .     S
O708   C712    1.271   .     A
O708   Zn714   2.015   .     S
O709   C712    1.269   .     A
O709   Zn713   2.021   .     S
O710   C711    1.269   .     A
O710   Zn714   2.021   .     S
C711   C722    1.429   .     S
C712   C721    1.429   .     S
Zn713  N716    1.977   .     S
Zn714  N715    1.977   .     S
N716   N115    1.196   1_556 S
C717   C725    1.400   .     A
C717   C739    1.491   .     S
C717   C721    1.405   .     A
C718   C726    1.400   .     A
C718   C742    1.491   .     S
C718   C722    1.405   .     A
C719   C723    1.401   .     A
C719   C745    1.491   .     S
C719   C721    1.403   .     A
C720   C748    1.491   .     S
C720   C722    1.403   .     A
C720   C724    1.401   .     A
C723   C729    1.401   .     A
C723   C727    1.416   .     A
C724   C730    1.402   .     A
C724   C728    1.416   .     A
C725   C731    1.403   .     A
C725   C727    1.416   .     A
C726   C732    1.403   .     A
C726   C728    1.416   .     A
C727   C778    1.408   .     S
C728   C777    1.408   1_455 S
C729   H735    1.080   .     S
C729   C782    1.380   .     S
C730   H736    1.080   .     S
C730   C781    1.380   1_455 S
C731   H737    1.080   .     S
C731   C780    1.380   .     S
C732   H738    1.080   .     S
C732   C779    1.380   1_455 S
C734   C833    1.167   .     S
C739   O741    1.220   .     D
C739   H740    1.085   .     S
C742   O744    1.220   .     D
C742   H743    1.085   .     S
C745   H746    1.085   .     S
C745   O747    1.221   .     D
C748   O750    1.221   .     D
C748   H749    1.085   .     S
O751   C755    1.264   .     A
O751   Zn763   1.958   .     S
O752   C756    1.264   .     A
O752   Zn764   1.958   .     S
O753   Zn763   1.959   .     S
O753   C756    1.264   .     A
O754   Zn764   1.959   .     S
O754   C755    1.264   .     A
C755   C783    1.369   .     S
C756   C784    1.369   .     S
O757   C761    1.271   .     A
O757   Zn763   2.015   .     S
O758   C762    1.271   .     A
O758   Zn764   2.015   .     S
O759   C762    1.269   .     A
O759   Zn763   2.021   .     S
O760   C761    1.269   .     A
O760   Zn764   2.021   .     S
C761   C772    1.429   .     S
C762   C771    1.429   .     S
Zn763  N766    1.977   .     S
Zn764  N765    1.977   .     S
N766   N165    1.196   1_556 S
C767   C775    1.400   .     A
C767   C789    1.491   .     S
C767   C771    1.405   .     A
C768   C776    1.400   .     A
C768   C792    1.491   .     S
C768   C772    1.405   .     A
C769   C773    1.401   .     A
C769   C795    1.491   .     S
C769   C771    1.403   .     A
C770   C798    1.491   .     S
C770   C772    1.403   .     A
C770   C774    1.401   .     A
C773   C779    1.401   .     A
C773   C777    1.416   .     A
C774   C780    1.402   .     A
C774   C778    1.416   .     A
C775   C781    1.403   .     A
C775   C777    1.416   .     A
C776   C782    1.403   .     A
C776   C778    1.416   .     A
C777   C728    1.408   1_655 S
C779   H785    1.080   .     S
C779   C732    1.380   1_655 S
C780   H786    1.080   .     S
C781   H787    1.080   .     S
C781   C730    1.380   1_655 S
C782   H788    1.080   .     S
C784   C883    1.167   .     S
C789   O791    1.220   .     D
C789   H790    1.085   .     S
C792   O794    1.220   .     D
C792   H793    1.085   .     S
C795   H796    1.085   .     S
C795   O797    1.221   .     D
C798   O800    1.221   .     D
C798   H799    1.085   .     S
O801   C805    1.264   .     A
O801   Zn813   1.958   .     S
O802   C806    1.264   .     A
O802   Zn814   1.958   .     S
O803   Zn813   1.959   .     S
O803   C806    1.264   .     A
O804   Zn814   1.959   .     S
O804   C805    1.264   .     A
C805   C833    1.369   .     S
C806   C834    1.369   .     S
O807   C811    1.271   .     A
O807   Zn813   2.015   .     S
O808   C812    1.271   .     A
O808   Zn814   2.015   .     S
O809   C812    1.269   .     A
O809   Zn813   2.021   .     S
O810   C811    1.269   .     A
O810   Zn814   2.021   .     S
C811   C822    1.429   .     S
C812   C821    1.429   .     S
Zn813  N816    1.977   .     S
Zn814  N815    1.977   .     S
N816   N215    1.196   1_556 S
C817   C825    1.400   .     A
C817   C839    1.491   .     S
C817   C821    1.405   .     A
C818   C826    1.400   .     A
C818   C842    1.491   .     S
C818   C822    1.405   .     A
C819   C823    1.401   .     A
C819   C845    1.491   .     S
C819   C821    1.403   .     A
C820   C848    1.491   .     S
C820   C822    1.403   .     A
C820   C824    1.401   .     A
C823   C829    1.401   .     A
C823   C827    1.416   .     A
C824   C830    1.402   .     A
C824   C828    1.416   .     A
C825   C831    1.403   .     A
C825   C827    1.416   .     A
C826   C832    1.403   .     A
C826   C828    1.416   .     A
C827   C878    1.408   .     S
C828   C877    1.408   1_455 S
C829   H835    1.080   .     S
C829   C882    1.380   .     S
C830   H836    1.080   .     S
C830   C881    1.380   1_455 S
C831   H837    1.080   .     S
C831   C880    1.380   .     S
C832   H838    1.080   .     S
C832   C879    1.380   1_455 S
C834   C633    1.167   1_565 S
C839   O841    1.220   .     D
C839   H840    1.085   .     S
C842   O844    1.220   .     D
C842   H843    1.085   .     S
C845   H846    1.085   .     S
C845   O847    1.221   .     D
C848   O850    1.221   .     D
C848   H849    1.085   .     S
O851   C855    1.264   .     A
O851   Zn863   1.958   .     S
O852   C856    1.264   .     A
O852   Zn864   1.958   .     S
O853   Zn863   1.959   .     S
O853   C856    1.264   .     A
O854   Zn864   1.959   .     S
O854   C855    1.264   .     A
C855   C883    1.369   .     S
C856   C884    1.369   .     S
O857   C861    1.271   .     A
O857   Zn863   2.015   .     S
O858   C862    1.271   .     A
O858   Zn864   2.015   .     S
O859   C862    1.269   .     A
O859   Zn863   2.021   .     S
O860   C861    1.269   .     A
O860   Zn864   2.021   .     S
C861   C872    1.429   .     S
C862   C871    1.429   .     S
Zn863  N866    1.977   .     S
Zn864  N865    1.977   .     S
N866   N265    1.196   1_556 S
C867   C875    1.400   .     A
C867   C889    1.491   .     S
C867   C871    1.405   .     A
C868   C876    1.400   .     A
C868   C892    1.491   .     S
C868   C872    1.405   .     A
C869   C873    1.401   .     A
C869   C895    1.491   .     S
C869   C871    1.403   .     A
C870   C898    1.491   .     S
C870   C872    1.403   .     A
C870   C874    1.401   .     A
C873   C879    1.401   .     A
C873   C877    1.416   .     A
C874   C880    1.402   .     A
C874   C878    1.416   .     A
C875   C881    1.403   .     A
C875   C877    1.416   .     A
C876   C882    1.403   .     A
C876   C878    1.416   .     A
C877   C828    1.408   1_655 S
C879   H885    1.080   .     S
C879   C832    1.380   1_655 S
C880   H886    1.080   .     S
C881   H887    1.080   .     S
C881   C830    1.380   1_655 S
C882   H888    1.080   .     S
C884   C683    1.167   1_565 S
C889   O891    1.220   .     D
C889   H890    1.085   .     S
C892   O894    1.220   .     D
C892   H893    1.085   .     S
C895   H896    1.085   .     S
C895   O897    1.221   .     D
C898   O900    1.221   .     D
C898   H899    1.085   .     S
