data_str_m3_o1_o17_pcu_sym.53
_audit_creation_date              2020-01-03
_audit_creation_method            'Materials Studio'
_symmetry_space_group_name_H-M    'P1'
_symmetry_Int_Tables_number       1
_symmetry_cell_setting            triclinic
loop_
_symmetry_equiv_pos_as_xyz
  x,y,z
_cell_length_a                    32.4070
_cell_length_b                    29.7251
_cell_length_c                    29.9342
_cell_angle_alpha                 90.0016
_cell_angle_beta                  91.5516
_cell_angle_gamma                 90.0042
loop_
_atom_site_label
_atom_site_type_symbol
_atom_site_fract_x
_atom_site_fract_y
_atom_site_fract_z
_atom_site_U_iso_or_equiv
_atom_site_adp_type
_atom_site_occupancy
O1     O     0.10559   0.20487   0.24999   0.00000  Uiso   1.00
O2     O     0.22774   0.12846   0.25000   0.00000  Uiso   1.00
O3     O     0.22774   0.20487   0.25000   0.00000  Uiso   1.00
O4     O     0.10559   0.12846   0.24999   0.00000  Uiso   1.00
C5     C     0.08678   0.16670   0.25382   0.00000  Uiso   1.00
C6     C     0.24656   0.16670   0.24618   0.00000  Uiso   1.00
O7     O     0.16666   0.20489   0.18392   0.00000  Uiso   1.00
O8     O     0.16667   0.12844   0.31607   0.00000  Uiso   1.00
O9     O     0.16667   0.20489   0.31607   0.00000  Uiso   1.00
O10    O     0.16666   0.12844   0.18392   0.00000  Uiso   1.00
C11    C     0.16642   0.16675   0.16366   0.00000  Uiso   1.00
C12    C     0.16692   0.16676   0.33634   0.00000  Uiso   1.00
Zn13   Zn    0.16667   0.21771   0.25000   0.00000  Uiso   1.00
Zn14   Zn    0.16667   0.11563   0.25000   0.00000  Uiso   1.00
C15    C     0.20444   0.16826   0.40753   0.00000  Uiso   1.00
C16    C     0.12889   0.16824   0.09247   0.00000  Uiso   1.00
C17    C     0.16673   0.16747   0.38401   0.00000  Uiso   1.00
C18    C     0.16660   0.16747   0.11599   0.00000  Uiso   1.00
C19    C     0.12895   0.17084   0.40507   0.00000  Uiso   1.00
C20    C     0.20437   0.17085   0.09493   0.00000  Uiso   1.00
C21    C     0.12830   0.16877   0.45198   0.00000  Uiso   1.00
C22    C     0.20502   0.16876   0.04802   0.00000  Uiso   1.00
C23    C     0.16653   0.17066   0.47646   0.00000  Uiso   1.00
C24    C     0.16680   0.17066   0.02354   0.00000  Uiso   1.00
C25    C     0.20451   0.17315   0.45407   0.00000  Uiso   1.00
C26    C     0.12882   0.17315   0.04593   0.00000  Uiso   1.00
C27    C     0.09104   0.16776   0.47553   0.00000  Uiso   1.00
C28    C     0.24228   0.16775   0.02448   0.00000  Uiso   1.00
C29    C     0.09194   0.17825   0.02076   0.00000  Uiso   1.00
C30    C     0.24139   0.17825   0.47925   0.00000  Uiso   1.00
C31    C     0.02069   0.12571   0.25615   0.00000  Uiso   1.00
C32    C     0.31257   0.20814   0.24412   0.00000  Uiso   1.00
C33    C     0.31264   0.12572   0.24382   0.00000  Uiso   1.00
C34    C     0.02077   0.20814   0.25589   0.00000  Uiso   1.00
C35    C     0.29104   0.16687   0.24234   0.00000  Uiso   1.00
C36    C     0.04230   0.16686   0.25766   0.00000  Uiso   1.00
C37    C     0.19153   0.02383   0.27938   0.00000  Uiso   1.00
C38    C     0.14190   0.30936   0.22048   0.00000  Uiso   1.00
C39    C     0.14180   0.02382   0.22062   0.00000  Uiso   1.00
C40    C     0.19144   0.30937   0.27951   0.00000  Uiso   1.00
N41    N     0.16667   0.28573   0.25000   0.00000  Uiso   1.00
N42    N     0.16667   0.04760   0.25000   0.00000  Uiso   1.00
Br43   Br    0.25435   0.15683   0.37483   0.00000  Uiso   1.00
Br44   Br    0.07898   0.15680   0.12516   0.00000  Uiso   1.00
Br45   Br    0.08089   0.18642   0.36813   0.00000  Uiso   1.00
Br46   Br    0.25243   0.18651   0.13184   0.00000  Uiso   1.00
C47    C     0.05104   0.14934   0.45617   0.00000  Uiso   1.00
H48    H     0.05690   0.12280   0.43102   0.00000  Uiso   1.00
H49    H     0.03292   0.13285   0.48253   0.00000  Uiso   1.00
H50    H     0.03217   0.17689   0.44149   0.00000  Uiso   1.00
C51    C     0.28226   0.14928   0.04385   0.00000  Uiso   1.00
H52    H     0.27637   0.12279   0.06905   0.00000  Uiso   1.00
H53    H     0.30032   0.13269   0.01749   0.00000  Uiso   1.00
H54    H     0.30120   0.17682   0.05846   0.00000  Uiso   1.00
Br55   Br    0.04665   0.21425   0.04117   0.00000  Uiso   1.00
Br56   Br    0.28674   0.21418   0.45885   0.00000  Uiso   1.00
Br57   Br    0.04413   0.06956   0.27808   0.00000  Uiso   1.00
Br58   Br    0.28874   0.26476   0.22373   0.00000  Uiso   1.00
Br59   Br    0.28919   0.06958   0.22188   0.00000  Uiso   1.00
Br60   Br    0.04461   0.26475   0.27631   0.00000  Uiso   1.00
Br61   Br    0.22733   0.05472   0.32109   0.00000  Uiso   1.00
Br62   Br    0.10666   0.27803   0.17814   0.00000  Uiso   1.00
Br63   Br    0.10601   0.05471   0.17891   0.00000  Uiso   1.00
Br64   Br    0.22667   0.27805   0.32187   0.00000  Uiso   1.00
O65    O     0.43892   0.20487   0.24999   0.00000  Uiso   1.00
O66    O     0.56108   0.12846   0.25000   0.00000  Uiso   1.00
O67    O     0.56108   0.20487   0.25000   0.00000  Uiso   1.00
O68    O     0.43892   0.12846   0.24999   0.00000  Uiso   1.00
C69    C     0.42011   0.16670   0.25382   0.00000  Uiso   1.00
C70    C     0.57989   0.16670   0.24618   0.00000  Uiso   1.00
O71    O     0.49999   0.20489   0.18392   0.00000  Uiso   1.00
O72    O     0.50001   0.12844   0.31607   0.00000  Uiso   1.00
O73    O     0.50001   0.20489   0.31607   0.00000  Uiso   1.00
O74    O     0.49999   0.12844   0.18392   0.00000  Uiso   1.00
C75    C     0.49975   0.16675   0.16366   0.00000  Uiso   1.00
C76    C     0.50025   0.16676   0.33634   0.00000  Uiso   1.00
Zn77   Zn    0.50000   0.21771   0.25000   0.00000  Uiso   1.00
Zn78   Zn    0.50000   0.11563   0.25000   0.00000  Uiso   1.00
C79    C     0.53777   0.16826   0.40753   0.00000  Uiso   1.00
C80    C     0.46223   0.16824   0.09247   0.00000  Uiso   1.00
C81    C     0.50006   0.16747   0.38401   0.00000  Uiso   1.00
C82    C     0.49993   0.16747   0.11599   0.00000  Uiso   1.00
C83    C     0.46229   0.17084   0.40507   0.00000  Uiso   1.00
C84    C     0.53771   0.17085   0.09493   0.00000  Uiso   1.00
C85    C     0.46164   0.16877   0.45198   0.00000  Uiso   1.00
C86    C     0.53835   0.16876   0.04802   0.00000  Uiso   1.00
C87    C     0.49987   0.17066   0.47646   0.00000  Uiso   1.00
C88    C     0.50013   0.17066   0.02354   0.00000  Uiso   1.00
C89    C     0.53784   0.17315   0.45407   0.00000  Uiso   1.00
C90    C     0.46216   0.17315   0.04593   0.00000  Uiso   1.00
C91    C     0.42438   0.16776   0.47553   0.00000  Uiso   1.00
C92    C     0.57561   0.16775   0.02448   0.00000  Uiso   1.00
C93    C     0.42528   0.17825   0.02076   0.00000  Uiso   1.00
C94    C     0.57472   0.17825   0.47925   0.00000  Uiso   1.00
C95    C     0.35402   0.12571   0.25615   0.00000  Uiso   1.00
C96    C     0.64590   0.20814   0.24412   0.00000  Uiso   1.00
C97    C     0.64597   0.12572   0.24382   0.00000  Uiso   1.00
C98    C     0.35410   0.20814   0.25589   0.00000  Uiso   1.00
C99    C     0.62437   0.16687   0.24234   0.00000  Uiso   1.00
C100   C     0.37563   0.16686   0.25766   0.00000  Uiso   1.00
C101   C     0.52487   0.02383   0.27938   0.00000  Uiso   1.00
C102   C     0.47523   0.30936   0.22048   0.00000  Uiso   1.00
C103   C     0.47513   0.02382   0.22062   0.00000  Uiso   1.00
C104   C     0.52477   0.30937   0.27951   0.00000  Uiso   1.00
N105   N     0.50000   0.28573   0.25000   0.00000  Uiso   1.00
N106   N     0.50000   0.04760   0.25000   0.00000  Uiso   1.00
Br107  Br    0.58768   0.15683   0.37483   0.00000  Uiso   1.00
Br108  Br    0.41231   0.15680   0.12516   0.00000  Uiso   1.00
Br109  Br    0.41423   0.18642   0.36813   0.00000  Uiso   1.00
Br110  Br    0.58576   0.18651   0.13184   0.00000  Uiso   1.00
C111   C     0.38437   0.14934   0.45617   0.00000  Uiso   1.00
H112   H     0.39023   0.12280   0.43102   0.00000  Uiso   1.00
H113   H     0.36626   0.13285   0.48253   0.00000  Uiso   1.00
H114   H     0.36550   0.17689   0.44149   0.00000  Uiso   1.00
C115   C     0.61560   0.14928   0.04385   0.00000  Uiso   1.00
H116   H     0.60970   0.12279   0.06905   0.00000  Uiso   1.00
H117   H     0.63365   0.13269   0.01749   0.00000  Uiso   1.00
H118   H     0.63453   0.17682   0.05846   0.00000  Uiso   1.00
Br119  Br    0.37998   0.21425   0.04117   0.00000  Uiso   1.00
Br120  Br    0.62008   0.21418   0.45885   0.00000  Uiso   1.00
Br121  Br    0.37746   0.06956   0.27808   0.00000  Uiso   1.00
Br122  Br    0.62207   0.26476   0.22373   0.00000  Uiso   1.00
Br123  Br    0.62252   0.06958   0.22188   0.00000  Uiso   1.00
Br124  Br    0.37795   0.26475   0.27631   0.00000  Uiso   1.00
Br125  Br    0.56066   0.05472   0.32109   0.00000  Uiso   1.00
Br126  Br    0.43999   0.27803   0.17814   0.00000  Uiso   1.00
Br127  Br    0.43934   0.05471   0.17891   0.00000  Uiso   1.00
Br128  Br    0.56000   0.27805   0.32187   0.00000  Uiso   1.00
O129   O     0.77226   0.20487   0.24999   0.00000  Uiso   1.00
O130   O     0.89441   0.12846   0.25000   0.00000  Uiso   1.00
O131   O     0.89441   0.20487   0.25000   0.00000  Uiso   1.00
O132   O     0.77226   0.12846   0.24999   0.00000  Uiso   1.00
C133   C     0.75344   0.16670   0.25382   0.00000  Uiso   1.00
C134   C     0.91322   0.16670   0.24618   0.00000  Uiso   1.00
O135   O     0.83333   0.20489   0.18392   0.00000  Uiso   1.00
O136   O     0.83334   0.12844   0.31607   0.00000  Uiso   1.00
O137   O     0.83334   0.20489   0.31607   0.00000  Uiso   1.00
O138   O     0.83333   0.12844   0.18392   0.00000  Uiso   1.00
C139   C     0.83309   0.16675   0.16366   0.00000  Uiso   1.00
C140   C     0.83358   0.16676   0.33634   0.00000  Uiso   1.00
Zn141  Zn    0.83333   0.21771   0.25000   0.00000  Uiso   1.00
Zn142  Zn    0.83333   0.11563   0.25000   0.00000  Uiso   1.00
C143   C     0.87110   0.16826   0.40753   0.00000  Uiso   1.00
C144   C     0.79556   0.16824   0.09247   0.00000  Uiso   1.00
C145   C     0.83340   0.16747   0.38401   0.00000  Uiso   1.00
C146   C     0.83327   0.16747   0.11599   0.00000  Uiso   1.00
C147   C     0.79562   0.17084   0.40507   0.00000  Uiso   1.00
C148   C     0.87104   0.17085   0.09493   0.00000  Uiso   1.00
C149   C     0.79497   0.16877   0.45198   0.00000  Uiso   1.00
C150   C     0.87169   0.16876   0.04802   0.00000  Uiso   1.00
C151   C     0.83320   0.17066   0.47646   0.00000  Uiso   1.00
C152   C     0.83346   0.17066   0.02354   0.00000  Uiso   1.00
C153   C     0.87117   0.17315   0.45407   0.00000  Uiso   1.00
C154   C     0.79549   0.17315   0.04593   0.00000  Uiso   1.00
C155   C     0.75771   0.16776   0.47553   0.00000  Uiso   1.00
C156   C     0.90895   0.16775   0.02448   0.00000  Uiso   1.00
C157   C     0.75861   0.17825   0.02076   0.00000  Uiso   1.00
C158   C     0.90806   0.17825   0.47925   0.00000  Uiso   1.00
C159   C     0.68735   0.12571   0.25615   0.00000  Uiso   1.00
C160   C     0.97924   0.20814   0.24412   0.00000  Uiso   1.00
C161   C     0.97931   0.12572   0.24382   0.00000  Uiso   1.00
C162   C     0.68744   0.20814   0.25589   0.00000  Uiso   1.00
C163   C     0.95770   0.16687   0.24234   0.00000  Uiso   1.00
C164   C     0.70896   0.16686   0.25766   0.00000  Uiso   1.00
C165   C     0.85820   0.02383   0.27938   0.00000  Uiso   1.00
C166   C     0.80856   0.30936   0.22048   0.00000  Uiso   1.00
C167   C     0.80847   0.02382   0.22062   0.00000  Uiso   1.00
C168   C     0.85810   0.30937   0.27951   0.00000  Uiso   1.00
N169   N     0.83333   0.28573   0.25000   0.00000  Uiso   1.00
N170   N     0.83333   0.04760   0.25000   0.00000  Uiso   1.00
Br171  Br    0.92101   0.15683   0.37483   0.00000  Uiso   1.00
Br172  Br    0.74564   0.15680   0.12516   0.00000  Uiso   1.00
Br173  Br    0.74756   0.18642   0.36813   0.00000  Uiso   1.00
Br174  Br    0.91910   0.18651   0.13184   0.00000  Uiso   1.00
C175   C     0.71771   0.14934   0.45617   0.00000  Uiso   1.00
H176   H     0.72357   0.12280   0.43102   0.00000  Uiso   1.00
H177   H     0.69959   0.13285   0.48253   0.00000  Uiso   1.00
H178   H     0.69884   0.17689   0.44149   0.00000  Uiso   1.00
C179   C     0.94893   0.14928   0.04385   0.00000  Uiso   1.00
H180   H     0.94304   0.12279   0.06905   0.00000  Uiso   1.00
H181   H     0.96698   0.13269   0.01749   0.00000  Uiso   1.00
H182   H     0.96787   0.17682   0.05846   0.00000  Uiso   1.00
Br183  Br    0.71332   0.21425   0.04117   0.00000  Uiso   1.00
Br184  Br    0.95341   0.21418   0.45885   0.00000  Uiso   1.00
Br185  Br    0.71080   0.06956   0.27808   0.00000  Uiso   1.00
Br186  Br    0.95540   0.26476   0.22373   0.00000  Uiso   1.00
Br187  Br    0.95585   0.06958   0.22188   0.00000  Uiso   1.00
Br188  Br    0.71128   0.26475   0.27631   0.00000  Uiso   1.00
Br189  Br    0.89400   0.05472   0.32109   0.00000  Uiso   1.00
Br190  Br    0.77333   0.27803   0.17814   0.00000  Uiso   1.00
Br191  Br    0.77268   0.05471   0.17891   0.00000  Uiso   1.00
Br192  Br    0.89334   0.27805   0.32187   0.00000  Uiso   1.00
O193   O     0.10559   0.53821   0.24999   0.00000  Uiso   1.00
O194   O     0.22774   0.46179   0.25000   0.00000  Uiso   1.00
O195   O     0.22774   0.53821   0.25000   0.00000  Uiso   1.00
O196   O     0.10559   0.46179   0.24999   0.00000  Uiso   1.00
C197   C     0.08678   0.50003   0.25382   0.00000  Uiso   1.00
C198   C     0.24656   0.50003   0.24618   0.00000  Uiso   1.00
O199   O     0.16666   0.53823   0.18392   0.00000  Uiso   1.00
O200   O     0.16667   0.46177   0.31607   0.00000  Uiso   1.00
O201   O     0.16667   0.53823   0.31607   0.00000  Uiso   1.00
O202   O     0.16666   0.46177   0.18392   0.00000  Uiso   1.00
C203   C     0.16642   0.50009   0.16366   0.00000  Uiso   1.00
C204   C     0.16692   0.50009   0.33634   0.00000  Uiso   1.00
Zn205  Zn    0.16667   0.55104   0.25000   0.00000  Uiso   1.00
Zn206  Zn    0.16667   0.44896   0.25000   0.00000  Uiso   1.00
C207   C     0.20444   0.50159   0.40753   0.00000  Uiso   1.00
C208   C     0.12889   0.50158   0.09247   0.00000  Uiso   1.00
C209   C     0.16673   0.50081   0.38401   0.00000  Uiso   1.00
C210   C     0.16660   0.50080   0.11599   0.00000  Uiso   1.00
C211   C     0.12895   0.50418   0.40507   0.00000  Uiso   1.00
C212   C     0.20437   0.50419   0.09493   0.00000  Uiso   1.00
C213   C     0.12830   0.50210   0.45198   0.00000  Uiso   1.00
C214   C     0.20502   0.50210   0.04802   0.00000  Uiso   1.00
C215   C     0.16653   0.50399   0.47646   0.00000  Uiso   1.00
C216   C     0.16680   0.50399   0.02354   0.00000  Uiso   1.00
C217   C     0.20451   0.50649   0.45407   0.00000  Uiso   1.00
C218   C     0.12882   0.50648   0.04593   0.00000  Uiso   1.00
C219   C     0.09104   0.50109   0.47553   0.00000  Uiso   1.00
C220   C     0.24228   0.50108   0.02448   0.00000  Uiso   1.00
C221   C     0.09194   0.51158   0.02076   0.00000  Uiso   1.00
C222   C     0.24139   0.51158   0.47925   0.00000  Uiso   1.00
C223   C     0.02069   0.45905   0.25615   0.00000  Uiso   1.00
C224   C     0.31257   0.54147   0.24412   0.00000  Uiso   1.00
C225   C     0.31264   0.45905   0.24382   0.00000  Uiso   1.00
C226   C     0.02077   0.54147   0.25589   0.00000  Uiso   1.00
C227   C     0.29104   0.50020   0.24234   0.00000  Uiso   1.00
C228   C     0.04230   0.50020   0.25766   0.00000  Uiso   1.00
C229   C     0.19153   0.35716   0.27938   0.00000  Uiso   1.00
C230   C     0.14190   0.64269   0.22048   0.00000  Uiso   1.00
C231   C     0.14180   0.35716   0.22062   0.00000  Uiso   1.00
C232   C     0.19144   0.64270   0.27951   0.00000  Uiso   1.00
N233   N     0.16667   0.61907   0.25000   0.00000  Uiso   1.00
N234   N     0.16667   0.38093   0.25000   0.00000  Uiso   1.00
Br235  Br    0.25435   0.49016   0.37483   0.00000  Uiso   1.00
Br236  Br    0.07898   0.49013   0.12516   0.00000  Uiso   1.00
Br237  Br    0.08089   0.51975   0.36813   0.00000  Uiso   1.00
Br238  Br    0.25243   0.51984   0.13184   0.00000  Uiso   1.00
C239   C     0.05104   0.48267   0.45617   0.00000  Uiso   1.00
H240   H     0.05690   0.45613   0.43102   0.00000  Uiso   1.00
H241   H     0.03292   0.46619   0.48253   0.00000  Uiso   1.00
H242   H     0.03217   0.51022   0.44149   0.00000  Uiso   1.00
C243   C     0.28226   0.48261   0.04385   0.00000  Uiso   1.00
H244   H     0.27637   0.45613   0.06905   0.00000  Uiso   1.00
H245   H     0.30032   0.46602   0.01749   0.00000  Uiso   1.00
H246   H     0.30120   0.51015   0.05846   0.00000  Uiso   1.00
Br247  Br    0.04665   0.54758   0.04117   0.00000  Uiso   1.00
Br248  Br    0.28674   0.54752   0.45885   0.00000  Uiso   1.00
Br249  Br    0.04413   0.40290   0.27808   0.00000  Uiso   1.00
Br250  Br    0.28874   0.59809   0.22373   0.00000  Uiso   1.00
Br251  Br    0.28919   0.40291   0.22188   0.00000  Uiso   1.00
Br252  Br    0.04461   0.59808   0.27631   0.00000  Uiso   1.00
Br253  Br    0.22733   0.38806   0.32109   0.00000  Uiso   1.00
Br254  Br    0.10666   0.61137   0.17814   0.00000  Uiso   1.00
Br255  Br    0.10601   0.38804   0.17891   0.00000  Uiso   1.00
Br256  Br    0.22667   0.61138   0.32187   0.00000  Uiso   1.00
O257   O     0.43892   0.53821   0.24999   0.00000  Uiso   1.00
O258   O     0.56108   0.46179   0.25000   0.00000  Uiso   1.00
O259   O     0.56108   0.53821   0.25000   0.00000  Uiso   1.00
O260   O     0.43892   0.46179   0.24999   0.00000  Uiso   1.00
C261   C     0.42011   0.50003   0.25382   0.00000  Uiso   1.00
C262   C     0.57989   0.50003   0.24618   0.00000  Uiso   1.00
O263   O     0.49999   0.53823   0.18392   0.00000  Uiso   1.00
O264   O     0.50001   0.46177   0.31607   0.00000  Uiso   1.00
O265   O     0.50001   0.53823   0.31607   0.00000  Uiso   1.00
O266   O     0.49999   0.46177   0.18392   0.00000  Uiso   1.00
C267   C     0.49975   0.50009   0.16366   0.00000  Uiso   1.00
C268   C     0.50025   0.50009   0.33634   0.00000  Uiso   1.00
Zn269  Zn    0.50000   0.55104   0.25000   0.00000  Uiso   1.00
Zn270  Zn    0.50000   0.44896   0.25000   0.00000  Uiso   1.00
C271   C     0.53777   0.50159   0.40753   0.00000  Uiso   1.00
C272   C     0.46223   0.50158   0.09247   0.00000  Uiso   1.00
C273   C     0.50006   0.50081   0.38401   0.00000  Uiso   1.00
C274   C     0.49993   0.50080   0.11599   0.00000  Uiso   1.00
C275   C     0.46229   0.50418   0.40507   0.00000  Uiso   1.00
C276   C     0.53771   0.50419   0.09493   0.00000  Uiso   1.00
C277   C     0.46164   0.50210   0.45198   0.00000  Uiso   1.00
C278   C     0.53835   0.50210   0.04802   0.00000  Uiso   1.00
C279   C     0.49987   0.50399   0.47646   0.00000  Uiso   1.00
C280   C     0.50013   0.50399   0.02354   0.00000  Uiso   1.00
C281   C     0.53784   0.50649   0.45407   0.00000  Uiso   1.00
C282   C     0.46216   0.50648   0.04593   0.00000  Uiso   1.00
C283   C     0.42438   0.50109   0.47553   0.00000  Uiso   1.00
C284   C     0.57561   0.50108   0.02448   0.00000  Uiso   1.00
C285   C     0.42528   0.51158   0.02076   0.00000  Uiso   1.00
C286   C     0.57472   0.51158   0.47925   0.00000  Uiso   1.00
C287   C     0.35402   0.45905   0.25615   0.00000  Uiso   1.00
C288   C     0.64590   0.54147   0.24412   0.00000  Uiso   1.00
C289   C     0.64597   0.45905   0.24382   0.00000  Uiso   1.00
C290   C     0.35410   0.54147   0.25589   0.00000  Uiso   1.00
C291   C     0.62437   0.50020   0.24234   0.00000  Uiso   1.00
C292   C     0.37563   0.50020   0.25766   0.00000  Uiso   1.00
C293   C     0.52487   0.35716   0.27938   0.00000  Uiso   1.00
C294   C     0.47523   0.64269   0.22048   0.00000  Uiso   1.00
C295   C     0.47513   0.35716   0.22062   0.00000  Uiso   1.00
C296   C     0.52477   0.64270   0.27951   0.00000  Uiso   1.00
N297   N     0.50000   0.61907   0.25000   0.00000  Uiso   1.00
N298   N     0.50000   0.38093   0.25000   0.00000  Uiso   1.00
Br299  Br    0.58768   0.49016   0.37483   0.00000  Uiso   1.00
Br300  Br    0.41231   0.49013   0.12516   0.00000  Uiso   1.00
Br301  Br    0.41423   0.51975   0.36813   0.00000  Uiso   1.00
Br302  Br    0.58576   0.51984   0.13184   0.00000  Uiso   1.00
C303   C     0.38437   0.48267   0.45617   0.00000  Uiso   1.00
H304   H     0.39023   0.45613   0.43102   0.00000  Uiso   1.00
H305   H     0.36626   0.46619   0.48253   0.00000  Uiso   1.00
H306   H     0.36550   0.51022   0.44149   0.00000  Uiso   1.00
C307   C     0.61560   0.48261   0.04385   0.00000  Uiso   1.00
H308   H     0.60970   0.45613   0.06905   0.00000  Uiso   1.00
H309   H     0.63365   0.46602   0.01749   0.00000  Uiso   1.00
H310   H     0.63453   0.51015   0.05846   0.00000  Uiso   1.00
Br311  Br    0.37998   0.54758   0.04117   0.00000  Uiso   1.00
Br312  Br    0.62008   0.54752   0.45885   0.00000  Uiso   1.00
Br313  Br    0.37746   0.40290   0.27808   0.00000  Uiso   1.00
Br314  Br    0.62207   0.59809   0.22373   0.00000  Uiso   1.00
Br315  Br    0.62252   0.40291   0.22188   0.00000  Uiso   1.00
Br316  Br    0.37795   0.59808   0.27631   0.00000  Uiso   1.00
Br317  Br    0.56066   0.38806   0.32109   0.00000  Uiso   1.00
Br318  Br    0.43999   0.61137   0.17814   0.00000  Uiso   1.00
Br319  Br    0.43934   0.38804   0.17891   0.00000  Uiso   1.00
Br320  Br    0.56000   0.61138   0.32187   0.00000  Uiso   1.00
O321   O     0.77226   0.53821   0.24999   0.00000  Uiso   1.00
O322   O     0.89441   0.46179   0.25000   0.00000  Uiso   1.00
O323   O     0.89441   0.53821   0.25000   0.00000  Uiso   1.00
O324   O     0.77226   0.46179   0.24999   0.00000  Uiso   1.00
C325   C     0.75344   0.50003   0.25382   0.00000  Uiso   1.00
C326   C     0.91322   0.50003   0.24618   0.00000  Uiso   1.00
O327   O     0.83333   0.53823   0.18392   0.00000  Uiso   1.00
O328   O     0.83334   0.46177   0.31607   0.00000  Uiso   1.00
O329   O     0.83334   0.53823   0.31607   0.00000  Uiso   1.00
O330   O     0.83333   0.46177   0.18392   0.00000  Uiso   1.00
C331   C     0.83309   0.50009   0.16366   0.00000  Uiso   1.00
C332   C     0.83358   0.50009   0.33634   0.00000  Uiso   1.00
Zn333  Zn    0.83333   0.55104   0.25000   0.00000  Uiso   1.00
Zn334  Zn    0.83333   0.44896   0.25000   0.00000  Uiso   1.00
C335   C     0.87110   0.50159   0.40753   0.00000  Uiso   1.00
C336   C     0.79556   0.50158   0.09247   0.00000  Uiso   1.00
C337   C     0.83340   0.50081   0.38401   0.00000  Uiso   1.00
C338   C     0.83327   0.50080   0.11599   0.00000  Uiso   1.00
C339   C     0.79562   0.50418   0.40507   0.00000  Uiso   1.00
C340   C     0.87104   0.50419   0.09493   0.00000  Uiso   1.00
C341   C     0.79497   0.50210   0.45198   0.00000  Uiso   1.00
C342   C     0.87169   0.50210   0.04802   0.00000  Uiso   1.00
C343   C     0.83320   0.50399   0.47646   0.00000  Uiso   1.00
C344   C     0.83346   0.50399   0.02354   0.00000  Uiso   1.00
C345   C     0.87117   0.50649   0.45407   0.00000  Uiso   1.00
C346   C     0.79549   0.50648   0.04593   0.00000  Uiso   1.00
C347   C     0.75771   0.50109   0.47553   0.00000  Uiso   1.00
C348   C     0.90895   0.50108   0.02448   0.00000  Uiso   1.00
C349   C     0.75861   0.51158   0.02076   0.00000  Uiso   1.00
C350   C     0.90806   0.51158   0.47925   0.00000  Uiso   1.00
C351   C     0.68735   0.45905   0.25615   0.00000  Uiso   1.00
C352   C     0.97924   0.54147   0.24412   0.00000  Uiso   1.00
C353   C     0.97931   0.45905   0.24382   0.00000  Uiso   1.00
C354   C     0.68744   0.54147   0.25589   0.00000  Uiso   1.00
C355   C     0.95770   0.50020   0.24234   0.00000  Uiso   1.00
C356   C     0.70896   0.50020   0.25766   0.00000  Uiso   1.00
C357   C     0.85820   0.35716   0.27938   0.00000  Uiso   1.00
C358   C     0.80856   0.64269   0.22048   0.00000  Uiso   1.00
C359   C     0.80847   0.35716   0.22062   0.00000  Uiso   1.00
C360   C     0.85810   0.64270   0.27951   0.00000  Uiso   1.00
N361   N     0.83333   0.61907   0.25000   0.00000  Uiso   1.00
N362   N     0.83333   0.38093   0.25000   0.00000  Uiso   1.00
Br363  Br    0.92101   0.49016   0.37483   0.00000  Uiso   1.00
Br364  Br    0.74564   0.49013   0.12516   0.00000  Uiso   1.00
Br365  Br    0.74756   0.51975   0.36813   0.00000  Uiso   1.00
Br366  Br    0.91910   0.51984   0.13184   0.00000  Uiso   1.00
C367   C     0.71771   0.48267   0.45617   0.00000  Uiso   1.00
H368   H     0.72357   0.45613   0.43102   0.00000  Uiso   1.00
H369   H     0.69959   0.46619   0.48253   0.00000  Uiso   1.00
H370   H     0.69884   0.51022   0.44149   0.00000  Uiso   1.00
C371   C     0.94893   0.48261   0.04385   0.00000  Uiso   1.00
H372   H     0.94304   0.45613   0.06905   0.00000  Uiso   1.00
H373   H     0.96698   0.46602   0.01749   0.00000  Uiso   1.00
H374   H     0.96787   0.51015   0.05846   0.00000  Uiso   1.00
Br375  Br    0.71332   0.54758   0.04117   0.00000  Uiso   1.00
Br376  Br    0.95341   0.54752   0.45885   0.00000  Uiso   1.00
Br377  Br    0.71080   0.40290   0.27808   0.00000  Uiso   1.00
Br378  Br    0.95540   0.59809   0.22373   0.00000  Uiso   1.00
Br379  Br    0.95585   0.40291   0.22188   0.00000  Uiso   1.00
Br380  Br    0.71128   0.59808   0.27631   0.00000  Uiso   1.00
Br381  Br    0.89400   0.38806   0.32109   0.00000  Uiso   1.00
Br382  Br    0.77333   0.61137   0.17814   0.00000  Uiso   1.00
Br383  Br    0.77268   0.38804   0.17891   0.00000  Uiso   1.00
Br384  Br    0.89334   0.61138   0.32187   0.00000  Uiso   1.00
O385   O     0.10559   0.87154   0.24999   0.00000  Uiso   1.00
O386   O     0.22774   0.79513   0.25000   0.00000  Uiso   1.00
O387   O     0.22774   0.87154   0.25000   0.00000  Uiso   1.00
O388   O     0.10559   0.79513   0.24999   0.00000  Uiso   1.00
C389   C     0.08678   0.83337   0.25382   0.00000  Uiso   1.00
C390   C     0.24656   0.83337   0.24618   0.00000  Uiso   1.00
O391   O     0.16666   0.87156   0.18392   0.00000  Uiso   1.00
O392   O     0.16667   0.79511   0.31607   0.00000  Uiso   1.00
O393   O     0.16667   0.87156   0.31607   0.00000  Uiso   1.00
O394   O     0.16666   0.79511   0.18392   0.00000  Uiso   1.00
C395   C     0.16642   0.83342   0.16366   0.00000  Uiso   1.00
C396   C     0.16692   0.83342   0.33634   0.00000  Uiso   1.00
Zn397  Zn    0.16667   0.88437   0.25000   0.00000  Uiso   1.00
Zn398  Zn    0.16667   0.78229   0.25000   0.00000  Uiso   1.00
C399   C     0.20444   0.83492   0.40753   0.00000  Uiso   1.00
C400   C     0.12889   0.83491   0.09247   0.00000  Uiso   1.00
C401   C     0.16673   0.83414   0.38401   0.00000  Uiso   1.00
C402   C     0.16660   0.83414   0.11599   0.00000  Uiso   1.00
C403   C     0.12895   0.83751   0.40507   0.00000  Uiso   1.00
C404   C     0.20437   0.83752   0.09493   0.00000  Uiso   1.00
C405   C     0.12830   0.83543   0.45198   0.00000  Uiso   1.00
C406   C     0.20502   0.83543   0.04802   0.00000  Uiso   1.00
C407   C     0.16653   0.83732   0.47646   0.00000  Uiso   1.00
C408   C     0.16680   0.83732   0.02354   0.00000  Uiso   1.00
C409   C     0.20451   0.83982   0.45407   0.00000  Uiso   1.00
C410   C     0.12882   0.83981   0.04593   0.00000  Uiso   1.00
C411   C     0.09104   0.83443   0.47553   0.00000  Uiso   1.00
C412   C     0.24228   0.83441   0.02448   0.00000  Uiso   1.00
C413   C     0.09194   0.84492   0.02076   0.00000  Uiso   1.00
C414   C     0.24139   0.84491   0.47925   0.00000  Uiso   1.00
C415   C     0.02069   0.79238   0.25615   0.00000  Uiso   1.00
C416   C     0.31257   0.87481   0.24412   0.00000  Uiso   1.00
C417   C     0.31264   0.79238   0.24382   0.00000  Uiso   1.00
C418   C     0.02077   0.87480   0.25589   0.00000  Uiso   1.00
C419   C     0.29104   0.83354   0.24234   0.00000  Uiso   1.00
C420   C     0.04230   0.83353   0.25766   0.00000  Uiso   1.00
C421   C     0.19153   0.69050   0.27938   0.00000  Uiso   1.00
C422   C     0.14190   0.97603   0.22048   0.00000  Uiso   1.00
C423   C     0.14180   0.69049   0.22062   0.00000  Uiso   1.00
C424   C     0.19144   0.97603   0.27951   0.00000  Uiso   1.00
N425   N     0.16667   0.95240   0.25000   0.00000  Uiso   1.00
N426   N     0.16667   0.71427   0.25000   0.00000  Uiso   1.00
Br427  Br    0.25435   0.82349   0.37483   0.00000  Uiso   1.00
Br428  Br    0.07898   0.82347   0.12516   0.00000  Uiso   1.00
Br429  Br    0.08089   0.85309   0.36813   0.00000  Uiso   1.00
Br430  Br    0.25243   0.85317   0.13184   0.00000  Uiso   1.00
C431   C     0.05104   0.81601   0.45617   0.00000  Uiso   1.00
H432   H     0.05690   0.78946   0.43102   0.00000  Uiso   1.00
H433   H     0.03292   0.79952   0.48253   0.00000  Uiso   1.00
H434   H     0.03217   0.84356   0.44149   0.00000  Uiso   1.00
C435   C     0.28226   0.81594   0.04385   0.00000  Uiso   1.00
H436   H     0.27637   0.78946   0.06905   0.00000  Uiso   1.00
H437   H     0.30032   0.79935   0.01749   0.00000  Uiso   1.00
H438   H     0.30120   0.84348   0.05846   0.00000  Uiso   1.00
Br439  Br    0.04665   0.88091   0.04117   0.00000  Uiso   1.00
Br440  Br    0.28674   0.88085   0.45885   0.00000  Uiso   1.00
Br441  Br    0.04413   0.73623   0.27808   0.00000  Uiso   1.00
Br442  Br    0.28874   0.93142   0.22373   0.00000  Uiso   1.00
Br443  Br    0.28919   0.73624   0.22188   0.00000  Uiso   1.00
Br444  Br    0.04461   0.93141   0.27631   0.00000  Uiso   1.00
Br445  Br    0.22733   0.72139   0.32109   0.00000  Uiso   1.00
Br446  Br    0.10666   0.94470   0.17814   0.00000  Uiso   1.00
Br447  Br    0.10601   0.72138   0.17891   0.00000  Uiso   1.00
Br448  Br    0.22667   0.94471   0.32187   0.00000  Uiso   1.00
O449   O     0.43892   0.87154   0.24999   0.00000  Uiso   1.00
O450   O     0.56108   0.79513   0.25000   0.00000  Uiso   1.00
O451   O     0.56108   0.87154   0.25000   0.00000  Uiso   1.00
O452   O     0.43892   0.79513   0.24999   0.00000  Uiso   1.00
C453   C     0.42011   0.83337   0.25382   0.00000  Uiso   1.00
C454   C     0.57989   0.83337   0.24618   0.00000  Uiso   1.00
O455   O     0.49999   0.87156   0.18392   0.00000  Uiso   1.00
O456   O     0.50001   0.79511   0.31607   0.00000  Uiso   1.00
O457   O     0.50001   0.87156   0.31607   0.00000  Uiso   1.00
O458   O     0.49999   0.79511   0.18392   0.00000  Uiso   1.00
C459   C     0.49975   0.83342   0.16366   0.00000  Uiso   1.00
C460   C     0.50025   0.83342   0.33634   0.00000  Uiso   1.00
Zn461  Zn    0.50000   0.88437   0.25000   0.00000  Uiso   1.00
Zn462  Zn    0.50000   0.78229   0.25000   0.00000  Uiso   1.00
C463   C     0.53777   0.83492   0.40753   0.00000  Uiso   1.00
C464   C     0.46223   0.83491   0.09247   0.00000  Uiso   1.00
C465   C     0.50006   0.83414   0.38401   0.00000  Uiso   1.00
C466   C     0.49993   0.83414   0.11599   0.00000  Uiso   1.00
C467   C     0.46229   0.83751   0.40507   0.00000  Uiso   1.00
C468   C     0.53771   0.83752   0.09493   0.00000  Uiso   1.00
C469   C     0.46164   0.83543   0.45198   0.00000  Uiso   1.00
C470   C     0.53835   0.83543   0.04802   0.00000  Uiso   1.00
C471   C     0.49987   0.83732   0.47646   0.00000  Uiso   1.00
C472   C     0.50013   0.83732   0.02354   0.00000  Uiso   1.00
C473   C     0.53784   0.83982   0.45407   0.00000  Uiso   1.00
C474   C     0.46216   0.83981   0.04593   0.00000  Uiso   1.00
C475   C     0.42438   0.83443   0.47553   0.00000  Uiso   1.00
C476   C     0.57561   0.83441   0.02448   0.00000  Uiso   1.00
C477   C     0.42528   0.84492   0.02076   0.00000  Uiso   1.00
C478   C     0.57472   0.84491   0.47925   0.00000  Uiso   1.00
C479   C     0.35402   0.79238   0.25615   0.00000  Uiso   1.00
C480   C     0.64590   0.87481   0.24412   0.00000  Uiso   1.00
C481   C     0.64597   0.79238   0.24382   0.00000  Uiso   1.00
C482   C     0.35410   0.87480   0.25589   0.00000  Uiso   1.00
C483   C     0.62437   0.83354   0.24234   0.00000  Uiso   1.00
C484   C     0.37563   0.83353   0.25766   0.00000  Uiso   1.00
C485   C     0.52487   0.69050   0.27938   0.00000  Uiso   1.00
C486   C     0.47523   0.97603   0.22048   0.00000  Uiso   1.00
C487   C     0.47513   0.69049   0.22062   0.00000  Uiso   1.00
C488   C     0.52477   0.97603   0.27951   0.00000  Uiso   1.00
N489   N     0.50000   0.95240   0.25000   0.00000  Uiso   1.00
N490   N     0.50000   0.71427   0.25000   0.00000  Uiso   1.00
Br491  Br    0.58768   0.82349   0.37483   0.00000  Uiso   1.00
Br492  Br    0.41231   0.82347   0.12516   0.00000  Uiso   1.00
Br493  Br    0.41423   0.85309   0.36813   0.00000  Uiso   1.00
Br494  Br    0.58576   0.85317   0.13184   0.00000  Uiso   1.00
C495   C     0.38437   0.81601   0.45617   0.00000  Uiso   1.00
H496   H     0.39023   0.78946   0.43102   0.00000  Uiso   1.00
H497   H     0.36626   0.79952   0.48253   0.00000  Uiso   1.00
H498   H     0.36550   0.84356   0.44149   0.00000  Uiso   1.00
C499   C     0.61560   0.81594   0.04385   0.00000  Uiso   1.00
H500   H     0.60970   0.78946   0.06905   0.00000  Uiso   1.00
H501   H     0.63365   0.79935   0.01749   0.00000  Uiso   1.00
H502   H     0.63453   0.84348   0.05846   0.00000  Uiso   1.00
Br503  Br    0.37998   0.88091   0.04117   0.00000  Uiso   1.00
Br504  Br    0.62008   0.88085   0.45885   0.00000  Uiso   1.00
Br505  Br    0.37746   0.73623   0.27808   0.00000  Uiso   1.00
Br506  Br    0.62207   0.93142   0.22373   0.00000  Uiso   1.00
Br507  Br    0.62252   0.73624   0.22188   0.00000  Uiso   1.00
Br508  Br    0.37795   0.93141   0.27631   0.00000  Uiso   1.00
Br509  Br    0.56066   0.72139   0.32109   0.00000  Uiso   1.00
Br510  Br    0.43999   0.94470   0.17814   0.00000  Uiso   1.00
Br511  Br    0.43934   0.72138   0.17891   0.00000  Uiso   1.00
Br512  Br    0.56000   0.94471   0.32187   0.00000  Uiso   1.00
O513   O     0.77226   0.87154   0.24999   0.00000  Uiso   1.00
O514   O     0.89441   0.79513   0.25000   0.00000  Uiso   1.00
O515   O     0.89441   0.87154   0.25000   0.00000  Uiso   1.00
O516   O     0.77226   0.79513   0.24999   0.00000  Uiso   1.00
C517   C     0.75344   0.83337   0.25382   0.00000  Uiso   1.00
C518   C     0.91322   0.83337   0.24618   0.00000  Uiso   1.00
O519   O     0.83333   0.87156   0.18392   0.00000  Uiso   1.00
O520   O     0.83334   0.79511   0.31607   0.00000  Uiso   1.00
O521   O     0.83334   0.87156   0.31607   0.00000  Uiso   1.00
O522   O     0.83333   0.79511   0.18392   0.00000  Uiso   1.00
C523   C     0.83309   0.83342   0.16366   0.00000  Uiso   1.00
C524   C     0.83358   0.83342   0.33634   0.00000  Uiso   1.00
Zn525  Zn    0.83333   0.88437   0.25000   0.00000  Uiso   1.00
Zn526  Zn    0.83333   0.78229   0.25000   0.00000  Uiso   1.00
C527   C     0.87110   0.83492   0.40753   0.00000  Uiso   1.00
C528   C     0.79556   0.83491   0.09247   0.00000  Uiso   1.00
C529   C     0.83340   0.83414   0.38401   0.00000  Uiso   1.00
C530   C     0.83327   0.83414   0.11599   0.00000  Uiso   1.00
C531   C     0.79562   0.83751   0.40507   0.00000  Uiso   1.00
C532   C     0.87104   0.83752   0.09493   0.00000  Uiso   1.00
C533   C     0.79497   0.83543   0.45198   0.00000  Uiso   1.00
C534   C     0.87169   0.83543   0.04802   0.00000  Uiso   1.00
C535   C     0.83320   0.83732   0.47646   0.00000  Uiso   1.00
C536   C     0.83346   0.83732   0.02354   0.00000  Uiso   1.00
C537   C     0.87117   0.83982   0.45407   0.00000  Uiso   1.00
C538   C     0.79549   0.83981   0.04593   0.00000  Uiso   1.00
C539   C     0.75771   0.83443   0.47553   0.00000  Uiso   1.00
C540   C     0.90895   0.83441   0.02448   0.00000  Uiso   1.00
C541   C     0.75861   0.84492   0.02076   0.00000  Uiso   1.00
C542   C     0.90806   0.84491   0.47925   0.00000  Uiso   1.00
C543   C     0.68735   0.79238   0.25615   0.00000  Uiso   1.00
C544   C     0.97924   0.87481   0.24412   0.00000  Uiso   1.00
C545   C     0.97931   0.79238   0.24382   0.00000  Uiso   1.00
C546   C     0.68744   0.87480   0.25589   0.00000  Uiso   1.00
C547   C     0.95770   0.83354   0.24234   0.00000  Uiso   1.00
C548   C     0.70896   0.83353   0.25766   0.00000  Uiso   1.00
C549   C     0.85820   0.69050   0.27938   0.00000  Uiso   1.00
C550   C     0.80856   0.97603   0.22048   0.00000  Uiso   1.00
C551   C     0.80847   0.69049   0.22062   0.00000  Uiso   1.00
C552   C     0.85810   0.97603   0.27951   0.00000  Uiso   1.00
N553   N     0.83333   0.95240   0.25000   0.00000  Uiso   1.00
N554   N     0.83333   0.71427   0.25000   0.00000  Uiso   1.00
Br555  Br    0.92101   0.82349   0.37483   0.00000  Uiso   1.00
Br556  Br    0.74564   0.82347   0.12516   0.00000  Uiso   1.00
Br557  Br    0.74756   0.85309   0.36813   0.00000  Uiso   1.00
Br558  Br    0.91910   0.85317   0.13184   0.00000  Uiso   1.00
C559   C     0.71771   0.81601   0.45617   0.00000  Uiso   1.00
H560   H     0.72357   0.78946   0.43102   0.00000  Uiso   1.00
H561   H     0.69959   0.79952   0.48253   0.00000  Uiso   1.00
H562   H     0.69884   0.84356   0.44149   0.00000  Uiso   1.00
C563   C     0.94893   0.81594   0.04385   0.00000  Uiso   1.00
H564   H     0.94304   0.78946   0.06905   0.00000  Uiso   1.00
H565   H     0.96698   0.79935   0.01749   0.00000  Uiso   1.00
H566   H     0.96787   0.84348   0.05846   0.00000  Uiso   1.00
Br567  Br    0.71332   0.88091   0.04117   0.00000  Uiso   1.00
Br568  Br    0.95341   0.88085   0.45885   0.00000  Uiso   1.00
Br569  Br    0.71080   0.73623   0.27808   0.00000  Uiso   1.00
Br570  Br    0.95540   0.93142   0.22373   0.00000  Uiso   1.00
Br571  Br    0.95585   0.73624   0.22188   0.00000  Uiso   1.00
Br572  Br    0.71128   0.93141   0.27631   0.00000  Uiso   1.00
Br573  Br    0.89400   0.72139   0.32109   0.00000  Uiso   1.00
Br574  Br    0.77333   0.94470   0.17814   0.00000  Uiso   1.00
Br575  Br    0.77268   0.72138   0.17891   0.00000  Uiso   1.00
Br576  Br    0.89334   0.94471   0.32187   0.00000  Uiso   1.00
O577   O     0.10559   0.20487   0.74999   0.00000  Uiso   1.00
O578   O     0.22774   0.12846   0.75000   0.00000  Uiso   1.00
O579   O     0.22774   0.20487   0.75000   0.00000  Uiso   1.00
O580   O     0.10559   0.12846   0.74999   0.00000  Uiso   1.00
C581   C     0.08678   0.16670   0.75382   0.00000  Uiso   1.00
C582   C     0.24656   0.16670   0.74618   0.00000  Uiso   1.00
O583   O     0.16666   0.20489   0.68392   0.00000  Uiso   1.00
O584   O     0.16667   0.12844   0.81607   0.00000  Uiso   1.00
O585   O     0.16667   0.20489   0.81607   0.00000  Uiso   1.00
O586   O     0.16666   0.12844   0.68392   0.00000  Uiso   1.00
C587   C     0.16642   0.16675   0.66366   0.00000  Uiso   1.00
C588   C     0.16692   0.16676   0.83634   0.00000  Uiso   1.00
Zn589  Zn    0.16667   0.21771   0.75000   0.00000  Uiso   1.00
Zn590  Zn    0.16667   0.11563   0.75000   0.00000  Uiso   1.00
C591   C     0.20444   0.16826   0.90753   0.00000  Uiso   1.00
C592   C     0.12889   0.16824   0.59247   0.00000  Uiso   1.00
C593   C     0.16673   0.16747   0.88401   0.00000  Uiso   1.00
C594   C     0.16660   0.16747   0.61599   0.00000  Uiso   1.00
C595   C     0.12895   0.17084   0.90507   0.00000  Uiso   1.00
C596   C     0.20437   0.17085   0.59493   0.00000  Uiso   1.00
C597   C     0.12830   0.16877   0.95198   0.00000  Uiso   1.00
C598   C     0.20502   0.16876   0.54802   0.00000  Uiso   1.00
C599   C     0.16653   0.17066   0.97646   0.00000  Uiso   1.00
C600   C     0.16680   0.17066   0.52354   0.00000  Uiso   1.00
C601   C     0.20451   0.17315   0.95407   0.00000  Uiso   1.00
C602   C     0.12882   0.17315   0.54593   0.00000  Uiso   1.00
C603   C     0.09104   0.16776   0.97553   0.00000  Uiso   1.00
C604   C     0.24228   0.16775   0.52448   0.00000  Uiso   1.00
C605   C     0.09194   0.17825   0.52076   0.00000  Uiso   1.00
C606   C     0.24139   0.17825   0.97925   0.00000  Uiso   1.00
C607   C     0.02069   0.12571   0.75615   0.00000  Uiso   1.00
C608   C     0.31257   0.20814   0.74412   0.00000  Uiso   1.00
C609   C     0.31264   0.12572   0.74382   0.00000  Uiso   1.00
C610   C     0.02077   0.20814   0.75589   0.00000  Uiso   1.00
C611   C     0.29104   0.16687   0.74234   0.00000  Uiso   1.00
C612   C     0.04230   0.16686   0.75766   0.00000  Uiso   1.00
C613   C     0.19153   0.02383   0.77938   0.00000  Uiso   1.00
C614   C     0.14190   0.30936   0.72048   0.00000  Uiso   1.00
C615   C     0.14180   0.02382   0.72062   0.00000  Uiso   1.00
C616   C     0.19144   0.30937   0.77951   0.00000  Uiso   1.00
N617   N     0.16667   0.28573   0.75000   0.00000  Uiso   1.00
N618   N     0.16667   0.04760   0.75000   0.00000  Uiso   1.00
Br619  Br    0.25435   0.15683   0.87483   0.00000  Uiso   1.00
Br620  Br    0.07898   0.15680   0.62516   0.00000  Uiso   1.00
Br621  Br    0.08089   0.18642   0.86813   0.00000  Uiso   1.00
Br622  Br    0.25243   0.18651   0.63184   0.00000  Uiso   1.00
C623   C     0.05104   0.14934   0.95617   0.00000  Uiso   1.00
H624   H     0.05690   0.12280   0.93102   0.00000  Uiso   1.00
H625   H     0.03292   0.13285   0.98253   0.00000  Uiso   1.00
H626   H     0.03217   0.17689   0.94149   0.00000  Uiso   1.00
C627   C     0.28226   0.14928   0.54385   0.00000  Uiso   1.00
H628   H     0.27637   0.12279   0.56905   0.00000  Uiso   1.00
H629   H     0.30032   0.13269   0.51749   0.00000  Uiso   1.00
H630   H     0.30120   0.17682   0.55846   0.00000  Uiso   1.00
Br631  Br    0.04665   0.21425   0.54117   0.00000  Uiso   1.00
Br632  Br    0.28674   0.21418   0.95885   0.00000  Uiso   1.00
Br633  Br    0.04413   0.06956   0.77808   0.00000  Uiso   1.00
Br634  Br    0.28874   0.26476   0.72373   0.00000  Uiso   1.00
Br635  Br    0.28919   0.06958   0.72188   0.00000  Uiso   1.00
Br636  Br    0.04461   0.26475   0.77631   0.00000  Uiso   1.00
Br637  Br    0.22733   0.05472   0.82109   0.00000  Uiso   1.00
Br638  Br    0.10666   0.27803   0.67814   0.00000  Uiso   1.00
Br639  Br    0.10601   0.05471   0.67891   0.00000  Uiso   1.00
Br640  Br    0.22667   0.27805   0.82187   0.00000  Uiso   1.00
O641   O     0.43892   0.20487   0.74999   0.00000  Uiso   1.00
O642   O     0.56108   0.12846   0.75000   0.00000  Uiso   1.00
O643   O     0.56108   0.20487   0.75000   0.00000  Uiso   1.00
O644   O     0.43892   0.12846   0.74999   0.00000  Uiso   1.00
C645   C     0.42011   0.16670   0.75382   0.00000  Uiso   1.00
C646   C     0.57989   0.16670   0.74618   0.00000  Uiso   1.00
O647   O     0.49999   0.20489   0.68392   0.00000  Uiso   1.00
O648   O     0.50001   0.12844   0.81607   0.00000  Uiso   1.00
O649   O     0.50001   0.20489   0.81607   0.00000  Uiso   1.00
O650   O     0.49999   0.12844   0.68392   0.00000  Uiso   1.00
C651   C     0.49975   0.16675   0.66366   0.00000  Uiso   1.00
C652   C     0.50025   0.16676   0.83634   0.00000  Uiso   1.00
Zn653  Zn    0.50000   0.21771   0.75000   0.00000  Uiso   1.00
Zn654  Zn    0.50000   0.11563   0.75000   0.00000  Uiso   1.00
C655   C     0.53777   0.16826   0.90753   0.00000  Uiso   1.00
C656   C     0.46223   0.16824   0.59247   0.00000  Uiso   1.00
C657   C     0.50006   0.16747   0.88401   0.00000  Uiso   1.00
C658   C     0.49993   0.16747   0.61599   0.00000  Uiso   1.00
C659   C     0.46229   0.17084   0.90507   0.00000  Uiso   1.00
C660   C     0.53771   0.17085   0.59493   0.00000  Uiso   1.00
C661   C     0.46164   0.16877   0.95198   0.00000  Uiso   1.00
C662   C     0.53835   0.16876   0.54802   0.00000  Uiso   1.00
C663   C     0.49987   0.17066   0.97646   0.00000  Uiso   1.00
C664   C     0.50013   0.17066   0.52354   0.00000  Uiso   1.00
C665   C     0.53784   0.17315   0.95407   0.00000  Uiso   1.00
C666   C     0.46216   0.17315   0.54593   0.00000  Uiso   1.00
C667   C     0.42438   0.16776   0.97553   0.00000  Uiso   1.00
C668   C     0.57561   0.16775   0.52448   0.00000  Uiso   1.00
C669   C     0.42528   0.17825   0.52076   0.00000  Uiso   1.00
C670   C     0.57472   0.17825   0.97925   0.00000  Uiso   1.00
C671   C     0.35402   0.12571   0.75615   0.00000  Uiso   1.00
C672   C     0.64590   0.20814   0.74412   0.00000  Uiso   1.00
C673   C     0.64597   0.12572   0.74382   0.00000  Uiso   1.00
C674   C     0.35410   0.20814   0.75589   0.00000  Uiso   1.00
C675   C     0.62437   0.16687   0.74234   0.00000  Uiso   1.00
C676   C     0.37563   0.16686   0.75766   0.00000  Uiso   1.00
C677   C     0.52487   0.02383   0.77938   0.00000  Uiso   1.00
C678   C     0.47523   0.30936   0.72048   0.00000  Uiso   1.00
C679   C     0.47513   0.02382   0.72062   0.00000  Uiso   1.00
C680   C     0.52477   0.30937   0.77951   0.00000  Uiso   1.00
N681   N     0.50000   0.28573   0.75000   0.00000  Uiso   1.00
N682   N     0.50000   0.04760   0.75000   0.00000  Uiso   1.00
Br683  Br    0.58768   0.15683   0.87483   0.00000  Uiso   1.00
Br684  Br    0.41231   0.15680   0.62516   0.00000  Uiso   1.00
Br685  Br    0.41423   0.18642   0.86813   0.00000  Uiso   1.00
Br686  Br    0.58576   0.18651   0.63184   0.00000  Uiso   1.00
C687   C     0.38437   0.14934   0.95617   0.00000  Uiso   1.00
H688   H     0.39023   0.12280   0.93102   0.00000  Uiso   1.00
H689   H     0.36626   0.13285   0.98253   0.00000  Uiso   1.00
H690   H     0.36550   0.17689   0.94149   0.00000  Uiso   1.00
C691   C     0.61560   0.14928   0.54385   0.00000  Uiso   1.00
H692   H     0.60970   0.12279   0.56905   0.00000  Uiso   1.00
H693   H     0.63365   0.13269   0.51749   0.00000  Uiso   1.00
H694   H     0.63453   0.17682   0.55846   0.00000  Uiso   1.00
Br695  Br    0.37998   0.21425   0.54117   0.00000  Uiso   1.00
Br696  Br    0.62008   0.21418   0.95885   0.00000  Uiso   1.00
Br697  Br    0.37746   0.06956   0.77808   0.00000  Uiso   1.00
Br698  Br    0.62207   0.26476   0.72373   0.00000  Uiso   1.00
Br699  Br    0.62252   0.06958   0.72188   0.00000  Uiso   1.00
Br700  Br    0.37795   0.26475   0.77631   0.00000  Uiso   1.00
Br701  Br    0.56066   0.05472   0.82109   0.00000  Uiso   1.00
Br702  Br    0.43999   0.27803   0.67814   0.00000  Uiso   1.00
Br703  Br    0.43934   0.05471   0.67891   0.00000  Uiso   1.00
Br704  Br    0.56000   0.27805   0.82187   0.00000  Uiso   1.00
O705   O     0.77226   0.20487   0.74999   0.00000  Uiso   1.00
O706   O     0.89441   0.12846   0.75000   0.00000  Uiso   1.00
O707   O     0.89441   0.20487   0.75000   0.00000  Uiso   1.00
O708   O     0.77226   0.12846   0.74999   0.00000  Uiso   1.00
C709   C     0.75344   0.16670   0.75382   0.00000  Uiso   1.00
C710   C     0.91322   0.16670   0.74618   0.00000  Uiso   1.00
O711   O     0.83333   0.20489   0.68392   0.00000  Uiso   1.00
O712   O     0.83334   0.12844   0.81607   0.00000  Uiso   1.00
O713   O     0.83334   0.20489   0.81607   0.00000  Uiso   1.00
O714   O     0.83333   0.12844   0.68392   0.00000  Uiso   1.00
C715   C     0.83309   0.16675   0.66366   0.00000  Uiso   1.00
C716   C     0.83358   0.16676   0.83634   0.00000  Uiso   1.00
Zn717  Zn    0.83333   0.21771   0.75000   0.00000  Uiso   1.00
Zn718  Zn    0.83333   0.11563   0.75000   0.00000  Uiso   1.00
C719   C     0.87110   0.16826   0.90753   0.00000  Uiso   1.00
C720   C     0.79556   0.16824   0.59247   0.00000  Uiso   1.00
C721   C     0.83340   0.16747   0.88401   0.00000  Uiso   1.00
C722   C     0.83327   0.16747   0.61599   0.00000  Uiso   1.00
C723   C     0.79562   0.17084   0.90507   0.00000  Uiso   1.00
C724   C     0.87104   0.17085   0.59493   0.00000  Uiso   1.00
C725   C     0.79497   0.16877   0.95198   0.00000  Uiso   1.00
C726   C     0.87169   0.16876   0.54802   0.00000  Uiso   1.00
C727   C     0.83320   0.17066   0.97646   0.00000  Uiso   1.00
C728   C     0.83346   0.17066   0.52354   0.00000  Uiso   1.00
C729   C     0.87117   0.17315   0.95407   0.00000  Uiso   1.00
C730   C     0.79549   0.17315   0.54593   0.00000  Uiso   1.00
C731   C     0.75771   0.16776   0.97553   0.00000  Uiso   1.00
C732   C     0.90895   0.16775   0.52448   0.00000  Uiso   1.00
C733   C     0.75861   0.17825   0.52076   0.00000  Uiso   1.00
C734   C     0.90806   0.17825   0.97925   0.00000  Uiso   1.00
C735   C     0.68735   0.12571   0.75615   0.00000  Uiso   1.00
C736   C     0.97924   0.20814   0.74412   0.00000  Uiso   1.00
C737   C     0.97931   0.12572   0.74382   0.00000  Uiso   1.00
C738   C     0.68744   0.20814   0.75589   0.00000  Uiso   1.00
C739   C     0.95770   0.16687   0.74234   0.00000  Uiso   1.00
C740   C     0.70896   0.16686   0.75766   0.00000  Uiso   1.00
C741   C     0.85820   0.02383   0.77938   0.00000  Uiso   1.00
C742   C     0.80856   0.30936   0.72048   0.00000  Uiso   1.00
C743   C     0.80847   0.02382   0.72062   0.00000  Uiso   1.00
C744   C     0.85810   0.30937   0.77951   0.00000  Uiso   1.00
N745   N     0.83333   0.28573   0.75000   0.00000  Uiso   1.00
N746   N     0.83333   0.04760   0.75000   0.00000  Uiso   1.00
Br747  Br    0.92101   0.15683   0.87483   0.00000  Uiso   1.00
Br748  Br    0.74564   0.15680   0.62516   0.00000  Uiso   1.00
Br749  Br    0.74756   0.18642   0.86813   0.00000  Uiso   1.00
Br750  Br    0.91910   0.18651   0.63184   0.00000  Uiso   1.00
C751   C     0.71771   0.14934   0.95617   0.00000  Uiso   1.00
H752   H     0.72357   0.12280   0.93102   0.00000  Uiso   1.00
H753   H     0.69959   0.13285   0.98253   0.00000  Uiso   1.00
H754   H     0.69884   0.17689   0.94149   0.00000  Uiso   1.00
C755   C     0.94893   0.14928   0.54385   0.00000  Uiso   1.00
H756   H     0.94304   0.12279   0.56905   0.00000  Uiso   1.00
H757   H     0.96698   0.13269   0.51749   0.00000  Uiso   1.00
H758   H     0.96787   0.17682   0.55846   0.00000  Uiso   1.00
Br759  Br    0.71332   0.21425   0.54117   0.00000  Uiso   1.00
Br760  Br    0.95341   0.21418   0.95885   0.00000  Uiso   1.00
Br761  Br    0.71080   0.06956   0.77808   0.00000  Uiso   1.00
Br762  Br    0.95540   0.26476   0.72373   0.00000  Uiso   1.00
Br763  Br    0.95585   0.06958   0.72188   0.00000  Uiso   1.00
Br764  Br    0.71128   0.26475   0.77631   0.00000  Uiso   1.00
Br765  Br    0.89400   0.05472   0.82109   0.00000  Uiso   1.00
Br766  Br    0.77333   0.27803   0.67814   0.00000  Uiso   1.00
Br767  Br    0.77268   0.05471   0.67891   0.00000  Uiso   1.00
Br768  Br    0.89334   0.27805   0.82187   0.00000  Uiso   1.00
O769   O     0.10559   0.53821   0.74999   0.00000  Uiso   1.00
O770   O     0.22774   0.46179   0.75000   0.00000  Uiso   1.00
O771   O     0.22774   0.53821   0.75000   0.00000  Uiso   1.00
O772   O     0.10559   0.46179   0.74999   0.00000  Uiso   1.00
C773   C     0.08678   0.50003   0.75382   0.00000  Uiso   1.00
C774   C     0.24656   0.50003   0.74618   0.00000  Uiso   1.00
O775   O     0.16666   0.53823   0.68392   0.00000  Uiso   1.00
O776   O     0.16667   0.46177   0.81607   0.00000  Uiso   1.00
O777   O     0.16667   0.53823   0.81607   0.00000  Uiso   1.00
O778   O     0.16666   0.46177   0.68392   0.00000  Uiso   1.00
C779   C     0.16642   0.50009   0.66366   0.00000  Uiso   1.00
C780   C     0.16692   0.50009   0.83634   0.00000  Uiso   1.00
Zn781  Zn    0.16667   0.55104   0.75000   0.00000  Uiso   1.00
Zn782  Zn    0.16667   0.44896   0.75000   0.00000  Uiso   1.00
C783   C     0.20444   0.50159   0.90753   0.00000  Uiso   1.00
C784   C     0.12889   0.50158   0.59247   0.00000  Uiso   1.00
C785   C     0.16673   0.50081   0.88401   0.00000  Uiso   1.00
C786   C     0.16660   0.50080   0.61599   0.00000  Uiso   1.00
C787   C     0.12895   0.50418   0.90507   0.00000  Uiso   1.00
C788   C     0.20437   0.50419   0.59493   0.00000  Uiso   1.00
C789   C     0.12830   0.50210   0.95198   0.00000  Uiso   1.00
C790   C     0.20502   0.50210   0.54802   0.00000  Uiso   1.00
C791   C     0.16653   0.50399   0.97646   0.00000  Uiso   1.00
C792   C     0.16680   0.50399   0.52354   0.00000  Uiso   1.00
C793   C     0.20451   0.50649   0.95407   0.00000  Uiso   1.00
C794   C     0.12882   0.50648   0.54593   0.00000  Uiso   1.00
C795   C     0.09104   0.50109   0.97553   0.00000  Uiso   1.00
C796   C     0.24228   0.50108   0.52448   0.00000  Uiso   1.00
C797   C     0.09194   0.51158   0.52076   0.00000  Uiso   1.00
C798   C     0.24139   0.51158   0.97925   0.00000  Uiso   1.00
C799   C     0.02069   0.45905   0.75615   0.00000  Uiso   1.00
C800   C     0.31257   0.54147   0.74412   0.00000  Uiso   1.00
C801   C     0.31264   0.45905   0.74382   0.00000  Uiso   1.00
C802   C     0.02077   0.54147   0.75589   0.00000  Uiso   1.00
C803   C     0.29104   0.50020   0.74234   0.00000  Uiso   1.00
C804   C     0.04230   0.50020   0.75766   0.00000  Uiso   1.00
C805   C     0.19153   0.35716   0.77938   0.00000  Uiso   1.00
C806   C     0.14190   0.64269   0.72048   0.00000  Uiso   1.00
C807   C     0.14180   0.35716   0.72062   0.00000  Uiso   1.00
C808   C     0.19144   0.64270   0.77951   0.00000  Uiso   1.00
N809   N     0.16667   0.61907   0.75000   0.00000  Uiso   1.00
N810   N     0.16667   0.38093   0.75000   0.00000  Uiso   1.00
Br811  Br    0.25435   0.49016   0.87483   0.00000  Uiso   1.00
Br812  Br    0.07898   0.49013   0.62516   0.00000  Uiso   1.00
Br813  Br    0.08089   0.51975   0.86813   0.00000  Uiso   1.00
Br814  Br    0.25243   0.51984   0.63184   0.00000  Uiso   1.00
C815   C     0.05104   0.48267   0.95617   0.00000  Uiso   1.00
H816   H     0.05690   0.45613   0.93102   0.00000  Uiso   1.00
H817   H     0.03292   0.46619   0.98253   0.00000  Uiso   1.00
H818   H     0.03217   0.51022   0.94149   0.00000  Uiso   1.00
C819   C     0.28226   0.48261   0.54385   0.00000  Uiso   1.00
H820   H     0.27637   0.45613   0.56905   0.00000  Uiso   1.00
H821   H     0.30032   0.46602   0.51749   0.00000  Uiso   1.00
H822   H     0.30120   0.51015   0.55846   0.00000  Uiso   1.00
Br823  Br    0.04665   0.54758   0.54117   0.00000  Uiso   1.00
Br824  Br    0.28674   0.54752   0.95885   0.00000  Uiso   1.00
Br825  Br    0.04413   0.40290   0.77808   0.00000  Uiso   1.00
Br826  Br    0.28874   0.59809   0.72373   0.00000  Uiso   1.00
Br827  Br    0.28919   0.40291   0.72188   0.00000  Uiso   1.00
Br828  Br    0.04461   0.59808   0.77631   0.00000  Uiso   1.00
Br829  Br    0.22733   0.38806   0.82109   0.00000  Uiso   1.00
Br830  Br    0.10666   0.61137   0.67814   0.00000  Uiso   1.00
Br831  Br    0.10601   0.38804   0.67891   0.00000  Uiso   1.00
Br832  Br    0.22667   0.61138   0.82187   0.00000  Uiso   1.00
O833   O     0.43892   0.53821   0.74999   0.00000  Uiso   1.00
O834   O     0.56108   0.46179   0.75000   0.00000  Uiso   1.00
O835   O     0.56108   0.53821   0.75000   0.00000  Uiso   1.00
O836   O     0.43892   0.46179   0.74999   0.00000  Uiso   1.00
C837   C     0.42011   0.50003   0.75382   0.00000  Uiso   1.00
C838   C     0.57989   0.50003   0.74618   0.00000  Uiso   1.00
O839   O     0.49999   0.53823   0.68392   0.00000  Uiso   1.00
O840   O     0.50001   0.46177   0.81607   0.00000  Uiso   1.00
O841   O     0.50001   0.53823   0.81607   0.00000  Uiso   1.00
O842   O     0.49999   0.46177   0.68392   0.00000  Uiso   1.00
C843   C     0.49975   0.50009   0.66366   0.00000  Uiso   1.00
C844   C     0.50025   0.50009   0.83634   0.00000  Uiso   1.00
Zn845  Zn    0.50000   0.55104   0.75000   0.00000  Uiso   1.00
Zn846  Zn    0.50000   0.44896   0.75000   0.00000  Uiso   1.00
C847   C     0.53777   0.50159   0.90753   0.00000  Uiso   1.00
C848   C     0.46223   0.50158   0.59247   0.00000  Uiso   1.00
C849   C     0.50006   0.50081   0.88401   0.00000  Uiso   1.00
C850   C     0.49993   0.50080   0.61599   0.00000  Uiso   1.00
C851   C     0.46229   0.50418   0.90507   0.00000  Uiso   1.00
C852   C     0.53771   0.50419   0.59493   0.00000  Uiso   1.00
C853   C     0.46164   0.50210   0.95198   0.00000  Uiso   1.00
C854   C     0.53835   0.50210   0.54802   0.00000  Uiso   1.00
C855   C     0.49987   0.50399   0.97646   0.00000  Uiso   1.00
C856   C     0.50013   0.50399   0.52354   0.00000  Uiso   1.00
C857   C     0.53784   0.50649   0.95407   0.00000  Uiso   1.00
C858   C     0.46216   0.50648   0.54593   0.00000  Uiso   1.00
C859   C     0.42438   0.50109   0.97553   0.00000  Uiso   1.00
C860   C     0.57561   0.50108   0.52448   0.00000  Uiso   1.00
C861   C     0.42528   0.51158   0.52076   0.00000  Uiso   1.00
C862   C     0.57472   0.51158   0.97925   0.00000  Uiso   1.00
C863   C     0.35402   0.45905   0.75615   0.00000  Uiso   1.00
C864   C     0.64590   0.54147   0.74412   0.00000  Uiso   1.00
C865   C     0.64597   0.45905   0.74382   0.00000  Uiso   1.00
C866   C     0.35410   0.54147   0.75589   0.00000  Uiso   1.00
C867   C     0.62437   0.50020   0.74234   0.00000  Uiso   1.00
C868   C     0.37563   0.50020   0.75766   0.00000  Uiso   1.00
C869   C     0.52487   0.35716   0.77938   0.00000  Uiso   1.00
C870   C     0.47523   0.64269   0.72048   0.00000  Uiso   1.00
C871   C     0.47513   0.35716   0.72062   0.00000  Uiso   1.00
C872   C     0.52477   0.64270   0.77951   0.00000  Uiso   1.00
N873   N     0.50000   0.61907   0.75000   0.00000  Uiso   1.00
N874   N     0.50000   0.38093   0.75000   0.00000  Uiso   1.00
Br875  Br    0.58768   0.49016   0.87483   0.00000  Uiso   1.00
Br876  Br    0.41231   0.49013   0.62516   0.00000  Uiso   1.00
Br877  Br    0.41423   0.51975   0.86813   0.00000  Uiso   1.00
Br878  Br    0.58576   0.51984   0.63184   0.00000  Uiso   1.00
C879   C     0.38437   0.48267   0.95617   0.00000  Uiso   1.00
H880   H     0.39023   0.45613   0.93102   0.00000  Uiso   1.00
H881   H     0.36626   0.46619   0.98253   0.00000  Uiso   1.00
H882   H     0.36550   0.51022   0.94149   0.00000  Uiso   1.00
C883   C     0.61560   0.48261   0.54385   0.00000  Uiso   1.00
H884   H     0.60970   0.45613   0.56905   0.00000  Uiso   1.00
H885   H     0.63365   0.46602   0.51749   0.00000  Uiso   1.00
H886   H     0.63453   0.51015   0.55846   0.00000  Uiso   1.00
Br887  Br    0.37998   0.54758   0.54117   0.00000  Uiso   1.00
Br888  Br    0.62008   0.54752   0.95885   0.00000  Uiso   1.00
Br889  Br    0.37746   0.40290   0.77808   0.00000  Uiso   1.00
Br890  Br    0.62207   0.59809   0.72373   0.00000  Uiso   1.00
Br891  Br    0.62252   0.40291   0.72188   0.00000  Uiso   1.00
Br892  Br    0.37795   0.59808   0.77631   0.00000  Uiso   1.00
Br893  Br    0.56066   0.38806   0.82109   0.00000  Uiso   1.00
Br894  Br    0.43999   0.61137   0.67814   0.00000  Uiso   1.00
Br895  Br    0.43934   0.38804   0.67891   0.00000  Uiso   1.00
Br896  Br    0.56000   0.61138   0.82187   0.00000  Uiso   1.00
O897   O     0.77226   0.53821   0.74999   0.00000  Uiso   1.00
O898   O     0.89441   0.46179   0.75000   0.00000  Uiso   1.00
O899   O     0.89441   0.53821   0.75000   0.00000  Uiso   1.00
O900   O     0.77226   0.46179   0.74999   0.00000  Uiso   1.00
C901   C     0.75344   0.50003   0.75382   0.00000  Uiso   1.00
C902   C     0.91322   0.50003   0.74618   0.00000  Uiso   1.00
O903   O     0.83333   0.53823   0.68392   0.00000  Uiso   1.00
O904   O     0.83334   0.46177   0.81607   0.00000  Uiso   1.00
O905   O     0.83334   0.53823   0.81607   0.00000  Uiso   1.00
O906   O     0.83333   0.46177   0.68392   0.00000  Uiso   1.00
C907   C     0.83309   0.50009   0.66366   0.00000  Uiso   1.00
C908   C     0.83358   0.50009   0.83634   0.00000  Uiso   1.00
Zn909  Zn    0.83333   0.55104   0.75000   0.00000  Uiso   1.00
Zn910  Zn    0.83333   0.44896   0.75000   0.00000  Uiso   1.00
C911   C     0.87110   0.50159   0.90753   0.00000  Uiso   1.00
C912   C     0.79556   0.50158   0.59247   0.00000  Uiso   1.00
C913   C     0.83340   0.50081   0.88401   0.00000  Uiso   1.00
C914   C     0.83327   0.50080   0.61599   0.00000  Uiso   1.00
C915   C     0.79562   0.50418   0.90507   0.00000  Uiso   1.00
C916   C     0.87104   0.50419   0.59493   0.00000  Uiso   1.00
C917   C     0.79497   0.50210   0.95198   0.00000  Uiso   1.00
C918   C     0.87169   0.50210   0.54802   0.00000  Uiso   1.00
C919   C     0.83320   0.50399   0.97646   0.00000  Uiso   1.00
C920   C     0.83346   0.50399   0.52354   0.00000  Uiso   1.00
C921   C     0.87117   0.50649   0.95407   0.00000  Uiso   1.00
C922   C     0.79549   0.50648   0.54593   0.00000  Uiso   1.00
C923   C     0.75771   0.50109   0.97553   0.00000  Uiso   1.00
C924   C     0.90895   0.50108   0.52448   0.00000  Uiso   1.00
C925   C     0.75861   0.51158   0.52076   0.00000  Uiso   1.00
C926   C     0.90806   0.51158   0.97925   0.00000  Uiso   1.00
C927   C     0.68735   0.45905   0.75615   0.00000  Uiso   1.00
C928   C     0.97924   0.54147   0.74412   0.00000  Uiso   1.00
C929   C     0.97931   0.45905   0.74382   0.00000  Uiso   1.00
C930   C     0.68744   0.54147   0.75589   0.00000  Uiso   1.00
C931   C     0.95770   0.50020   0.74234   0.00000  Uiso   1.00
C932   C     0.70896   0.50020   0.75766   0.00000  Uiso   1.00
C933   C     0.85820   0.35716   0.77938   0.00000  Uiso   1.00
C934   C     0.80856   0.64269   0.72048   0.00000  Uiso   1.00
C935   C     0.80847   0.35716   0.72062   0.00000  Uiso   1.00
C936   C     0.85810   0.64270   0.77951   0.00000  Uiso   1.00
N937   N     0.83333   0.61907   0.75000   0.00000  Uiso   1.00
N938   N     0.83333   0.38093   0.75000   0.00000  Uiso   1.00
Br939  Br    0.92101   0.49016   0.87483   0.00000  Uiso   1.00
Br940  Br    0.74564   0.49013   0.62516   0.00000  Uiso   1.00
Br941  Br    0.74756   0.51975   0.86813   0.00000  Uiso   1.00
Br942  Br    0.91910   0.51984   0.63184   0.00000  Uiso   1.00
C943   C     0.71771   0.48267   0.95617   0.00000  Uiso   1.00
H944   H     0.72357   0.45613   0.93102   0.00000  Uiso   1.00
H945   H     0.69959   0.46619   0.98253   0.00000  Uiso   1.00
H946   H     0.69884   0.51022   0.94149   0.00000  Uiso   1.00
C947   C     0.94893   0.48261   0.54385   0.00000  Uiso   1.00
H948   H     0.94304   0.45613   0.56905   0.00000  Uiso   1.00
H949   H     0.96698   0.46602   0.51749   0.00000  Uiso   1.00
H950   H     0.96787   0.51015   0.55846   0.00000  Uiso   1.00
Br951  Br    0.71332   0.54758   0.54117   0.00000  Uiso   1.00
Br952  Br    0.95341   0.54752   0.95885   0.00000  Uiso   1.00
Br953  Br    0.71080   0.40290   0.77808   0.00000  Uiso   1.00
Br954  Br    0.95540   0.59809   0.72373   0.00000  Uiso   1.00
Br955  Br    0.95585   0.40291   0.72188   0.00000  Uiso   1.00
Br956  Br    0.71128   0.59808   0.77631   0.00000  Uiso   1.00
Br957  Br    0.89400   0.38806   0.82109   0.00000  Uiso   1.00
Br958  Br    0.77333   0.61137   0.67814   0.00000  Uiso   1.00
Br959  Br    0.77268   0.38804   0.67891   0.00000  Uiso   1.00
Br960  Br    0.89334   0.61138   0.82187   0.00000  Uiso   1.00
O961   O     0.10559   0.87154   0.74999   0.00000  Uiso   1.00
O962   O     0.22774   0.79513   0.75000   0.00000  Uiso   1.00
O963   O     0.22774   0.87154   0.75000   0.00000  Uiso   1.00
O964   O     0.10559   0.79513   0.74999   0.00000  Uiso   1.00
C965   C     0.08678   0.83337   0.75382   0.00000  Uiso   1.00
C966   C     0.24656   0.83337   0.74618   0.00000  Uiso   1.00
O967   O     0.16666   0.87156   0.68392   0.00000  Uiso   1.00
O968   O     0.16667   0.79511   0.81607   0.00000  Uiso   1.00
O969   O     0.16667   0.87156   0.81607   0.00000  Uiso   1.00
O970   O     0.16666   0.79511   0.68392   0.00000  Uiso   1.00
C971   C     0.16642   0.83342   0.66366   0.00000  Uiso   1.00
C972   C     0.16692   0.83342   0.83634   0.00000  Uiso   1.00
Zn973  Zn    0.16667   0.88437   0.75000   0.00000  Uiso   1.00
Zn974  Zn    0.16667   0.78229   0.75000   0.00000  Uiso   1.00
C975   C     0.20444   0.83492   0.90753   0.00000  Uiso   1.00
C976   C     0.12889   0.83491   0.59247   0.00000  Uiso   1.00
C977   C     0.16673   0.83414   0.88401   0.00000  Uiso   1.00
C978   C     0.16660   0.83414   0.61599   0.00000  Uiso   1.00
C979   C     0.12895   0.83751   0.90507   0.00000  Uiso   1.00
C980   C     0.20437   0.83752   0.59493   0.00000  Uiso   1.00
C981   C     0.12830   0.83543   0.95198   0.00000  Uiso   1.00
C982   C     0.20502   0.83543   0.54802   0.00000  Uiso   1.00
C983   C     0.16653   0.83732   0.97646   0.00000  Uiso   1.00
C984   C     0.16680   0.83732   0.52354   0.00000  Uiso   1.00
C985   C     0.20451   0.83982   0.95407   0.00000  Uiso   1.00
C986   C     0.12882   0.83981   0.54593   0.00000  Uiso   1.00
C987   C     0.09104   0.83443   0.97553   0.00000  Uiso   1.00
C988   C     0.24228   0.83441   0.52448   0.00000  Uiso   1.00
C989   C     0.09194   0.84492   0.52076   0.00000  Uiso   1.00
C990   C     0.24139   0.84491   0.97925   0.00000  Uiso   1.00
C991   C     0.02069   0.79238   0.75615   0.00000  Uiso   1.00
C992   C     0.31257   0.87481   0.74412   0.00000  Uiso   1.00
C993   C     0.31264   0.79238   0.74382   0.00000  Uiso   1.00
C994   C     0.02077   0.87480   0.75589   0.00000  Uiso   1.00
C995   C     0.29104   0.83354   0.74234   0.00000  Uiso   1.00
C996   C     0.04230   0.83353   0.75766   0.00000  Uiso   1.00
C997   C     0.19153   0.69050   0.77938   0.00000  Uiso   1.00
C998   C     0.14190   0.97603   0.72048   0.00000  Uiso   1.00
C999   C     0.14180   0.69049   0.72062   0.00000  Uiso   1.00
C1000  C     0.19144   0.97603   0.77951   0.00000  Uiso   1.00
N1001  N     0.16667   0.95240   0.75000   0.00000  Uiso   1.00
N1002  N     0.16667   0.71427   0.75000   0.00000  Uiso   1.00
Br1003 Br    0.25435   0.82349   0.87483   0.00000  Uiso   1.00
Br1004 Br    0.07898   0.82347   0.62516   0.00000  Uiso   1.00
Br1005 Br    0.08089   0.85309   0.86813   0.00000  Uiso   1.00
Br1006 Br    0.25243   0.85317   0.63184   0.00000  Uiso   1.00
C1007  C     0.05104   0.81601   0.95617   0.00000  Uiso   1.00
H1008  H     0.05690   0.78946   0.93102   0.00000  Uiso   1.00
H1009  H     0.03292   0.79952   0.98253   0.00000  Uiso   1.00
H1010  H     0.03217   0.84356   0.94149   0.00000  Uiso   1.00
C1011  C     0.28226   0.81594   0.54385   0.00000  Uiso   1.00
H1012  H     0.27637   0.78946   0.56905   0.00000  Uiso   1.00
H1013  H     0.30032   0.79935   0.51749   0.00000  Uiso   1.00
H1014  H     0.30120   0.84348   0.55846   0.00000  Uiso   1.00
Br1015 Br    0.04665   0.88091   0.54117   0.00000  Uiso   1.00
Br1016 Br    0.28674   0.88085   0.95885   0.00000  Uiso   1.00
Br1017 Br    0.04413   0.73623   0.77808   0.00000  Uiso   1.00
Br1018 Br    0.28874   0.93142   0.72373   0.00000  Uiso   1.00
Br1019 Br    0.28919   0.73624   0.72188   0.00000  Uiso   1.00
Br1020 Br    0.04461   0.93141   0.77631   0.00000  Uiso   1.00
Br1021 Br    0.22733   0.72139   0.82109   0.00000  Uiso   1.00
Br1022 Br    0.10666   0.94470   0.67814   0.00000  Uiso   1.00
Br1023 Br    0.10601   0.72138   0.67891   0.00000  Uiso   1.00
Br1024 Br    0.22667   0.94471   0.82187   0.00000  Uiso   1.00
O1025  O     0.43892   0.87154   0.74999   0.00000  Uiso   1.00
O1026  O     0.56108   0.79513   0.75000   0.00000  Uiso   1.00
O1027  O     0.56108   0.87154   0.75000   0.00000  Uiso   1.00
O1028  O     0.43892   0.79513   0.74999   0.00000  Uiso   1.00
C1029  C     0.42011   0.83337   0.75382   0.00000  Uiso   1.00
C1030  C     0.57989   0.83337   0.74618   0.00000  Uiso   1.00
O1031  O     0.49999   0.87156   0.68392   0.00000  Uiso   1.00
O1032  O     0.50001   0.79511   0.81607   0.00000  Uiso   1.00
O1033  O     0.50001   0.87156   0.81607   0.00000  Uiso   1.00
O1034  O     0.49999   0.79511   0.68392   0.00000  Uiso   1.00
C1035  C     0.49975   0.83342   0.66366   0.00000  Uiso   1.00
C1036  C     0.50025   0.83342   0.83634   0.00000  Uiso   1.00
Zn1037 Zn    0.50000   0.88437   0.75000   0.00000  Uiso   1.00
Zn1038 Zn    0.50000   0.78229   0.75000   0.00000  Uiso   1.00
C1039  C     0.53777   0.83492   0.90753   0.00000  Uiso   1.00
C1040  C     0.46223   0.83491   0.59247   0.00000  Uiso   1.00
C1041  C     0.50006   0.83414   0.88401   0.00000  Uiso   1.00
C1042  C     0.49993   0.83414   0.61599   0.00000  Uiso   1.00
C1043  C     0.46229   0.83751   0.90507   0.00000  Uiso   1.00
C1044  C     0.53771   0.83752   0.59493   0.00000  Uiso   1.00
C1045  C     0.46164   0.83543   0.95198   0.00000  Uiso   1.00
C1046  C     0.53835   0.83543   0.54802   0.00000  Uiso   1.00
C1047  C     0.49987   0.83732   0.97646   0.00000  Uiso   1.00
C1048  C     0.50013   0.83732   0.52354   0.00000  Uiso   1.00
C1049  C     0.53784   0.83982   0.95407   0.00000  Uiso   1.00
C1050  C     0.46216   0.83981   0.54593   0.00000  Uiso   1.00
C1051  C     0.42438   0.83443   0.97553   0.00000  Uiso   1.00
C1052  C     0.57561   0.83441   0.52448   0.00000  Uiso   1.00
C1053  C     0.42528   0.84492   0.52076   0.00000  Uiso   1.00
C1054  C     0.57472   0.84491   0.97925   0.00000  Uiso   1.00
C1055  C     0.35402   0.79238   0.75615   0.00000  Uiso   1.00
C1056  C     0.64590   0.87481   0.74412   0.00000  Uiso   1.00
C1057  C     0.64597   0.79238   0.74382   0.00000  Uiso   1.00
C1058  C     0.35410   0.87480   0.75589   0.00000  Uiso   1.00
C1059  C     0.62437   0.83354   0.74234   0.00000  Uiso   1.00
C1060  C     0.37563   0.83353   0.75766   0.00000  Uiso   1.00
C1061  C     0.52487   0.69050   0.77938   0.00000  Uiso   1.00
C1062  C     0.47523   0.97603   0.72048   0.00000  Uiso   1.00
C1063  C     0.47513   0.69049   0.72062   0.00000  Uiso   1.00
C1064  C     0.52477   0.97603   0.77951   0.00000  Uiso   1.00
N1065  N     0.50000   0.95240   0.75000   0.00000  Uiso   1.00
N1066  N     0.50000   0.71427   0.75000   0.00000  Uiso   1.00
Br1067 Br    0.58768   0.82349   0.87483   0.00000  Uiso   1.00
Br1068 Br    0.41231   0.82347   0.62516   0.00000  Uiso   1.00
Br1069 Br    0.41423   0.85309   0.86813   0.00000  Uiso   1.00
Br1070 Br    0.58576   0.85317   0.63184   0.00000  Uiso   1.00
C1071  C     0.38437   0.81601   0.95617   0.00000  Uiso   1.00
H1072  H     0.39023   0.78946   0.93102   0.00000  Uiso   1.00
H1073  H     0.36626   0.79952   0.98253   0.00000  Uiso   1.00
H1074  H     0.36550   0.84356   0.94149   0.00000  Uiso   1.00
C1075  C     0.61560   0.81594   0.54385   0.00000  Uiso   1.00
H1076  H     0.60970   0.78946   0.56905   0.00000  Uiso   1.00
H1077  H     0.63365   0.79935   0.51749   0.00000  Uiso   1.00
H1078  H     0.63453   0.84348   0.55846   0.00000  Uiso   1.00
Br1079 Br    0.37998   0.88091   0.54117   0.00000  Uiso   1.00
Br1080 Br    0.62008   0.88085   0.95885   0.00000  Uiso   1.00
Br1081 Br    0.37746   0.73623   0.77808   0.00000  Uiso   1.00
Br1082 Br    0.62207   0.93142   0.72373   0.00000  Uiso   1.00
Br1083 Br    0.62252   0.73624   0.72188   0.00000  Uiso   1.00
Br1084 Br    0.37795   0.93141   0.77631   0.00000  Uiso   1.00
Br1085 Br    0.56066   0.72139   0.82109   0.00000  Uiso   1.00
Br1086 Br    0.43999   0.94470   0.67814   0.00000  Uiso   1.00
Br1087 Br    0.43934   0.72138   0.67891   0.00000  Uiso   1.00
Br1088 Br    0.56000   0.94471   0.82187   0.00000  Uiso   1.00
O1089  O     0.77226   0.87154   0.74999   0.00000  Uiso   1.00
O1090  O     0.89441   0.79513   0.75000   0.00000  Uiso   1.00
O1091  O     0.89441   0.87154   0.75000   0.00000  Uiso   1.00
O1092  O     0.77226   0.79513   0.74999   0.00000  Uiso   1.00
C1093  C     0.75344   0.83337   0.75382   0.00000  Uiso   1.00
C1094  C     0.91322   0.83337   0.74618   0.00000  Uiso   1.00
O1095  O     0.83333   0.87156   0.68392   0.00000  Uiso   1.00
O1096  O     0.83334   0.79511   0.81607   0.00000  Uiso   1.00
O1097  O     0.83334   0.87156   0.81607   0.00000  Uiso   1.00
O1098  O     0.83333   0.79511   0.68392   0.00000  Uiso   1.00
C1099  C     0.83309   0.83342   0.66366   0.00000  Uiso   1.00
C1100  C     0.83358   0.83342   0.83634   0.00000  Uiso   1.00
Zn1101 Zn    0.83333   0.88437   0.75000   0.00000  Uiso   1.00
Zn1102 Zn    0.83333   0.78229   0.75000   0.00000  Uiso   1.00
C1103  C     0.87110   0.83492   0.90753   0.00000  Uiso   1.00
C1104  C     0.79556   0.83491   0.59247   0.00000  Uiso   1.00
C1105  C     0.83340   0.83414   0.88401   0.00000  Uiso   1.00
C1106  C     0.83327   0.83414   0.61599   0.00000  Uiso   1.00
C1107  C     0.79562   0.83751   0.90507   0.00000  Uiso   1.00
C1108  C     0.87104   0.83752   0.59493   0.00000  Uiso   1.00
C1109  C     0.79497   0.83543   0.95198   0.00000  Uiso   1.00
C1110  C     0.87169   0.83543   0.54802   0.00000  Uiso   1.00
C1111  C     0.83320   0.83732   0.97646   0.00000  Uiso   1.00
C1112  C     0.83346   0.83732   0.52354   0.00000  Uiso   1.00
C1113  C     0.87117   0.83982   0.95407   0.00000  Uiso   1.00
C1114  C     0.79549   0.83981   0.54593   0.00000  Uiso   1.00
C1115  C     0.75771   0.83443   0.97553   0.00000  Uiso   1.00
C1116  C     0.90895   0.83441   0.52448   0.00000  Uiso   1.00
C1117  C     0.75861   0.84492   0.52076   0.00000  Uiso   1.00
C1118  C     0.90806   0.84491   0.97925   0.00000  Uiso   1.00
C1119  C     0.68735   0.79238   0.75615   0.00000  Uiso   1.00
C1120  C     0.97924   0.87481   0.74412   0.00000  Uiso   1.00
C1121  C     0.97931   0.79238   0.74382   0.00000  Uiso   1.00
C1122  C     0.68744   0.87480   0.75589   0.00000  Uiso   1.00
C1123  C     0.95770   0.83354   0.74234   0.00000  Uiso   1.00
C1124  C     0.70896   0.83353   0.75766   0.00000  Uiso   1.00
C1125  C     0.85820   0.69050   0.77938   0.00000  Uiso   1.00
C1126  C     0.80856   0.97603   0.72048   0.00000  Uiso   1.00
C1127  C     0.80847   0.69049   0.72062   0.00000  Uiso   1.00
C1128  C     0.85810   0.97603   0.77951   0.00000  Uiso   1.00
N1129  N     0.83333   0.95240   0.75000   0.00000  Uiso   1.00
N1130  N     0.83333   0.71427   0.75000   0.00000  Uiso   1.00
Br1131 Br    0.92101   0.82349   0.87483   0.00000  Uiso   1.00
Br1132 Br    0.74564   0.82347   0.62516   0.00000  Uiso   1.00
Br1133 Br    0.74756   0.85309   0.86813   0.00000  Uiso   1.00
Br1134 Br    0.91910   0.85317   0.63184   0.00000  Uiso   1.00
C1135  C     0.71771   0.81601   0.95617   0.00000  Uiso   1.00
H1136  H     0.72357   0.78946   0.93102   0.00000  Uiso   1.00
H1137  H     0.69959   0.79952   0.98253   0.00000  Uiso   1.00
H1138  H     0.69884   0.84356   0.94149   0.00000  Uiso   1.00
C1139  C     0.94893   0.81594   0.54385   0.00000  Uiso   1.00
H1140  H     0.94304   0.78946   0.56905   0.00000  Uiso   1.00
H1141  H     0.96698   0.79935   0.51749   0.00000  Uiso   1.00
H1142  H     0.96787   0.84348   0.55846   0.00000  Uiso   1.00
Br1143 Br    0.71332   0.88091   0.54117   0.00000  Uiso   1.00
Br1144 Br    0.95341   0.88085   0.95885   0.00000  Uiso   1.00
Br1145 Br    0.71080   0.73623   0.77808   0.00000  Uiso   1.00
Br1146 Br    0.95540   0.93142   0.72373   0.00000  Uiso   1.00
Br1147 Br    0.95585   0.73624   0.72188   0.00000  Uiso   1.00
Br1148 Br    0.71128   0.93141   0.77631   0.00000  Uiso   1.00
Br1149 Br    0.89400   0.72139   0.82109   0.00000  Uiso   1.00
Br1150 Br    0.77333   0.94470   0.67814   0.00000  Uiso   1.00
Br1151 Br    0.77268   0.72138   0.67891   0.00000  Uiso   1.00
Br1152 Br    0.89334   0.94471   0.82187   0.00000  Uiso   1.00
loop_
_geom_bond_atom_site_label_1
_geom_bond_atom_site_label_2
_geom_bond_distance
_geom_bond_site_symmetry_2
_ccdc_geom_bond_type
O1     C5      1.295   .     A
O1     Zn13    2.016   .     S
O2     C6      1.296   .     A
O2     Zn14    2.016   .     S
O3     Zn13    2.016   .     S
O3     C6      1.295   .     A
O4     Zn14    2.016   .     S
O4     C5      1.296   .     A
C5     C36     1.449   .     S
C6     C35     1.449   .     S
O7     C11     1.286   .     A
O7     Zn13    2.014   .     S
O8     C12     1.290   .     A
O8     Zn14    2.014   .     S
O9     Zn13    2.014   .     S
O9     C12     1.286   .     A
O10    C11     1.290   .     A
O10    Zn14    2.014   .     S
C11    C18     1.427   .     S
C12    C17     1.427   .     S
Zn13   N41     2.022   .     S
Zn14   N42     2.022   .     S
C15    Br43    1.943   .     S
C15    C25     1.401   .     A
C15    C17     1.394   .     A
C16    Br44    1.943   .     S
C16    C18     1.394   .     A
C16    C26     1.401   .     A
C17    C19     1.396   .     A
C18    C20     1.396   .     A
C19    C21     1.406   .     A
C19    Br45    1.942   .     S
C20    C22     1.406   .     A
C20    Br46    1.941   .     S
C21    C27     1.415   .     A
C21    C23     1.423   .     A
C22    C28     1.415   .     A
C22    C24     1.423   .     A
C23    C25     1.419   .     A
C23    C600    1.409   .     S
C24    C26     1.419   .     A
C24    C599    1.409   1_554 S
C25    C30     1.404   .     A
C26    C29     1.404   .     A
C27    C47     1.509   .     S
C27    C605    1.389   .     S
C28    C51     1.509   .     S
C28    C606    1.389   1_554 S
C29    Br55    1.929   .     S
C29    C603    1.389   1_554 S
C30    Br56    1.929   .     S
C30    C604    1.389   .     S
C31    Br57    1.941   .     S
C31    C36     1.410   .     A
C31    C161    1.381   1_455 S
C32    C35     1.412   .     A
C32    Br58    1.943   .     S
C32    C98     1.382   .     S
C33    C35     1.410   .     A
C33    Br59    1.941   .     S
C33    C95     1.381   .     S
C34    C36     1.412   .     A
C34    Br60    1.943   .     S
C34    C160    1.382   1_455 S
C37    Br61    1.915   .     S
C37    N42     1.373   .     A
C37    C424    1.421   1_545 S
C38    N41     1.371   .     A
C38    Br62    1.923   .     S
C38    C231    1.421   .     S
C39    N42     1.373   .     A
C39    Br63    1.915   .     S
C39    C422    1.421   1_545 S
C40    N41     1.371   .     A
C40    Br64    1.923   .     S
C40    C229    1.421   .     S
C47    H48     1.110   .     S
C47    H49     1.110   .     S
C47    H50     1.106   .     S
C51    H54     1.106   .     S
C51    H52     1.110   .     S
C51    H53     1.110   .     S
O65    C69     1.295   .     A
O65    Zn77    2.016   .     S
O66    C70     1.296   .     A
O66    Zn78    2.016   .     S
O67    Zn77    2.016   .     S
O67    C70     1.295   .     A
O68    Zn78    2.016   .     S
O68    C69     1.296   .     A
C69    C100    1.449   .     S
C70    C99     1.449   .     S
O71    C75     1.286   .     A
O71    Zn77    2.014   .     S
O72    C76     1.290   .     A
O72    Zn78    2.014   .     S
O73    Zn77    2.014   .     S
O73    C76     1.286   .     A
O74    C75     1.290   .     A
O74    Zn78    2.014   .     S
C75    C82     1.427   .     S
C76    C81     1.427   .     S
Zn77   N105    2.022   .     S
Zn78   N106    2.022   .     S
C79    Br107   1.943   .     S
C79    C89     1.401   .     A
C79    C81     1.394   .     A
C80    Br108   1.943   .     S
C80    C82     1.394   .     A
C80    C90     1.401   .     A
C81    C83     1.396   .     A
C82    C84     1.396   .     A
C83    C85     1.406   .     A
C83    Br109   1.942   .     S
C84    C86     1.406   .     A
C84    Br110   1.941   .     S
C85    C91     1.415   .     A
C85    C87     1.423   .     A
C86    C92     1.415   .     A
C86    C88     1.423   .     A
C87    C89     1.419   .     A
C87    C664    1.409   .     S
C88    C90     1.419   .     A
C88    C663    1.409   1_554 S
C89    C94     1.404   .     A
C90    C93     1.404   .     A
C91    C111    1.509   .     S
C91    C669    1.389   .     S
C92    C115    1.509   .     S
C92    C670    1.389   1_554 S
C93    Br119   1.929   .     S
C93    C667    1.389   1_554 S
C94    Br120   1.929   .     S
C94    C668    1.389   .     S
C95    Br121   1.941   .     S
C95    C100    1.410   .     A
C96    C99     1.412   .     A
C96    Br122   1.943   .     S
C96    C162    1.382   .     S
C97    C99     1.410   .     A
C97    Br123   1.941   .     S
C97    C159    1.381   .     S
C98    C100    1.412   .     A
C98    Br124   1.943   .     S
C101   Br125   1.915   .     S
C101   N106    1.373   .     A
C101   C488    1.421   1_545 S
C102   N105    1.371   .     A
C102   Br126   1.923   .     S
C102   C295    1.421   .     S
C103   N106    1.373   .     A
C103   Br127   1.915   .     S
C103   C486    1.421   1_545 S
C104   N105    1.371   .     A
C104   Br128   1.923   .     S
C104   C293    1.421   .     S
C111   H112    1.110   .     S
C111   H113    1.110   .     S
C111   H114    1.106   .     S
C115   H118    1.106   .     S
C115   H116    1.110   .     S
C115   H117    1.110   .     S
O129   C133    1.295   .     A
O129   Zn141   2.016   .     S
O130   C134    1.296   .     A
O130   Zn142   2.016   .     S
O131   Zn141   2.016   .     S
O131   C134    1.295   .     A
O132   Zn142   2.016   .     S
O132   C133    1.296   .     A
C133   C164    1.449   .     S
C134   C163    1.449   .     S
O135   C139    1.286   .     A
O135   Zn141   2.014   .     S
O136   C140    1.290   .     A
O136   Zn142   2.014   .     S
O137   Zn141   2.014   .     S
O137   C140    1.286   .     A
O138   C139    1.290   .     A
O138   Zn142   2.014   .     S
C139   C146    1.427   .     S
C140   C145    1.427   .     S
Zn141  N169    2.022   .     S
Zn142  N170    2.022   .     S
C143   Br171   1.943   .     S
C143   C153    1.401   .     A
C143   C145    1.394   .     A
C144   Br172   1.943   .     S
C144   C146    1.394   .     A
C144   C154    1.401   .     A
C145   C147    1.396   .     A
C146   C148    1.396   .     A
C147   C149    1.406   .     A
C147   Br173   1.942   .     S
C148   C150    1.406   .     A
C148   Br174   1.941   .     S
C149   C155    1.415   .     A
C149   C151    1.423   .     A
C150   C156    1.415   .     A
C150   C152    1.423   .     A
C151   C153    1.419   .     A
C151   C728    1.409   .     S
C152   C154    1.419   .     A
C152   C727    1.409   1_554 S
C153   C158    1.404   .     A
C154   C157    1.404   .     A
C155   C175    1.509   .     S
C155   C733    1.389   .     S
C156   C179    1.509   .     S
C156   C734    1.389   1_554 S
C157   Br183   1.929   .     S
C157   C731    1.389   1_554 S
C158   Br184   1.929   .     S
C158   C732    1.389   .     S
C159   Br185   1.941   .     S
C159   C164    1.410   .     A
C160   C163    1.412   .     A
C160   Br186   1.943   .     S
C160   C34     1.382   1_655 S
C161   C163    1.410   .     A
C161   Br187   1.941   .     S
C161   C31     1.381   1_655 S
C162   C164    1.412   .     A
C162   Br188   1.943   .     S
C165   Br189   1.915   .     S
C165   N170    1.373   .     A
C165   C552    1.421   1_545 S
C166   N169    1.371   .     A
C166   Br190   1.923   .     S
C166   C359    1.421   .     S
C167   N170    1.373   .     A
C167   Br191   1.915   .     S
C167   C550    1.421   1_545 S
C168   N169    1.371   .     A
C168   Br192   1.923   .     S
C168   C357    1.421   .     S
C175   H176    1.110   .     S
C175   H177    1.110   .     S
C175   H178    1.106   .     S
C179   H182    1.106   .     S
C179   H180    1.110   .     S
C179   H181    1.110   .     S
O193   C197    1.295   .     A
O193   Zn205   2.016   .     S
O194   C198    1.296   .     A
O194   Zn206   2.016   .     S
O195   Zn205   2.016   .     S
O195   C198    1.295   .     A
O196   Zn206   2.016   .     S
O196   C197    1.296   .     A
C197   C228    1.449   .     S
C198   C227    1.449   .     S
O199   C203    1.286   .     A
O199   Zn205   2.014   .     S
O200   C204    1.290   .     A
O200   Zn206   2.014   .     S
O201   Zn205   2.014   .     S
O201   C204    1.286   .     A
O202   C203    1.290   .     A
O202   Zn206   2.014   .     S
C203   C210    1.427   .     S
C204   C209    1.427   .     S
Zn205  N233    2.022   .     S
Zn206  N234    2.022   .     S
C207   Br235   1.943   .     S
C207   C217    1.401   .     A
C207   C209    1.394   .     A
C208   Br236   1.943   .     S
C208   C210    1.394   .     A
C208   C218    1.401   .     A
C209   C211    1.396   .     A
C210   C212    1.396   .     A
C211   C213    1.406   .     A
C211   Br237   1.942   .     S
C212   C214    1.406   .     A
C212   Br238   1.941   .     S
C213   C219    1.415   .     A
C213   C215    1.423   .     A
C214   C220    1.415   .     A
C214   C216    1.423   .     A
C215   C217    1.419   .     A
C215   C792    1.409   .     S
C216   C218    1.419   .     A
C216   C791    1.409   1_554 S
C217   C222    1.404   .     A
C218   C221    1.404   .     A
C219   C239    1.509   .     S
C219   C797    1.389   .     S
C220   C243    1.509   .     S
C220   C798    1.389   1_554 S
C221   Br247   1.929   .     S
C221   C795    1.389   1_554 S
C222   Br248   1.929   .     S
C222   C796    1.389   .     S
C223   Br249   1.941   .     S
C223   C228    1.410   .     A
C223   C353    1.381   1_455 S
C224   C227    1.412   .     A
C224   Br250   1.943   .     S
C224   C290    1.382   .     S
C225   C227    1.410   .     A
C225   Br251   1.941   .     S
C225   C287    1.381   .     S
C226   C228    1.412   .     A
C226   Br252   1.943   .     S
C226   C352    1.382   1_455 S
C229   Br253   1.915   .     S
C229   N234    1.373   .     A
C230   N233    1.371   .     A
C230   Br254   1.923   .     S
C230   C423    1.421   .     S
C231   N234    1.373   .     A
C231   Br255   1.915   .     S
C232   N233    1.371   .     A
C232   Br256   1.923   .     S
C232   C421    1.421   .     S
C239   H240    1.110   .     S
C239   H241    1.110   .     S
C239   H242    1.106   .     S
C243   H246    1.106   .     S
C243   H244    1.110   .     S
C243   H245    1.110   .     S
O257   C261    1.295   .     A
O257   Zn269   2.016   .     S
O258   C262    1.296   .     A
O258   Zn270   2.016   .     S
O259   Zn269   2.016   .     S
O259   C262    1.295   .     A
O260   Zn270   2.016   .     S
O260   C261    1.296   .     A
C261   C292    1.449   .     S
C262   C291    1.449   .     S
O263   C267    1.286   .     A
O263   Zn269   2.014   .     S
O264   C268    1.290   .     A
O264   Zn270   2.014   .     S
O265   Zn269   2.014   .     S
O265   C268    1.286   .     A
O266   C267    1.290   .     A
O266   Zn270   2.014   .     S
C267   C274    1.427   .     S
C268   C273    1.427   .     S
Zn269  N297    2.022   .     S
Zn270  N298    2.022   .     S
C271   Br299   1.943   .     S
C271   C281    1.401   .     A
C271   C273    1.394   .     A
C272   Br300   1.943   .     S
C272   C274    1.394   .     A
C272   C282    1.401   .     A
C273   C275    1.396   .     A
C274   C276    1.396   .     A
C275   C277    1.406   .     A
C275   Br301   1.942   .     S
C276   C278    1.406   .     A
C276   Br302   1.941   .     S
C277   C283    1.415   .     A
C277   C279    1.423   .     A
C278   C284    1.415   .     A
C278   C280    1.423   .     A
C279   C281    1.419   .     A
C279   C856    1.409   .     S
C280   C282    1.419   .     A
C280   C855    1.409   1_554 S
C281   C286    1.404   .     A
C282   C285    1.404   .     A
C283   C303    1.509   .     S
C283   C861    1.389   .     S
C284   C307    1.509   .     S
C284   C862    1.389   1_554 S
C285   Br311   1.929   .     S
C285   C859    1.389   1_554 S
C286   Br312   1.929   .     S
C286   C860    1.389   .     S
C287   Br313   1.941   .     S
C287   C292    1.410   .     A
C288   C291    1.412   .     A
C288   Br314   1.943   .     S
C288   C354    1.382   .     S
C289   C291    1.410   .     A
C289   Br315   1.941   .     S
C289   C351    1.381   .     S
C290   C292    1.412   .     A
C290   Br316   1.943   .     S
C293   Br317   1.915   .     S
C293   N298    1.373   .     A
C294   N297    1.371   .     A
C294   Br318   1.923   .     S
C294   C487    1.421   .     S
C295   N298    1.373   .     A
C295   Br319   1.915   .     S
C296   N297    1.371   .     A
C296   Br320   1.923   .     S
C296   C485    1.421   .     S
C303   H304    1.110   .     S
C303   H305    1.110   .     S
C303   H306    1.106   .     S
C307   H310    1.106   .     S
C307   H308    1.110   .     S
C307   H309    1.110   .     S
O321   C325    1.295   .     A
O321   Zn333   2.016   .     S
O322   C326    1.296   .     A
O322   Zn334   2.016   .     S
O323   Zn333   2.016   .     S
O323   C326    1.295   .     A
O324   Zn334   2.016   .     S
O324   C325    1.296   .     A
C325   C356    1.449   .     S
C326   C355    1.449   .     S
O327   C331    1.286   .     A
O327   Zn333   2.014   .     S
O328   C332    1.290   .     A
O328   Zn334   2.014   .     S
O329   Zn333   2.014   .     S
O329   C332    1.286   .     A
O330   C331    1.290   .     A
O330   Zn334   2.014   .     S
C331   C338    1.427   .     S
C332   C337    1.427   .     S
Zn333  N361    2.022   .     S
Zn334  N362    2.022   .     S
C335   Br363   1.943   .     S
C335   C345    1.401   .     A
C335   C337    1.394   .     A
C336   Br364   1.943   .     S
C336   C338    1.394   .     A
C336   C346    1.401   .     A
C337   C339    1.396   .     A
C338   C340    1.396   .     A
C339   C341    1.406   .     A
C339   Br365   1.942   .     S
C340   C342    1.406   .     A
C340   Br366   1.941   .     S
C341   C347    1.415   .     A
C341   C343    1.423   .     A
C342   C348    1.415   .     A
C342   C344    1.423   .     A
C343   C345    1.419   .     A
C343   C920    1.409   .     S
C344   C346    1.419   .     A
C344   C919    1.409   1_554 S
C345   C350    1.404   .     A
C346   C349    1.404   .     A
C347   C367    1.509   .     S
C347   C925    1.389   .     S
C348   C371    1.509   .     S
C348   C926    1.389   1_554 S
C349   Br375   1.929   .     S
C349   C923    1.389   1_554 S
C350   Br376   1.929   .     S
C350   C924    1.389   .     S
C351   Br377   1.941   .     S
C351   C356    1.410   .     A
C352   C355    1.412   .     A
C352   Br378   1.943   .     S
C352   C226    1.382   1_655 S
C353   C355    1.410   .     A
C353   Br379   1.941   .     S
C353   C223    1.381   1_655 S
C354   C356    1.412   .     A
C354   Br380   1.943   .     S
C357   Br381   1.915   .     S
C357   N362    1.373   .     A
C358   N361    1.371   .     A
C358   Br382   1.923   .     S
C358   C551    1.421   .     S
C359   N362    1.373   .     A
C359   Br383   1.915   .     S
C360   N361    1.371   .     A
C360   Br384   1.923   .     S
C360   C549    1.421   .     S
C367   H368    1.110   .     S
C367   H369    1.110   .     S
C367   H370    1.106   .     S
C371   H374    1.106   .     S
C371   H372    1.110   .     S
C371   H373    1.110   .     S
O385   C389    1.295   .     A
O385   Zn397   2.016   .     S
O386   C390    1.296   .     A
O386   Zn398   2.016   .     S
O387   Zn397   2.016   .     S
O387   C390    1.295   .     A
O388   Zn398   2.016   .     S
O388   C389    1.296   .     A
C389   C420    1.449   .     S
C390   C419    1.449   .     S
O391   C395    1.286   .     A
O391   Zn397   2.014   .     S
O392   C396    1.290   .     A
O392   Zn398   2.014   .     S
O393   Zn397   2.014   .     S
O393   C396    1.286   .     A
O394   C395    1.290   .     A
O394   Zn398   2.014   .     S
C395   C402    1.427   .     S
C396   C401    1.427   .     S
Zn397  N425    2.022   .     S
Zn398  N426    2.022   .     S
C399   Br427   1.943   .     S
C399   C409    1.401   .     A
C399   C401    1.394   .     A
C400   Br428   1.943   .     S
C400   C402    1.394   .     A
C400   C410    1.401   .     A
C401   C403    1.396   .     A
C402   C404    1.396   .     A
C403   C405    1.406   .     A
C403   Br429   1.942   .     S
C404   C406    1.406   .     A
C404   Br430   1.941   .     S
C405   C411    1.415   .     A
C405   C407    1.423   .     A
C406   C412    1.415   .     A
C406   C408    1.423   .     A
C407   C409    1.419   .     A
C407   C984    1.409   .     S
C408   C410    1.419   .     A
C408   C983    1.409   1_554 S
C409   C414    1.404   .     A
C410   C413    1.404   .     A
C411   C431    1.509   .     S
C411   C989    1.389   .     S
C412   C435    1.509   .     S
C412   C990    1.389   1_554 S
C413   Br439   1.929   .     S
C413   C987    1.389   1_554 S
C414   Br440   1.929   .     S
C414   C988    1.389   .     S
C415   Br441   1.941   .     S
C415   C420    1.410   .     A
C415   C545    1.381   1_455 S
C416   C419    1.412   .     A
C416   Br442   1.943   .     S
C416   C482    1.382   .     S
C417   C419    1.410   .     A
C417   Br443   1.941   .     S
C417   C479    1.381   .     S
C418   C420    1.412   .     A
C418   Br444   1.943   .     S
C418   C544    1.382   1_455 S
C421   Br445   1.915   .     S
C421   N426    1.373   .     A
C422   N425    1.371   .     A
C422   Br446   1.923   .     S
C422   C39     1.421   1_565 S
C423   N426    1.373   .     A
C423   Br447   1.915   .     S
C424   N425    1.371   .     A
C424   Br448   1.923   .     S
C424   C37     1.421   1_565 S
C431   H432    1.110   .     S
C431   H433    1.110   .     S
C431   H434    1.106   .     S
C435   H438    1.106   .     S
C435   H436    1.110   .     S
C435   H437    1.110   .     S
O449   C453    1.295   .     A
O449   Zn461   2.016   .     S
O450   C454    1.296   .     A
O450   Zn462   2.016   .     S
O451   Zn461   2.016   .     S
O451   C454    1.295   .     A
O452   Zn462   2.016   .     S
O452   C453    1.296   .     A
C453   C484    1.449   .     S
C454   C483    1.449   .     S
O455   C459    1.286   .     A
O455   Zn461   2.014   .     S
O456   C460    1.290   .     A
O456   Zn462   2.014   .     S
O457   Zn461   2.014   .     S
O457   C460    1.286   .     A
O458   C459    1.290   .     A
O458   Zn462   2.014   .     S
C459   C466    1.427   .     S
C460   C465    1.427   .     S
Zn461  N489    2.022   .     S
Zn462  N490    2.022   .     S
C463   Br491   1.943   .     S
C463   C473    1.401   .     A
C463   C465    1.394   .     A
C464   Br492   1.943   .     S
C464   C466    1.394   .     A
C464   C474    1.401   .     A
C465   C467    1.396   .     A
C466   C468    1.396   .     A
C467   C469    1.406   .     A
C467   Br493   1.942   .     S
C468   C470    1.406   .     A
C468   Br494   1.941   .     S
C469   C475    1.415   .     A
C469   C471    1.423   .     A
C470   C476    1.415   .     A
C470   C472    1.423   .     A
C471   C473    1.419   .     A
C471   C1048   1.409   .     S
C472   C474    1.419   .     A
C472   C1047   1.409   1_554 S
C473   C478    1.404   .     A
C474   C477    1.404   .     A
C475   C495    1.509   .     S
C475   C1053   1.389   .     S
C476   C499    1.509   .     S
C476   C1054   1.389   1_554 S
C477   Br503   1.929   .     S
C477   C1051   1.389   1_554 S
C478   Br504   1.929   .     S
C478   C1052   1.389   .     S
C479   Br505   1.941   .     S
C479   C484    1.410   .     A
C480   C483    1.412   .     A
C480   Br506   1.943   .     S
C480   C546    1.382   .     S
C481   C483    1.410   .     A
C481   Br507   1.941   .     S
C481   C543    1.381   .     S
C482   C484    1.412   .     A
C482   Br508   1.943   .     S
C485   Br509   1.915   .     S
C485   N490    1.373   .     A
C486   N489    1.371   .     A
C486   Br510   1.923   .     S
C486   C103    1.421   1_565 S
C487   N490    1.373   .     A
C487   Br511   1.915   .     S
C488   N489    1.371   .     A
C488   Br512   1.923   .     S
C488   C101    1.421   1_565 S
C495   H496    1.110   .     S
C495   H497    1.110   .     S
C495   H498    1.106   .     S
C499   H502    1.106   .     S
C499   H500    1.110   .     S
C499   H501    1.110   .     S
O513   C517    1.295   .     A
O513   Zn525   2.016   .     S
O514   C518    1.296   .     A
O514   Zn526   2.016   .     S
O515   Zn525   2.016   .     S
O515   C518    1.295   .     A
O516   Zn526   2.016   .     S
O516   C517    1.296   .     A
C517   C548    1.449   .     S
C518   C547    1.449   .     S
O519   C523    1.286   .     A
O519   Zn525   2.014   .     S
O520   C524    1.290   .     A
O520   Zn526   2.014   .     S
O521   Zn525   2.014   .     S
O521   C524    1.286   .     A
O522   C523    1.290   .     A
O522   Zn526   2.014   .     S
C523   C530    1.427   .     S
C524   C529    1.427   .     S
Zn525  N553    2.022   .     S
Zn526  N554    2.022   .     S
C527   Br555   1.943   .     S
C527   C537    1.401   .     A
C527   C529    1.394   .     A
C528   Br556   1.943   .     S
C528   C530    1.394   .     A
C528   C538    1.401   .     A
C529   C531    1.396   .     A
C530   C532    1.396   .     A
C531   C533    1.406   .     A
C531   Br557   1.942   .     S
C532   C534    1.406   .     A
C532   Br558   1.941   .     S
C533   C539    1.415   .     A
C533   C535    1.423   .     A
C534   C540    1.415   .     A
C534   C536    1.423   .     A
C535   C537    1.419   .     A
C535   C1112   1.409   .     S
C536   C538    1.419   .     A
C536   C1111   1.409   1_554 S
C537   C542    1.404   .     A
C538   C541    1.404   .     A
C539   C559    1.509   .     S
C539   C1117   1.389   .     S
C540   C563    1.509   .     S
C540   C1118   1.389   1_554 S
C541   Br567   1.929   .     S
C541   C1115   1.389   1_554 S
C542   Br568   1.929   .     S
C542   C1116   1.389   .     S
C543   Br569   1.941   .     S
C543   C548    1.410   .     A
C544   C547    1.412   .     A
C544   Br570   1.943   .     S
C544   C418    1.382   1_655 S
C545   C547    1.410   .     A
C545   Br571   1.941   .     S
C545   C415    1.381   1_655 S
C546   C548    1.412   .     A
C546   Br572   1.943   .     S
C549   Br573   1.915   .     S
C549   N554    1.373   .     A
C550   N553    1.371   .     A
C550   Br574   1.923   .     S
C550   C167    1.421   1_565 S
C551   N554    1.373   .     A
C551   Br575   1.915   .     S
C552   N553    1.371   .     A
C552   Br576   1.923   .     S
C552   C165    1.421   1_565 S
C559   H560    1.110   .     S
C559   H561    1.110   .     S
C559   H562    1.106   .     S
C563   H566    1.106   .     S
C563   H564    1.110   .     S
C563   H565    1.110   .     S
O577   C581    1.295   .     A
O577   Zn589   2.016   .     S
O578   C582    1.296   .     A
O578   Zn590   2.016   .     S
O579   Zn589   2.016   .     S
O579   C582    1.295   .     A
O580   Zn590   2.016   .     S
O580   C581    1.296   .     A
C581   C612    1.449   .     S
C582   C611    1.449   .     S
O583   C587    1.286   .     A
O583   Zn589   2.014   .     S
O584   C588    1.290   .     A
O584   Zn590   2.014   .     S
O585   Zn589   2.014   .     S
O585   C588    1.286   .     A
O586   C587    1.290   .     A
O586   Zn590   2.014   .     S
C587   C594    1.427   .     S
C588   C593    1.427   .     S
Zn589  N617    2.022   .     S
Zn590  N618    2.022   .     S
C591   Br619   1.943   .     S
C591   C601    1.401   .     A
C591   C593    1.394   .     A
C592   Br620   1.943   .     S
C592   C594    1.394   .     A
C592   C602    1.401   .     A
C593   C595    1.396   .     A
C594   C596    1.396   .     A
C595   C597    1.406   .     A
C595   Br621   1.942   .     S
C596   C598    1.406   .     A
C596   Br622   1.941   .     S
C597   C603    1.415   .     A
C597   C599    1.423   .     A
C598   C604    1.415   .     A
C598   C600    1.423   .     A
C599   C601    1.419   .     A
C599   C24     1.409   1_556 S
C600   C602    1.419   .     A
C601   C606    1.404   .     A
C602   C605    1.404   .     A
C603   C623    1.509   .     S
C603   C29     1.389   1_556 S
C604   C627    1.509   .     S
C605   Br631   1.929   .     S
C606   Br632   1.929   .     S
C606   C28     1.389   1_556 S
C607   Br633   1.941   .     S
C607   C612    1.410   .     A
C607   C737    1.381   1_455 S
C608   C611    1.412   .     A
C608   Br634   1.943   .     S
C608   C674    1.382   .     S
C609   C611    1.410   .     A
C609   Br635   1.941   .     S
C609   C671    1.381   .     S
C610   C612    1.412   .     A
C610   Br636   1.943   .     S
C610   C736    1.382   1_455 S
C613   Br637   1.915   .     S
C613   N618    1.373   .     A
C613   C1000   1.421   1_545 S
C614   N617    1.371   .     A
C614   Br638   1.923   .     S
C614   C807    1.421   .     S
C615   N618    1.373   .     A
C615   Br639   1.915   .     S
C615   C998    1.421   1_545 S
C616   N617    1.371   .     A
C616   Br640   1.923   .     S
C616   C805    1.421   .     S
C623   H624    1.110   .     S
C623   H625    1.110   .     S
C623   H626    1.106   .     S
C627   H630    1.106   .     S
C627   H628    1.110   .     S
C627   H629    1.110   .     S
O641   C645    1.295   .     A
O641   Zn653   2.016   .     S
O642   C646    1.296   .     A
O642   Zn654   2.016   .     S
O643   Zn653   2.016   .     S
O643   C646    1.295   .     A
O644   Zn654   2.016   .     S
O644   C645    1.296   .     A
C645   C676    1.449   .     S
C646   C675    1.449   .     S
O647   C651    1.286   .     A
O647   Zn653   2.014   .     S
O648   C652    1.290   .     A
O648   Zn654   2.014   .     S
O649   Zn653   2.014   .     S
O649   C652    1.286   .     A
O650   C651    1.290   .     A
O650   Zn654   2.014   .     S
C651   C658    1.427   .     S
C652   C657    1.427   .     S
Zn653  N681    2.022   .     S
Zn654  N682    2.022   .     S
C655   Br683   1.943   .     S
C655   C665    1.401   .     A
C655   C657    1.394   .     A
C656   Br684   1.943   .     S
C656   C658    1.394   .     A
C656   C666    1.401   .     A
C657   C659    1.396   .     A
C658   C660    1.396   .     A
C659   C661    1.406   .     A
C659   Br685   1.942   .     S
C660   C662    1.406   .     A
C660   Br686   1.941   .     S
C661   C667    1.415   .     A
C661   C663    1.423   .     A
C662   C668    1.415   .     A
C662   C664    1.423   .     A
C663   C665    1.419   .     A
C663   C88     1.409   1_556 S
C664   C666    1.419   .     A
C665   C670    1.404   .     A
C666   C669    1.404   .     A
C667   C687    1.509   .     S
C667   C93     1.389   1_556 S
C668   C691    1.509   .     S
C669   Br695   1.929   .     S
C670   Br696   1.929   .     S
C670   C92     1.389   1_556 S
C671   Br697   1.941   .     S
C671   C676    1.410   .     A
C672   C675    1.412   .     A
C672   Br698   1.943   .     S
C672   C738    1.382   .     S
C673   C675    1.410   .     A
C673   Br699   1.941   .     S
C673   C735    1.381   .     S
C674   C676    1.412   .     A
C674   Br700   1.943   .     S
C677   Br701   1.915   .     S
C677   N682    1.373   .     A
C677   C1064   1.421   1_545 S
C678   N681    1.371   .     A
C678   Br702   1.923   .     S
C678   C871    1.421   .     S
C679   N682    1.373   .     A
C679   Br703   1.915   .     S
C679   C1062   1.421   1_545 S
C680   N681    1.371   .     A
C680   Br704   1.923   .     S
C680   C869    1.421   .     S
C687   H688    1.110   .     S
C687   H689    1.110   .     S
C687   H690    1.106   .     S
C691   H694    1.106   .     S
C691   H692    1.110   .     S
C691   H693    1.110   .     S
O705   C709    1.295   .     A
O705   Zn717   2.016   .     S
O706   C710    1.296   .     A
O706   Zn718   2.016   .     S
O707   Zn717   2.016   .     S
O707   C710    1.295   .     A
O708   Zn718   2.016   .     S
O708   C709    1.296   .     A
C709   C740    1.449   .     S
C710   C739    1.449   .     S
O711   C715    1.286   .     A
O711   Zn717   2.014   .     S
O712   C716    1.290   .     A
O712   Zn718   2.014   .     S
O713   Zn717   2.014   .     S
O713   C716    1.286   .     A
O714   C715    1.290   .     A
O714   Zn718   2.014   .     S
C715   C722    1.427   .     S
C716   C721    1.427   .     S
Zn717  N745    2.022   .     S
Zn718  N746    2.022   .     S
C719   Br747   1.943   .     S
C719   C729    1.401   .     A
C719   C721    1.394   .     A
C720   Br748   1.943   .     S
C720   C722    1.394   .     A
C720   C730    1.401   .     A
C721   C723    1.396   .     A
C722   C724    1.396   .     A
C723   C725    1.406   .     A
C723   Br749   1.942   .     S
C724   C726    1.406   .     A
C724   Br750   1.941   .     S
C725   C731    1.415   .     A
C725   C727    1.423   .     A
C726   C732    1.415   .     A
C726   C728    1.423   .     A
C727   C729    1.419   .     A
C727   C152    1.409   1_556 S
C728   C730    1.419   .     A
C729   C734    1.404   .     A
C730   C733    1.404   .     A
C731   C751    1.509   .     S
C731   C157    1.389   1_556 S
C732   C755    1.509   .     S
C733   Br759   1.929   .     S
C734   Br760   1.929   .     S
C734   C156    1.389   1_556 S
C735   Br761   1.941   .     S
C735   C740    1.410   .     A
C736   C739    1.412   .     A
C736   Br762   1.943   .     S
C736   C610    1.382   1_655 S
C737   C739    1.410   .     A
C737   Br763   1.941   .     S
C737   C607    1.381   1_655 S
C738   C740    1.412   .     A
C738   Br764   1.943   .     S
C741   Br765   1.915   .     S
C741   N746    1.373   .     A
C741   C1128   1.421   1_545 S
C742   N745    1.371   .     A
C742   Br766   1.923   .     S
C742   C935    1.421   .     S
C743   N746    1.373   .     A
C743   Br767   1.915   .     S
C743   C1126   1.421   1_545 S
C744   N745    1.371   .     A
C744   Br768   1.923   .     S
C744   C933    1.421   .     S
C751   H752    1.110   .     S
C751   H753    1.110   .     S
C751   H754    1.106   .     S
C755   H758    1.106   .     S
C755   H756    1.110   .     S
C755   H757    1.110   .     S
O769   C773    1.295   .     A
O769   Zn781   2.016   .     S
O770   C774    1.296   .     A
O770   Zn782   2.016   .     S
O771   Zn781   2.016   .     S
O771   C774    1.295   .     A
O772   Zn782   2.016   .     S
O772   C773    1.296   .     A
C773   C804    1.449   .     S
C774   C803    1.449   .     S
O775   C779    1.286   .     A
O775   Zn781   2.014   .     S
O776   C780    1.290   .     A
O776   Zn782   2.014   .     S
O777   Zn781   2.014   .     S
O777   C780    1.286   .     A
O778   C779    1.290   .     A
O778   Zn782   2.014   .     S
C779   C786    1.427   .     S
C780   C785    1.427   .     S
Zn781  N809    2.022   .     S
Zn782  N810    2.022   .     S
C783   Br811   1.943   .     S
C783   C793    1.401   .     A
C783   C785    1.394   .     A
C784   Br812   1.943   .     S
C784   C786    1.394   .     A
C784   C794    1.401   .     A
C785   C787    1.396   .     A
C786   C788    1.396   .     A
C787   C789    1.406   .     A
C787   Br813   1.942   .     S
C788   C790    1.406   .     A
C788   Br814   1.941   .     S
C789   C795    1.415   .     A
C789   C791    1.423   .     A
C790   C796    1.415   .     A
C790   C792    1.423   .     A
C791   C793    1.419   .     A
C791   C216    1.409   1_556 S
C792   C794    1.419   .     A
C793   C798    1.404   .     A
C794   C797    1.404   .     A
C795   C815    1.509   .     S
C795   C221    1.389   1_556 S
C796   C819    1.509   .     S
C797   Br823   1.929   .     S
C798   Br824   1.929   .     S
C798   C220    1.389   1_556 S
C799   Br825   1.941   .     S
C799   C804    1.410   .     A
C799   C929    1.381   1_455 S
C800   C803    1.412   .     A
C800   Br826   1.943   .     S
C800   C866    1.382   .     S
C801   C803    1.410   .     A
C801   Br827   1.941   .     S
C801   C863    1.381   .     S
C802   C804    1.412   .     A
C802   Br828   1.943   .     S
C802   C928    1.382   1_455 S
C805   Br829   1.915   .     S
C805   N810    1.373   .     A
C806   N809    1.371   .     A
C806   Br830   1.923   .     S
C806   C999    1.421   .     S
C807   N810    1.373   .     A
C807   Br831   1.915   .     S
C808   N809    1.371   .     A
C808   Br832   1.923   .     S
C808   C997    1.421   .     S
C815   H816    1.110   .     S
C815   H817    1.110   .     S
C815   H818    1.106   .     S
C819   H822    1.106   .     S
C819   H820    1.110   .     S
C819   H821    1.110   .     S
O833   C837    1.295   .     A
O833   Zn845   2.016   .     S
O834   C838    1.296   .     A
O834   Zn846   2.016   .     S
O835   Zn845   2.016   .     S
O835   C838    1.295   .     A
O836   Zn846   2.016   .     S
O836   C837    1.296   .     A
C837   C868    1.449   .     S
C838   C867    1.449   .     S
O839   C843    1.286   .     A
O839   Zn845   2.014   .     S
O840   C844    1.290   .     A
O840   Zn846   2.014   .     S
O841   Zn845   2.014   .     S
O841   C844    1.286   .     A
O842   C843    1.290   .     A
O842   Zn846   2.014   .     S
C843   C850    1.427   .     S
C844   C849    1.427   .     S
Zn845  N873    2.022   .     S
Zn846  N874    2.022   .     S
C847   Br875   1.943   .     S
C847   C857    1.401   .     A
C847   C849    1.394   .     A
C848   Br876   1.943   .     S
C848   C850    1.394   .     A
C848   C858    1.401   .     A
C849   C851    1.396   .     A
C850   C852    1.396   .     A
C851   C853    1.406   .     A
C851   Br877   1.942   .     S
C852   C854    1.406   .     A
C852   Br878   1.941   .     S
C853   C859    1.415   .     A
C853   C855    1.423   .     A
C854   C860    1.415   .     A
C854   C856    1.423   .     A
C855   C857    1.419   .     A
C855   C280    1.409   1_556 S
C856   C858    1.419   .     A
C857   C862    1.404   .     A
C858   C861    1.404   .     A
C859   C879    1.509   .     S
C859   C285    1.389   1_556 S
C860   C883    1.509   .     S
C861   Br887   1.929   .     S
C862   Br888   1.929   .     S
C862   C284    1.389   1_556 S
C863   Br889   1.941   .     S
C863   C868    1.410   .     A
C864   C867    1.412   .     A
C864   Br890   1.943   .     S
C864   C930    1.382   .     S
C865   C867    1.410   .     A
C865   Br891   1.941   .     S
C865   C927    1.381   .     S
C866   C868    1.412   .     A
C866   Br892   1.943   .     S
C869   Br893   1.915   .     S
C869   N874    1.373   .     A
C870   N873    1.371   .     A
C870   Br894   1.923   .     S
C870   C1063   1.421   .     S
C871   N874    1.373   .     A
C871   Br895   1.915   .     S
C872   N873    1.371   .     A
C872   Br896   1.923   .     S
C872   C1061   1.421   .     S
C879   H880    1.110   .     S
C879   H881    1.110   .     S
C879   H882    1.106   .     S
C883   H886    1.106   .     S
C883   H884    1.110   .     S
C883   H885    1.110   .     S
O897   C901    1.295   .     A
O897   Zn909   2.016   .     S
O898   C902    1.296   .     A
O898   Zn910   2.016   .     S
O899   Zn909   2.016   .     S
O899   C902    1.295   .     A
O900   Zn910   2.016   .     S
O900   C901    1.296   .     A
C901   C932    1.449   .     S
C902   C931    1.449   .     S
O903   C907    1.286   .     A
O903   Zn909   2.014   .     S
O904   C908    1.290   .     A
O904   Zn910   2.014   .     S
O905   Zn909   2.014   .     S
O905   C908    1.286   .     A
O906   C907    1.290   .     A
O906   Zn910   2.014   .     S
C907   C914    1.427   .     S
C908   C913    1.427   .     S
Zn909  N937    2.022   .     S
Zn910  N938    2.022   .     S
C911   Br939   1.943   .     S
C911   C921    1.401   .     A
C911   C913    1.394   .     A
C912   Br940   1.943   .     S
C912   C914    1.394   .     A
C912   C922    1.401   .     A
C913   C915    1.396   .     A
C914   C916    1.396   .     A
C915   C917    1.406   .     A
C915   Br941   1.942   .     S
C916   C918    1.406   .     A
C916   Br942   1.941   .     S
C917   C923    1.415   .     A
C917   C919    1.423   .     A
C918   C924    1.415   .     A
C918   C920    1.423   .     A
C919   C921    1.419   .     A
C919   C344    1.409   1_556 S
C920   C922    1.419   .     A
C921   C926    1.404   .     A
C922   C925    1.404   .     A
C923   C943    1.509   .     S
C923   C349    1.389   1_556 S
C924   C947    1.509   .     S
C925   Br951   1.929   .     S
C926   Br952   1.929   .     S
C926   C348    1.389   1_556 S
C927   Br953   1.941   .     S
C927   C932    1.410   .     A
C928   C931    1.412   .     A
C928   Br954   1.943   .     S
C928   C802    1.382   1_655 S
C929   C931    1.410   .     A
C929   Br955   1.941   .     S
C929   C799    1.381   1_655 S
C930   C932    1.412   .     A
C930   Br956   1.943   .     S
C933   Br957   1.915   .     S
C933   N938    1.373   .     A
C934   N937    1.371   .     A
C934   Br958   1.923   .     S
C934   C1127   1.421   .     S
C935   N938    1.373   .     A
C935   Br959   1.915   .     S
C936   N937    1.371   .     A
C936   Br960   1.923   .     S
C936   C1125   1.421   .     S
C943   H944    1.110   .     S
C943   H945    1.110   .     S
C943   H946    1.106   .     S
C947   H950    1.106   .     S
C947   H948    1.110   .     S
C947   H949    1.110   .     S
O961   C965    1.295   .     A
O961   Zn973   2.016   .     S
O962   C966    1.296   .     A
O962   Zn974   2.016   .     S
O963   Zn973   2.016   .     S
O963   C966    1.295   .     A
O964   Zn974   2.016   .     S
O964   C965    1.296   .     A
C965   C996    1.449   .     S
C966   C995    1.449   .     S
O967   C971    1.286   .     A
O967   Zn973   2.014   .     S
O968   C972    1.290   .     A
O968   Zn974   2.014   .     S
O969   Zn973   2.014   .     S
O969   C972    1.286   .     A
O970   C971    1.290   .     A
O970   Zn974   2.014   .     S
C971   C978    1.427   .     S
C972   C977    1.427   .     S
Zn973  N1001   2.022   .     S
Zn974  N1002   2.022   .     S
C975   Br1003  1.943   .     S
C975   C985    1.401   .     A
C975   C977    1.394   .     A
C976   Br1004  1.943   .     S
C976   C978    1.394   .     A
C976   C986    1.401   .     A
C977   C979    1.396   .     A
C978   C980    1.396   .     A
C979   C981    1.406   .     A
C979   Br1005  1.942   .     S
C980   C982    1.406   .     A
C980   Br1006  1.941   .     S
C981   C987    1.415   .     A
C981   C983    1.423   .     A
C982   C988    1.415   .     A
C982   C984    1.423   .     A
C983   C985    1.419   .     A
C983   C408    1.409   1_556 S
C984   C986    1.419   .     A
C985   C990    1.404   .     A
C986   C989    1.404   .     A
C987   C1007   1.509   .     S
C987   C413    1.389   1_556 S
C988   C1011   1.509   .     S
C989   Br1015  1.929   .     S
C990   Br1016  1.929   .     S
C990   C412    1.389   1_556 S
C991   Br1017  1.941   .     S
C991   C996    1.410   .     A
C991   C1121   1.381   1_455 S
C992   C995    1.412   .     A
C992   Br1018  1.943   .     S
C992   C1058   1.382   .     S
C993   C995    1.410   .     A
C993   Br1019  1.941   .     S
C993   C1055   1.381   .     S
C994   C996    1.412   .     A
C994   Br1020  1.943   .     S
C994   C1120   1.382   1_455 S
C997   Br1021  1.915   .     S
C997   N1002   1.373   .     A
C998   N1001   1.371   .     A
C998   Br1022  1.923   .     S
C998   C615    1.421   1_565 S
C999   N1002   1.373   .     A
C999   Br1023  1.915   .     S
C1000  N1001   1.371   .     A
C1000  Br1024  1.923   .     S
C1000  C613    1.421   1_565 S
C1007  H1008   1.110   .     S
C1007  H1009   1.110   .     S
C1007  H1010   1.106   .     S
C1011  H1014   1.106   .     S
C1011  H1012   1.110   .     S
C1011  H1013   1.110   .     S
O1025  C1029   1.295   .     A
O1025  Zn1037  2.016   .     S
O1026  C1030   1.296   .     A
O1026  Zn1038  2.016   .     S
O1027  Zn1037  2.016   .     S
O1027  C1030   1.295   .     A
O1028  Zn1038  2.016   .     S
O1028  C1029   1.296   .     A
C1029  C1060   1.449   .     S
C1030  C1059   1.449   .     S
O1031  C1035   1.286   .     A
O1031  Zn1037  2.014   .     S
O1032  C1036   1.290   .     A
O1032  Zn1038  2.014   .     S
O1033  Zn1037  2.014   .     S
O1033  C1036   1.286   .     A
O1034  C1035   1.290   .     A
O1034  Zn1038  2.014   .     S
C1035  C1042   1.427   .     S
C1036  C1041   1.427   .     S
Zn1037 N1065   2.022   .     S
Zn1038 N1066   2.022   .     S
C1039  Br1067  1.943   .     S
C1039  C1049   1.401   .     A
C1039  C1041   1.394   .     A
C1040  Br1068  1.943   .     S
C1040  C1042   1.394   .     A
C1040  C1050   1.401   .     A
C1041  C1043   1.396   .     A
C1042  C1044   1.396   .     A
C1043  C1045   1.406   .     A
C1043  Br1069  1.942   .     S
C1044  C1046   1.406   .     A
C1044  Br1070  1.941   .     S
C1045  C1051   1.415   .     A
C1045  C1047   1.423   .     A
C1046  C1052   1.415   .     A
C1046  C1048   1.423   .     A
C1047  C1049   1.419   .     A
C1047  C472    1.409   1_556 S
C1048  C1050   1.419   .     A
C1049  C1054   1.404   .     A
C1050  C1053   1.404   .     A
C1051  C1071   1.509   .     S
C1051  C477    1.389   1_556 S
C1052  C1075   1.509   .     S
C1053  Br1079  1.929   .     S
C1054  Br1080  1.929   .     S
C1054  C476    1.389   1_556 S
C1055  Br1081  1.941   .     S
C1055  C1060   1.410   .     A
C1056  C1059   1.412   .     A
C1056  Br1082  1.943   .     S
C1056  C1122   1.382   .     S
C1057  C1059   1.410   .     A
C1057  Br1083  1.941   .     S
C1057  C1119   1.381   .     S
C1058  C1060   1.412   .     A
C1058  Br1084  1.943   .     S
C1061  Br1085  1.915   .     S
C1061  N1066   1.373   .     A
C1062  N1065   1.371   .     A
C1062  Br1086  1.923   .     S
C1062  C679    1.421   1_565 S
C1063  N1066   1.373   .     A
C1063  Br1087  1.915   .     S
C1064  N1065   1.371   .     A
C1064  Br1088  1.923   .     S
C1064  C677    1.421   1_565 S
C1071  H1072   1.110   .     S
C1071  H1073   1.110   .     S
C1071  H1074   1.106   .     S
C1075  H1078   1.106   .     S
C1075  H1076   1.110   .     S
C1075  H1077   1.110   .     S
O1089  C1093   1.295   .     A
O1089  Zn1101  2.016   .     S
O1090  C1094   1.296   .     A
O1090  Zn1102  2.016   .     S
O1091  Zn1101  2.016   .     S
O1091  C1094   1.295   .     A
O1092  Zn1102  2.016   .     S
O1092  C1093   1.296   .     A
C1093  C1124   1.449   .     S
C1094  C1123   1.449   .     S
O1095  C1099   1.286   .     A
O1095  Zn1101  2.014   .     S
O1096  C1100   1.290   .     A
O1096  Zn1102  2.014   .     S
O1097  Zn1101  2.014   .     S
O1097  C1100   1.286   .     A
O1098  C1099   1.290   .     A
O1098  Zn1102  2.014   .     S
C1099  C1106   1.427   .     S
C1100  C1105   1.427   .     S
Zn1101 N1129   2.022   .     S
Zn1102 N1130   2.022   .     S
C1103  Br1131  1.943   .     S
C1103  C1113   1.401   .     A
C1103  C1105   1.394   .     A
C1104  Br1132  1.943   .     S
C1104  C1106   1.394   .     A
C1104  C1114   1.401   .     A
C1105  C1107   1.396   .     A
C1106  C1108   1.396   .     A
C1107  C1109   1.406   .     A
C1107  Br1133  1.942   .     S
C1108  C1110   1.406   .     A
C1108  Br1134  1.941   .     S
C1109  C1115   1.415   .     A
C1109  C1111   1.423   .     A
C1110  C1116   1.415   .     A
C1110  C1112   1.423   .     A
C1111  C1113   1.419   .     A
C1111  C536    1.409   1_556 S
C1112  C1114   1.419   .     A
C1113  C1118   1.404   .     A
C1114  C1117   1.404   .     A
C1115  C1135   1.509   .     S
C1115  C541    1.389   1_556 S
C1116  C1139   1.509   .     S
C1117  Br1143  1.929   .     S
C1118  Br1144  1.929   .     S
C1118  C540    1.389   1_556 S
C1119  Br1145  1.941   .     S
C1119  C1124   1.410   .     A
C1120  C1123   1.412   .     A
C1120  Br1146  1.943   .     S
C1120  C994    1.382   1_655 S
C1121  C1123   1.410   .     A
C1121  Br1147  1.941   .     S
C1121  C991    1.381   1_655 S
C1122  C1124   1.412   .     A
C1122  Br1148  1.943   .     S
C1125  Br1149  1.915   .     S
C1125  N1130   1.373   .     A
C1126  N1129   1.371   .     A
C1126  Br1150  1.923   .     S
C1126  C743    1.421   1_565 S
C1127  N1130   1.373   .     A
C1127  Br1151  1.915   .     S
C1128  N1129   1.371   .     A
C1128  Br1152  1.923   .     S
C1128  C741    1.421   1_565 S
C1135  H1136   1.110   .     S
C1135  H1137   1.110   .     S
C1135  H1138   1.106   .     S
C1139  H1142   1.106   .     S
C1139  H1140   1.110   .     S
C1139  H1141   1.110   .     S
