data_str_m3_o10_o17_pcu_sym.85
_audit_creation_date              2020-01-03
_audit_creation_method            'Materials Studio'
_symmetry_space_group_name_H-M    'P1'
_symmetry_Int_Tables_number       1
_symmetry_cell_setting            triclinic
loop_
_symmetry_equiv_pos_as_xyz
  x,y,z
_cell_length_a                    23.3227
_cell_length_b                    25.6751
_cell_length_c                    29.7313
_cell_angle_alpha                 90.9898
_cell_angle_beta                  86.0304
_cell_angle_gamma                 93.6167
loop_
_atom_site_label
_atom_site_type_symbol
_atom_site_fract_x
_atom_site_fract_y
_atom_site_fract_z
_atom_site_U_iso_or_equiv
_atom_site_adp_type
_atom_site_occupancy
C1     C     0.18191   0.26489   0.24882   0.00000  Uiso   1.00
C2     C     0.19038   0.21021   0.40590   0.00000  Uiso   1.00
C3     C     0.16421   0.16750   0.11617   0.00000  Uiso   1.00
C4     C     0.16913   0.16583   0.38383   0.00000  Uiso   1.00
C5     C     0.18577   0.21199   0.09325   0.00000  Uiso   1.00
C6     C     0.14756   0.12134   0.40675   0.00000  Uiso   1.00
C7     C     0.18661   0.21275   0.04642   0.00000  Uiso   1.00
C8     C     0.14672   0.12058   0.45358   0.00000  Uiso   1.00
C9     C     0.16600   0.16714   0.02346   0.00000  Uiso   1.00
C10    C     0.16733   0.16619   0.47654   0.00000  Uiso   1.00
C11    C     0.14413   0.12235   0.04753   0.00000  Uiso   1.00
C12    C     0.15143   0.06844   0.25117   0.00000  Uiso   1.00
C13    C     0.18920   0.21099   0.45247   0.00000  Uiso   1.00
C14    C     0.20773   0.25740   0.02194   0.00000  Uiso   1.00
C15    C     0.12561   0.07593   0.47806   0.00000  Uiso   1.00
C16    C     0.22804   0.30516   0.04380   0.00000  Uiso   1.00
C17    C     0.10529   0.02817   0.45620   0.00000  Uiso   1.00
C18    C     0.20897   0.25605   0.47509   0.00000  Uiso   1.00
C19    C     0.12436   0.07728   0.02491   0.00000  Uiso   1.00
C20    C     0.18994   0.31939   0.24813   0.00000  Uiso   1.00
C21    C     0.14339   0.01394   0.25186   0.00000  Uiso   1.00
C22    C     0.16746   0.16655   0.33635   0.00000  Uiso   1.00
C23    C     0.16587   0.16678   0.16365   0.00000  Uiso   1.00
C24    C     0.14296   0.12312   0.09410   0.00000  Uiso   1.00
H25    H     0.12677   0.08903   0.11326   0.00000  Uiso   1.00
H26    H     0.32879   0.20580   0.28397   0.00000  Uiso   1.00
H27    H     0.20657   0.24430   0.38674   0.00000  Uiso   1.00
H28    H     0.20184   0.24555   0.11230   0.00000  Uiso   1.00
H29    H     0.13149   0.08778   0.38770   0.00000  Uiso   1.00
H30    H     0.22519   0.29031   0.45618   0.00000  Uiso   1.00
H31    H     0.10814   0.04303   0.04382   0.00000  Uiso   1.00
H32    H     0.23391   0.00306   0.24456   0.00000  Uiso   1.00
H33    H     0.09942   0.33027   0.25544   0.00000  Uiso   1.00
H34    H     0.00454   0.12753   0.21603   0.00000  Uiso   1.00
N35    N     0.31678   0.15265   0.23783   0.00000  Uiso   1.00
N36    N     0.01656   0.18068   0.26217   0.00000  Uiso   1.00
N37    N     0.24425   0.01008   0.06124   0.00000  Uiso   1.00
N38    N     0.08908   0.32325   0.43876   0.00000  Uiso   1.00
O39    O     0.12975   0.24619   0.25298   0.00000  Uiso   1.00
O40    O     0.20358   0.08714   0.24701   0.00000  Uiso   1.00
O41    O     0.22613   0.23721   0.24518   0.00000  Uiso   1.00
O42    O     0.10720   0.09613   0.25481   0.00000  Uiso   1.00
O43    O     0.11847   0.17117   0.31997   0.00000  Uiso   1.00
O44    O     0.21486   0.16216   0.18002   0.00000  Uiso   1.00
O45    O     0.21485   0.16219   0.31217   0.00000  Uiso   1.00
O46    O     0.11848   0.17115   0.18782   0.00000  Uiso   1.00
Zn47   Zn    0.10231   0.17266   0.25521   0.00000  Uiso   1.00
Zn48   Zn    0.23102   0.16067   0.24479   0.00000  Uiso   1.00
C49    C     0.51524   0.26489   0.24882   0.00000  Uiso   1.00
C50    C     0.52371   0.21021   0.40590   0.00000  Uiso   1.00
C51    C     0.49754   0.16750   0.11617   0.00000  Uiso   1.00
C52    C     0.50246   0.16583   0.38383   0.00000  Uiso   1.00
C53    C     0.51911   0.21199   0.09325   0.00000  Uiso   1.00
C54    C     0.48089   0.12134   0.40675   0.00000  Uiso   1.00
C55    C     0.51994   0.21275   0.04642   0.00000  Uiso   1.00
C56    C     0.48006   0.12058   0.45358   0.00000  Uiso   1.00
C57    C     0.49933   0.16714   0.02346   0.00000  Uiso   1.00
C58    C     0.50067   0.16619   0.47654   0.00000  Uiso   1.00
C59    C     0.47747   0.12235   0.04753   0.00000  Uiso   1.00
C60    C     0.48476   0.06844   0.25117   0.00000  Uiso   1.00
C61    C     0.52253   0.21099   0.45247   0.00000  Uiso   1.00
C62    C     0.54106   0.25740   0.02194   0.00000  Uiso   1.00
C63    C     0.45894   0.07593   0.47806   0.00000  Uiso   1.00
C64    C     0.56137   0.30516   0.04380   0.00000  Uiso   1.00
C65    C     0.43863   0.02817   0.45620   0.00000  Uiso   1.00
C66    C     0.54230   0.25605   0.47509   0.00000  Uiso   1.00
C67    C     0.45770   0.07728   0.02491   0.00000  Uiso   1.00
C68    C     0.52327   0.31939   0.24813   0.00000  Uiso   1.00
C69    C     0.47673   0.01394   0.25186   0.00000  Uiso   1.00
C70    C     0.50080   0.16655   0.33635   0.00000  Uiso   1.00
C71    C     0.49920   0.16678   0.16365   0.00000  Uiso   1.00
C72    C     0.47629   0.12312   0.09410   0.00000  Uiso   1.00
H73    H     0.46010   0.08903   0.11326   0.00000  Uiso   1.00
H74    H     0.66213   0.20580   0.28397   0.00000  Uiso   1.00
H75    H     0.53990   0.24430   0.38674   0.00000  Uiso   1.00
H76    H     0.53517   0.24555   0.11230   0.00000  Uiso   1.00
H77    H     0.46483   0.08778   0.38770   0.00000  Uiso   1.00
H78    H     0.55852   0.29031   0.45618   0.00000  Uiso   1.00
H79    H     0.44148   0.04303   0.04382   0.00000  Uiso   1.00
H80    H     0.56724   0.00306   0.24456   0.00000  Uiso   1.00
H81    H     0.43276   0.33027   0.25544   0.00000  Uiso   1.00
H82    H     0.33787   0.12753   0.21603   0.00000  Uiso   1.00
N83    N     0.65011   0.15265   0.23783   0.00000  Uiso   1.00
N84    N     0.34989   0.18068   0.26217   0.00000  Uiso   1.00
N85    N     0.57759   0.01008   0.06124   0.00000  Uiso   1.00
N86    N     0.42241   0.32325   0.43876   0.00000  Uiso   1.00
O87    O     0.46308   0.24619   0.25298   0.00000  Uiso   1.00
O88    O     0.53692   0.08714   0.24701   0.00000  Uiso   1.00
O89    O     0.55946   0.23721   0.24518   0.00000  Uiso   1.00
O90    O     0.44054   0.09613   0.25481   0.00000  Uiso   1.00
O91    O     0.45181   0.17117   0.31997   0.00000  Uiso   1.00
O92    O     0.54819   0.16216   0.18002   0.00000  Uiso   1.00
O93    O     0.54819   0.16219   0.31217   0.00000  Uiso   1.00
O94    O     0.45181   0.17115   0.18782   0.00000  Uiso   1.00
Zn95   Zn    0.43565   0.17266   0.25521   0.00000  Uiso   1.00
Zn96   Zn    0.56435   0.16067   0.24479   0.00000  Uiso   1.00
C97    C     0.84857   0.26489   0.24882   0.00000  Uiso   1.00
C98    C     0.85704   0.21021   0.40590   0.00000  Uiso   1.00
C99    C     0.83087   0.16750   0.11617   0.00000  Uiso   1.00
C100   C     0.83579   0.16583   0.38383   0.00000  Uiso   1.00
C101   C     0.85244   0.21199   0.09325   0.00000  Uiso   1.00
C102   C     0.81423   0.12134   0.40675   0.00000  Uiso   1.00
C103   C     0.85328   0.21275   0.04642   0.00000  Uiso   1.00
C104   C     0.81339   0.12058   0.45358   0.00000  Uiso   1.00
C105   C     0.83267   0.16714   0.02346   0.00000  Uiso   1.00
C106   C     0.83400   0.16619   0.47654   0.00000  Uiso   1.00
C107   C     0.81080   0.12235   0.04753   0.00000  Uiso   1.00
C108   C     0.81809   0.06844   0.25117   0.00000  Uiso   1.00
C109   C     0.85587   0.21099   0.45247   0.00000  Uiso   1.00
C110   C     0.87439   0.25740   0.02194   0.00000  Uiso   1.00
C111   C     0.79227   0.07593   0.47806   0.00000  Uiso   1.00
C112   C     0.89471   0.30516   0.04380   0.00000  Uiso   1.00
C113   C     0.77196   0.02817   0.45620   0.00000  Uiso   1.00
C114   C     0.87564   0.25605   0.47509   0.00000  Uiso   1.00
C115   C     0.79103   0.07728   0.02491   0.00000  Uiso   1.00
C116   C     0.85661   0.31939   0.24813   0.00000  Uiso   1.00
C117   C     0.81006   0.01394   0.25186   0.00000  Uiso   1.00
C118   C     0.83413   0.16655   0.33635   0.00000  Uiso   1.00
C119   C     0.83254   0.16678   0.16365   0.00000  Uiso   1.00
C120   C     0.80962   0.12312   0.09410   0.00000  Uiso   1.00
H121   H     0.79343   0.08903   0.11326   0.00000  Uiso   1.00
H122   H     0.99546   0.20580   0.28397   0.00000  Uiso   1.00
H123   H     0.87323   0.24430   0.38674   0.00000  Uiso   1.00
H124   H     0.86850   0.24555   0.11230   0.00000  Uiso   1.00
H125   H     0.79816   0.08778   0.38770   0.00000  Uiso   1.00
H126   H     0.89186   0.29031   0.45618   0.00000  Uiso   1.00
H127   H     0.77481   0.04303   0.04382   0.00000  Uiso   1.00
H128   H     0.90058   0.00306   0.24456   0.00000  Uiso   1.00
H129   H     0.76609   0.33027   0.25544   0.00000  Uiso   1.00
H130   H     0.67121   0.12753   0.21603   0.00000  Uiso   1.00
N131   N     0.98344   0.15265   0.23783   0.00000  Uiso   1.00
N132   N     0.68322   0.18068   0.26217   0.00000  Uiso   1.00
N133   N     0.91092   0.01008   0.06124   0.00000  Uiso   1.00
N134   N     0.75575   0.32325   0.43876   0.00000  Uiso   1.00
O135   O     0.79642   0.24619   0.25298   0.00000  Uiso   1.00
O136   O     0.87025   0.08714   0.24701   0.00000  Uiso   1.00
O137   O     0.89280   0.23721   0.24518   0.00000  Uiso   1.00
O138   O     0.77387   0.09613   0.25481   0.00000  Uiso   1.00
O139   O     0.78514   0.17117   0.31997   0.00000  Uiso   1.00
O140   O     0.88153   0.16216   0.18002   0.00000  Uiso   1.00
O141   O     0.88152   0.16219   0.31217   0.00000  Uiso   1.00
O142   O     0.78515   0.17115   0.18782   0.00000  Uiso   1.00
Zn143  Zn    0.76898   0.17266   0.25521   0.00000  Uiso   1.00
Zn144  Zn    0.89769   0.16067   0.24479   0.00000  Uiso   1.00
C145   C     0.18191   0.59822   0.24882   0.00000  Uiso   1.00
C146   C     0.19038   0.54355   0.40590   0.00000  Uiso   1.00
C147   C     0.16421   0.50083   0.11617   0.00000  Uiso   1.00
C148   C     0.16913   0.49917   0.38383   0.00000  Uiso   1.00
C149   C     0.18577   0.54532   0.09325   0.00000  Uiso   1.00
C150   C     0.14756   0.45468   0.40675   0.00000  Uiso   1.00
C151   C     0.18661   0.54608   0.04642   0.00000  Uiso   1.00
C152   C     0.14672   0.45392   0.45358   0.00000  Uiso   1.00
C153   C     0.16600   0.50047   0.02346   0.00000  Uiso   1.00
C154   C     0.16733   0.49953   0.47654   0.00000  Uiso   1.00
C155   C     0.14413   0.45568   0.04753   0.00000  Uiso   1.00
C156   C     0.15143   0.40178   0.25117   0.00000  Uiso   1.00
C157   C     0.18920   0.54432   0.45247   0.00000  Uiso   1.00
C158   C     0.20773   0.59073   0.02194   0.00000  Uiso   1.00
C159   C     0.12561   0.40926   0.47806   0.00000  Uiso   1.00
C160   C     0.22804   0.63849   0.04380   0.00000  Uiso   1.00
C161   C     0.10529   0.36151   0.45620   0.00000  Uiso   1.00
C162   C     0.20897   0.58938   0.47509   0.00000  Uiso   1.00
C163   C     0.12436   0.41062   0.02491   0.00000  Uiso   1.00
C164   C     0.18994   0.65273   0.24813   0.00000  Uiso   1.00
C165   C     0.14339   0.34727   0.25186   0.00000  Uiso   1.00
C166   C     0.16746   0.49989   0.33635   0.00000  Uiso   1.00
C167   C     0.16587   0.50011   0.16365   0.00000  Uiso   1.00
C168   C     0.14296   0.45645   0.09410   0.00000  Uiso   1.00
H169   H     0.12677   0.42236   0.11326   0.00000  Uiso   1.00
H170   H     0.32879   0.53913   0.28397   0.00000  Uiso   1.00
H171   H     0.20657   0.57764   0.38674   0.00000  Uiso   1.00
H172   H     0.20184   0.57889   0.11230   0.00000  Uiso   1.00
H173   H     0.13149   0.42111   0.38770   0.00000  Uiso   1.00
H174   H     0.22519   0.62364   0.45618   0.00000  Uiso   1.00
H175   H     0.10814   0.37636   0.04382   0.00000  Uiso   1.00
H176   H     0.23391   0.33639   0.24456   0.00000  Uiso   1.00
H177   H     0.09942   0.66361   0.25544   0.00000  Uiso   1.00
H178   H     0.00454   0.46087   0.21603   0.00000  Uiso   1.00
N179   N     0.31678   0.48598   0.23783   0.00000  Uiso   1.00
N180   N     0.01656   0.51402   0.26217   0.00000  Uiso   1.00
N181   N     0.24425   0.34341   0.06124   0.00000  Uiso   1.00
N182   N     0.08908   0.65659   0.43876   0.00000  Uiso   1.00
O183   O     0.12975   0.57952   0.25298   0.00000  Uiso   1.00
O184   O     0.20358   0.42048   0.24701   0.00000  Uiso   1.00
O185   O     0.22613   0.57054   0.24518   0.00000  Uiso   1.00
O186   O     0.10720   0.42946   0.25481   0.00000  Uiso   1.00
O187   O     0.11847   0.50450   0.31997   0.00000  Uiso   1.00
O188   O     0.21486   0.49550   0.18002   0.00000  Uiso   1.00
O189   O     0.21485   0.49552   0.31217   0.00000  Uiso   1.00
O190   O     0.11848   0.50448   0.18782   0.00000  Uiso   1.00
Zn191  Zn    0.10231   0.50600   0.25521   0.00000  Uiso   1.00
Zn192  Zn    0.23102   0.49400   0.24479   0.00000  Uiso   1.00
C193   C     0.51524   0.59822   0.24882   0.00000  Uiso   1.00
C194   C     0.52371   0.54355   0.40590   0.00000  Uiso   1.00
C195   C     0.49754   0.50083   0.11617   0.00000  Uiso   1.00
C196   C     0.50246   0.49917   0.38383   0.00000  Uiso   1.00
C197   C     0.51911   0.54532   0.09325   0.00000  Uiso   1.00
C198   C     0.48089   0.45468   0.40675   0.00000  Uiso   1.00
C199   C     0.51994   0.54608   0.04642   0.00000  Uiso   1.00
C200   C     0.48006   0.45392   0.45358   0.00000  Uiso   1.00
C201   C     0.49933   0.50047   0.02346   0.00000  Uiso   1.00
C202   C     0.50067   0.49953   0.47654   0.00000  Uiso   1.00
C203   C     0.47747   0.45568   0.04753   0.00000  Uiso   1.00
C204   C     0.48476   0.40178   0.25117   0.00000  Uiso   1.00
C205   C     0.52253   0.54432   0.45247   0.00000  Uiso   1.00
C206   C     0.54106   0.59073   0.02194   0.00000  Uiso   1.00
C207   C     0.45894   0.40926   0.47806   0.00000  Uiso   1.00
C208   C     0.56137   0.63849   0.04380   0.00000  Uiso   1.00
C209   C     0.43863   0.36151   0.45620   0.00000  Uiso   1.00
C210   C     0.54230   0.58938   0.47509   0.00000  Uiso   1.00
C211   C     0.45770   0.41062   0.02491   0.00000  Uiso   1.00
C212   C     0.52327   0.65273   0.24813   0.00000  Uiso   1.00
C213   C     0.47673   0.34727   0.25186   0.00000  Uiso   1.00
C214   C     0.50080   0.49989   0.33635   0.00000  Uiso   1.00
C215   C     0.49920   0.50011   0.16365   0.00000  Uiso   1.00
C216   C     0.47629   0.45645   0.09410   0.00000  Uiso   1.00
H217   H     0.46010   0.42236   0.11326   0.00000  Uiso   1.00
H218   H     0.66213   0.53913   0.28397   0.00000  Uiso   1.00
H219   H     0.53990   0.57764   0.38674   0.00000  Uiso   1.00
H220   H     0.53517   0.57889   0.11230   0.00000  Uiso   1.00
H221   H     0.46483   0.42111   0.38770   0.00000  Uiso   1.00
H222   H     0.55852   0.62364   0.45618   0.00000  Uiso   1.00
H223   H     0.44148   0.37636   0.04382   0.00000  Uiso   1.00
H224   H     0.56724   0.33639   0.24456   0.00000  Uiso   1.00
H225   H     0.43276   0.66361   0.25544   0.00000  Uiso   1.00
H226   H     0.33787   0.46087   0.21603   0.00000  Uiso   1.00
N227   N     0.65011   0.48598   0.23783   0.00000  Uiso   1.00
N228   N     0.34989   0.51402   0.26217   0.00000  Uiso   1.00
N229   N     0.57759   0.34341   0.06124   0.00000  Uiso   1.00
N230   N     0.42241   0.65659   0.43876   0.00000  Uiso   1.00
O231   O     0.46308   0.57952   0.25298   0.00000  Uiso   1.00
O232   O     0.53692   0.42048   0.24701   0.00000  Uiso   1.00
O233   O     0.55946   0.57054   0.24518   0.00000  Uiso   1.00
O234   O     0.44054   0.42946   0.25481   0.00000  Uiso   1.00
O235   O     0.45181   0.50450   0.31997   0.00000  Uiso   1.00
O236   O     0.54819   0.49550   0.18002   0.00000  Uiso   1.00
O237   O     0.54819   0.49552   0.31217   0.00000  Uiso   1.00
O238   O     0.45181   0.50448   0.18782   0.00000  Uiso   1.00
Zn239  Zn    0.43565   0.50600   0.25521   0.00000  Uiso   1.00
Zn240  Zn    0.56435   0.49400   0.24479   0.00000  Uiso   1.00
C241   C     0.84857   0.59822   0.24882   0.00000  Uiso   1.00
C242   C     0.85704   0.54355   0.40590   0.00000  Uiso   1.00
C243   C     0.83087   0.50083   0.11617   0.00000  Uiso   1.00
C244   C     0.83579   0.49917   0.38383   0.00000  Uiso   1.00
C245   C     0.85244   0.54532   0.09325   0.00000  Uiso   1.00
C246   C     0.81423   0.45468   0.40675   0.00000  Uiso   1.00
C247   C     0.85328   0.54608   0.04642   0.00000  Uiso   1.00
C248   C     0.81339   0.45392   0.45358   0.00000  Uiso   1.00
C249   C     0.83267   0.50047   0.02346   0.00000  Uiso   1.00
C250   C     0.83400   0.49953   0.47654   0.00000  Uiso   1.00
C251   C     0.81080   0.45568   0.04753   0.00000  Uiso   1.00
C252   C     0.81809   0.40178   0.25117   0.00000  Uiso   1.00
C253   C     0.85587   0.54432   0.45247   0.00000  Uiso   1.00
C254   C     0.87439   0.59073   0.02194   0.00000  Uiso   1.00
C255   C     0.79227   0.40926   0.47806   0.00000  Uiso   1.00
C256   C     0.89471   0.63849   0.04380   0.00000  Uiso   1.00
C257   C     0.77196   0.36151   0.45620   0.00000  Uiso   1.00
C258   C     0.87564   0.58938   0.47509   0.00000  Uiso   1.00
C259   C     0.79103   0.41062   0.02491   0.00000  Uiso   1.00
C260   C     0.85661   0.65273   0.24813   0.00000  Uiso   1.00
C261   C     0.81006   0.34727   0.25186   0.00000  Uiso   1.00
C262   C     0.83413   0.49989   0.33635   0.00000  Uiso   1.00
C263   C     0.83254   0.50011   0.16365   0.00000  Uiso   1.00
C264   C     0.80962   0.45645   0.09410   0.00000  Uiso   1.00
H265   H     0.79343   0.42236   0.11326   0.00000  Uiso   1.00
H266   H     0.99546   0.53913   0.28397   0.00000  Uiso   1.00
H267   H     0.87323   0.57764   0.38674   0.00000  Uiso   1.00
H268   H     0.86850   0.57889   0.11230   0.00000  Uiso   1.00
H269   H     0.79816   0.42111   0.38770   0.00000  Uiso   1.00
H270   H     0.89186   0.62364   0.45618   0.00000  Uiso   1.00
H271   H     0.77481   0.37636   0.04382   0.00000  Uiso   1.00
H272   H     0.90058   0.33639   0.24456   0.00000  Uiso   1.00
H273   H     0.76609   0.66361   0.25544   0.00000  Uiso   1.00
H274   H     0.67121   0.46087   0.21603   0.00000  Uiso   1.00
N275   N     0.98344   0.48598   0.23783   0.00000  Uiso   1.00
N276   N     0.68322   0.51402   0.26217   0.00000  Uiso   1.00
N277   N     0.91092   0.34341   0.06124   0.00000  Uiso   1.00
N278   N     0.75575   0.65659   0.43876   0.00000  Uiso   1.00
O279   O     0.79642   0.57952   0.25298   0.00000  Uiso   1.00
O280   O     0.87025   0.42048   0.24701   0.00000  Uiso   1.00
O281   O     0.89280   0.57054   0.24518   0.00000  Uiso   1.00
O282   O     0.77387   0.42946   0.25481   0.00000  Uiso   1.00
O283   O     0.78514   0.50450   0.31997   0.00000  Uiso   1.00
O284   O     0.88153   0.49550   0.18002   0.00000  Uiso   1.00
O285   O     0.88152   0.49552   0.31217   0.00000  Uiso   1.00
O286   O     0.78515   0.50448   0.18782   0.00000  Uiso   1.00
Zn287  Zn    0.76898   0.50600   0.25521   0.00000  Uiso   1.00
Zn288  Zn    0.89769   0.49400   0.24479   0.00000  Uiso   1.00
C289   C     0.18191   0.93156   0.24882   0.00000  Uiso   1.00
C290   C     0.19038   0.87688   0.40590   0.00000  Uiso   1.00
C291   C     0.16421   0.83417   0.11617   0.00000  Uiso   1.00
C292   C     0.16913   0.83250   0.38383   0.00000  Uiso   1.00
C293   C     0.18577   0.87866   0.09325   0.00000  Uiso   1.00
C294   C     0.14756   0.78801   0.40675   0.00000  Uiso   1.00
C295   C     0.18661   0.87942   0.04642   0.00000  Uiso   1.00
C296   C     0.14672   0.78725   0.45358   0.00000  Uiso   1.00
C297   C     0.16600   0.83381   0.02346   0.00000  Uiso   1.00
C298   C     0.16733   0.83286   0.47654   0.00000  Uiso   1.00
C299   C     0.14413   0.78901   0.04753   0.00000  Uiso   1.00
C300   C     0.15143   0.73511   0.25117   0.00000  Uiso   1.00
C301   C     0.18920   0.87765   0.45247   0.00000  Uiso   1.00
C302   C     0.20773   0.92407   0.02194   0.00000  Uiso   1.00
C303   C     0.12561   0.74260   0.47806   0.00000  Uiso   1.00
C304   C     0.22804   0.97183   0.04380   0.00000  Uiso   1.00
C305   C     0.10529   0.69484   0.45620   0.00000  Uiso   1.00
C306   C     0.20897   0.92271   0.47509   0.00000  Uiso   1.00
C307   C     0.12436   0.74395   0.02491   0.00000  Uiso   1.00
C308   C     0.18994   0.98606   0.24813   0.00000  Uiso   1.00
C309   C     0.14339   0.68061   0.25186   0.00000  Uiso   1.00
C310   C     0.16746   0.83322   0.33635   0.00000  Uiso   1.00
C311   C     0.16587   0.83345   0.16365   0.00000  Uiso   1.00
C312   C     0.14296   0.78978   0.09410   0.00000  Uiso   1.00
H313   H     0.12677   0.75570   0.11326   0.00000  Uiso   1.00
H314   H     0.32879   0.87247   0.28397   0.00000  Uiso   1.00
H315   H     0.20657   0.91097   0.38674   0.00000  Uiso   1.00
H316   H     0.20184   0.91222   0.11230   0.00000  Uiso   1.00
H317   H     0.13149   0.75445   0.38770   0.00000  Uiso   1.00
H318   H     0.22519   0.95697   0.45618   0.00000  Uiso   1.00
H319   H     0.10814   0.70969   0.04382   0.00000  Uiso   1.00
H320   H     0.23391   0.66973   0.24456   0.00000  Uiso   1.00
H321   H     0.09942   0.99694   0.25544   0.00000  Uiso   1.00
H322   H     0.00454   0.79420   0.21603   0.00000  Uiso   1.00
N323   N     0.31678   0.81932   0.23783   0.00000  Uiso   1.00
N324   N     0.01656   0.84735   0.26217   0.00000  Uiso   1.00
N325   N     0.24425   0.67675   0.06124   0.00000  Uiso   1.00
N326   N     0.08908   0.98992   0.43876   0.00000  Uiso   1.00
O327   O     0.12975   0.91286   0.25298   0.00000  Uiso   1.00
O328   O     0.20358   0.75381   0.24701   0.00000  Uiso   1.00
O329   O     0.22613   0.90387   0.24518   0.00000  Uiso   1.00
O330   O     0.10720   0.76279   0.25481   0.00000  Uiso   1.00
O331   O     0.11847   0.83784   0.31997   0.00000  Uiso   1.00
O332   O     0.21486   0.82883   0.18002   0.00000  Uiso   1.00
O333   O     0.21485   0.82885   0.31217   0.00000  Uiso   1.00
O334   O     0.11848   0.83781   0.18782   0.00000  Uiso   1.00
Zn335  Zn    0.10231   0.83933   0.25521   0.00000  Uiso   1.00
Zn336  Zn    0.23102   0.82734   0.24479   0.00000  Uiso   1.00
C337   C     0.51524   0.93156   0.24882   0.00000  Uiso   1.00
C338   C     0.52371   0.87688   0.40590   0.00000  Uiso   1.00
C339   C     0.49754   0.83417   0.11617   0.00000  Uiso   1.00
C340   C     0.50246   0.83250   0.38383   0.00000  Uiso   1.00
C341   C     0.51911   0.87866   0.09325   0.00000  Uiso   1.00
C342   C     0.48089   0.78801   0.40675   0.00000  Uiso   1.00
C343   C     0.51994   0.87942   0.04642   0.00000  Uiso   1.00
C344   C     0.48006   0.78725   0.45358   0.00000  Uiso   1.00
C345   C     0.49933   0.83381   0.02346   0.00000  Uiso   1.00
C346   C     0.50067   0.83286   0.47654   0.00000  Uiso   1.00
C347   C     0.47747   0.78901   0.04753   0.00000  Uiso   1.00
C348   C     0.48476   0.73511   0.25117   0.00000  Uiso   1.00
C349   C     0.52253   0.87765   0.45247   0.00000  Uiso   1.00
C350   C     0.54106   0.92407   0.02194   0.00000  Uiso   1.00
C351   C     0.45894   0.74260   0.47806   0.00000  Uiso   1.00
C352   C     0.56137   0.97183   0.04380   0.00000  Uiso   1.00
C353   C     0.43863   0.69484   0.45620   0.00000  Uiso   1.00
C354   C     0.54230   0.92271   0.47509   0.00000  Uiso   1.00
C355   C     0.45770   0.74395   0.02491   0.00000  Uiso   1.00
C356   C     0.52327   0.98606   0.24813   0.00000  Uiso   1.00
C357   C     0.47673   0.68061   0.25186   0.00000  Uiso   1.00
C358   C     0.50080   0.83322   0.33635   0.00000  Uiso   1.00
C359   C     0.49920   0.83345   0.16365   0.00000  Uiso   1.00
C360   C     0.47629   0.78978   0.09410   0.00000  Uiso   1.00
H361   H     0.46010   0.75570   0.11326   0.00000  Uiso   1.00
H362   H     0.66213   0.87247   0.28397   0.00000  Uiso   1.00
H363   H     0.53990   0.91097   0.38674   0.00000  Uiso   1.00
H364   H     0.53517   0.91222   0.11230   0.00000  Uiso   1.00
H365   H     0.46483   0.75445   0.38770   0.00000  Uiso   1.00
H366   H     0.55852   0.95697   0.45618   0.00000  Uiso   1.00
H367   H     0.44148   0.70969   0.04382   0.00000  Uiso   1.00
H368   H     0.56724   0.66973   0.24456   0.00000  Uiso   1.00
H369   H     0.43276   0.99694   0.25544   0.00000  Uiso   1.00
H370   H     0.33787   0.79420   0.21603   0.00000  Uiso   1.00
N371   N     0.65011   0.81932   0.23783   0.00000  Uiso   1.00
N372   N     0.34989   0.84735   0.26217   0.00000  Uiso   1.00
N373   N     0.57759   0.67675   0.06124   0.00000  Uiso   1.00
N374   N     0.42241   0.98992   0.43876   0.00000  Uiso   1.00
O375   O     0.46308   0.91286   0.25298   0.00000  Uiso   1.00
O376   O     0.53692   0.75381   0.24701   0.00000  Uiso   1.00
O377   O     0.55946   0.90387   0.24518   0.00000  Uiso   1.00
O378   O     0.44054   0.76279   0.25481   0.00000  Uiso   1.00
O379   O     0.45181   0.83784   0.31997   0.00000  Uiso   1.00
O380   O     0.54819   0.82883   0.18002   0.00000  Uiso   1.00
O381   O     0.54819   0.82885   0.31217   0.00000  Uiso   1.00
O382   O     0.45181   0.83781   0.18782   0.00000  Uiso   1.00
Zn383  Zn    0.43565   0.83933   0.25521   0.00000  Uiso   1.00
Zn384  Zn    0.56435   0.82734   0.24479   0.00000  Uiso   1.00
C385   C     0.84857   0.93156   0.24882   0.00000  Uiso   1.00
C386   C     0.85704   0.87688   0.40590   0.00000  Uiso   1.00
C387   C     0.83087   0.83417   0.11617   0.00000  Uiso   1.00
C388   C     0.83579   0.83250   0.38383   0.00000  Uiso   1.00
C389   C     0.85244   0.87866   0.09325   0.00000  Uiso   1.00
C390   C     0.81423   0.78801   0.40675   0.00000  Uiso   1.00
C391   C     0.85328   0.87942   0.04642   0.00000  Uiso   1.00
C392   C     0.81339   0.78725   0.45358   0.00000  Uiso   1.00
C393   C     0.83267   0.83381   0.02346   0.00000  Uiso   1.00
C394   C     0.83400   0.83286   0.47654   0.00000  Uiso   1.00
C395   C     0.81080   0.78901   0.04753   0.00000  Uiso   1.00
C396   C     0.81809   0.73511   0.25117   0.00000  Uiso   1.00
C397   C     0.85587   0.87765   0.45247   0.00000  Uiso   1.00
C398   C     0.87439   0.92407   0.02194   0.00000  Uiso   1.00
C399   C     0.79227   0.74260   0.47806   0.00000  Uiso   1.00
C400   C     0.89471   0.97183   0.04380   0.00000  Uiso   1.00
C401   C     0.77196   0.69484   0.45620   0.00000  Uiso   1.00
C402   C     0.87564   0.92271   0.47509   0.00000  Uiso   1.00
C403   C     0.79103   0.74395   0.02491   0.00000  Uiso   1.00
C404   C     0.85661   0.98606   0.24813   0.00000  Uiso   1.00
C405   C     0.81006   0.68061   0.25186   0.00000  Uiso   1.00
C406   C     0.83413   0.83322   0.33635   0.00000  Uiso   1.00
C407   C     0.83254   0.83345   0.16365   0.00000  Uiso   1.00
C408   C     0.80962   0.78978   0.09410   0.00000  Uiso   1.00
H409   H     0.79343   0.75570   0.11326   0.00000  Uiso   1.00
H410   H     0.99546   0.87247   0.28397   0.00000  Uiso   1.00
H411   H     0.87323   0.91097   0.38674   0.00000  Uiso   1.00
H412   H     0.86850   0.91222   0.11230   0.00000  Uiso   1.00
H413   H     0.79816   0.75445   0.38770   0.00000  Uiso   1.00
H414   H     0.89186   0.95697   0.45618   0.00000  Uiso   1.00
H415   H     0.77481   0.70969   0.04382   0.00000  Uiso   1.00
H416   H     0.90058   0.66973   0.24456   0.00000  Uiso   1.00
H417   H     0.76609   0.99694   0.25544   0.00000  Uiso   1.00
H418   H     0.67121   0.79420   0.21603   0.00000  Uiso   1.00
N419   N     0.98344   0.81932   0.23783   0.00000  Uiso   1.00
N420   N     0.68322   0.84735   0.26217   0.00000  Uiso   1.00
N421   N     0.91092   0.67675   0.06124   0.00000  Uiso   1.00
N422   N     0.75575   0.98992   0.43876   0.00000  Uiso   1.00
O423   O     0.79642   0.91286   0.25298   0.00000  Uiso   1.00
O424   O     0.87025   0.75381   0.24701   0.00000  Uiso   1.00
O425   O     0.89280   0.90387   0.24518   0.00000  Uiso   1.00
O426   O     0.77387   0.76279   0.25481   0.00000  Uiso   1.00
O427   O     0.78514   0.83784   0.31997   0.00000  Uiso   1.00
O428   O     0.88153   0.82883   0.18002   0.00000  Uiso   1.00
O429   O     0.88152   0.82885   0.31217   0.00000  Uiso   1.00
O430   O     0.78515   0.83781   0.18782   0.00000  Uiso   1.00
Zn431  Zn    0.76898   0.83933   0.25521   0.00000  Uiso   1.00
Zn432  Zn    0.89769   0.82734   0.24479   0.00000  Uiso   1.00
C433   C     0.18191   0.26489   0.74882   0.00000  Uiso   1.00
C434   C     0.19038   0.21021   0.90590   0.00000  Uiso   1.00
C435   C     0.16421   0.16750   0.61617   0.00000  Uiso   1.00
C436   C     0.16913   0.16583   0.88383   0.00000  Uiso   1.00
C437   C     0.18577   0.21199   0.59325   0.00000  Uiso   1.00
C438   C     0.14756   0.12134   0.90675   0.00000  Uiso   1.00
C439   C     0.18661   0.21275   0.54642   0.00000  Uiso   1.00
C440   C     0.14672   0.12058   0.95358   0.00000  Uiso   1.00
C441   C     0.16600   0.16714   0.52346   0.00000  Uiso   1.00
C442   C     0.16733   0.16619   0.97654   0.00000  Uiso   1.00
C443   C     0.14413   0.12235   0.54753   0.00000  Uiso   1.00
C444   C     0.15143   0.06844   0.75117   0.00000  Uiso   1.00
C445   C     0.18920   0.21099   0.95247   0.00000  Uiso   1.00
C446   C     0.20773   0.25740   0.52194   0.00000  Uiso   1.00
C447   C     0.12561   0.07593   0.97806   0.00000  Uiso   1.00
C448   C     0.22804   0.30516   0.54380   0.00000  Uiso   1.00
C449   C     0.10529   0.02817   0.95620   0.00000  Uiso   1.00
C450   C     0.20897   0.25605   0.97509   0.00000  Uiso   1.00
C451   C     0.12436   0.07728   0.52491   0.00000  Uiso   1.00
C452   C     0.18994   0.31939   0.74813   0.00000  Uiso   1.00
C453   C     0.14339   0.01394   0.75186   0.00000  Uiso   1.00
C454   C     0.16746   0.16655   0.83635   0.00000  Uiso   1.00
C455   C     0.16587   0.16678   0.66365   0.00000  Uiso   1.00
C456   C     0.14296   0.12312   0.59410   0.00000  Uiso   1.00
H457   H     0.12677   0.08903   0.61326   0.00000  Uiso   1.00
H458   H     0.32879   0.20580   0.78397   0.00000  Uiso   1.00
H459   H     0.20657   0.24430   0.88674   0.00000  Uiso   1.00
H460   H     0.20184   0.24555   0.61230   0.00000  Uiso   1.00
H461   H     0.13149   0.08778   0.88770   0.00000  Uiso   1.00
H462   H     0.22519   0.29031   0.95618   0.00000  Uiso   1.00
H463   H     0.10814   0.04303   0.54382   0.00000  Uiso   1.00
H464   H     0.23391   0.00306   0.74456   0.00000  Uiso   1.00
H465   H     0.09942   0.33027   0.75544   0.00000  Uiso   1.00
H466   H     0.00454   0.12753   0.71603   0.00000  Uiso   1.00
N467   N     0.31678   0.15265   0.73783   0.00000  Uiso   1.00
N468   N     0.01656   0.18068   0.76217   0.00000  Uiso   1.00
N469   N     0.24425   0.01008   0.56124   0.00000  Uiso   1.00
N470   N     0.08908   0.32325   0.93876   0.00000  Uiso   1.00
O471   O     0.12975   0.24619   0.75298   0.00000  Uiso   1.00
O472   O     0.20358   0.08714   0.74701   0.00000  Uiso   1.00
O473   O     0.22613   0.23721   0.74518   0.00000  Uiso   1.00
O474   O     0.10720   0.09613   0.75481   0.00000  Uiso   1.00
O475   O     0.11847   0.17117   0.81997   0.00000  Uiso   1.00
O476   O     0.21486   0.16216   0.68002   0.00000  Uiso   1.00
O477   O     0.21485   0.16219   0.81217   0.00000  Uiso   1.00
O478   O     0.11848   0.17115   0.68782   0.00000  Uiso   1.00
Zn479  Zn    0.10231   0.17266   0.75521   0.00000  Uiso   1.00
Zn480  Zn    0.23102   0.16067   0.74479   0.00000  Uiso   1.00
C481   C     0.51524   0.26489   0.74882   0.00000  Uiso   1.00
C482   C     0.52371   0.21021   0.90590   0.00000  Uiso   1.00
C483   C     0.49754   0.16750   0.61617   0.00000  Uiso   1.00
C484   C     0.50246   0.16583   0.88383   0.00000  Uiso   1.00
C485   C     0.51911   0.21199   0.59325   0.00000  Uiso   1.00
C486   C     0.48089   0.12134   0.90675   0.00000  Uiso   1.00
C487   C     0.51994   0.21275   0.54642   0.00000  Uiso   1.00
C488   C     0.48006   0.12058   0.95358   0.00000  Uiso   1.00
C489   C     0.49933   0.16714   0.52346   0.00000  Uiso   1.00
C490   C     0.50067   0.16619   0.97654   0.00000  Uiso   1.00
C491   C     0.47747   0.12235   0.54753   0.00000  Uiso   1.00
C492   C     0.48476   0.06844   0.75117   0.00000  Uiso   1.00
C493   C     0.52253   0.21099   0.95247   0.00000  Uiso   1.00
C494   C     0.54106   0.25740   0.52194   0.00000  Uiso   1.00
C495   C     0.45894   0.07593   0.97806   0.00000  Uiso   1.00
C496   C     0.56137   0.30516   0.54380   0.00000  Uiso   1.00
C497   C     0.43863   0.02817   0.95620   0.00000  Uiso   1.00
C498   C     0.54230   0.25605   0.97509   0.00000  Uiso   1.00
C499   C     0.45770   0.07728   0.52491   0.00000  Uiso   1.00
C500   C     0.52327   0.31939   0.74813   0.00000  Uiso   1.00
C501   C     0.47673   0.01394   0.75186   0.00000  Uiso   1.00
C502   C     0.50080   0.16655   0.83635   0.00000  Uiso   1.00
C503   C     0.49920   0.16678   0.66365   0.00000  Uiso   1.00
C504   C     0.47629   0.12312   0.59410   0.00000  Uiso   1.00
H505   H     0.46010   0.08903   0.61326   0.00000  Uiso   1.00
H506   H     0.66213   0.20580   0.78397   0.00000  Uiso   1.00
H507   H     0.53990   0.24430   0.88674   0.00000  Uiso   1.00
H508   H     0.53517   0.24555   0.61230   0.00000  Uiso   1.00
H509   H     0.46483   0.08778   0.88770   0.00000  Uiso   1.00
H510   H     0.55852   0.29031   0.95618   0.00000  Uiso   1.00
H511   H     0.44148   0.04303   0.54382   0.00000  Uiso   1.00
H512   H     0.56724   0.00306   0.74456   0.00000  Uiso   1.00
H513   H     0.43276   0.33027   0.75544   0.00000  Uiso   1.00
H514   H     0.33787   0.12753   0.71603   0.00000  Uiso   1.00
N515   N     0.65011   0.15265   0.73783   0.00000  Uiso   1.00
N516   N     0.34989   0.18068   0.76217   0.00000  Uiso   1.00
N517   N     0.57759   0.01008   0.56124   0.00000  Uiso   1.00
N518   N     0.42241   0.32325   0.93876   0.00000  Uiso   1.00
O519   O     0.46308   0.24619   0.75298   0.00000  Uiso   1.00
O520   O     0.53692   0.08714   0.74701   0.00000  Uiso   1.00
O521   O     0.55946   0.23721   0.74518   0.00000  Uiso   1.00
O522   O     0.44054   0.09613   0.75481   0.00000  Uiso   1.00
O523   O     0.45181   0.17117   0.81997   0.00000  Uiso   1.00
O524   O     0.54819   0.16216   0.68002   0.00000  Uiso   1.00
O525   O     0.54819   0.16219   0.81217   0.00000  Uiso   1.00
O526   O     0.45181   0.17115   0.68782   0.00000  Uiso   1.00
Zn527  Zn    0.43565   0.17266   0.75521   0.00000  Uiso   1.00
Zn528  Zn    0.56435   0.16067   0.74479   0.00000  Uiso   1.00
C529   C     0.84857   0.26489   0.74882   0.00000  Uiso   1.00
C530   C     0.85704   0.21021   0.90590   0.00000  Uiso   1.00
C531   C     0.83087   0.16750   0.61617   0.00000  Uiso   1.00
C532   C     0.83579   0.16583   0.88383   0.00000  Uiso   1.00
C533   C     0.85244   0.21199   0.59325   0.00000  Uiso   1.00
C534   C     0.81423   0.12134   0.90675   0.00000  Uiso   1.00
C535   C     0.85328   0.21275   0.54642   0.00000  Uiso   1.00
C536   C     0.81339   0.12058   0.95358   0.00000  Uiso   1.00
C537   C     0.83267   0.16714   0.52346   0.00000  Uiso   1.00
C538   C     0.83400   0.16619   0.97654   0.00000  Uiso   1.00
C539   C     0.81080   0.12235   0.54753   0.00000  Uiso   1.00
C540   C     0.81809   0.06844   0.75117   0.00000  Uiso   1.00
C541   C     0.85587   0.21099   0.95247   0.00000  Uiso   1.00
C542   C     0.87439   0.25740   0.52194   0.00000  Uiso   1.00
C543   C     0.79227   0.07593   0.97806   0.00000  Uiso   1.00
C544   C     0.89471   0.30516   0.54380   0.00000  Uiso   1.00
C545   C     0.77196   0.02817   0.95620   0.00000  Uiso   1.00
C546   C     0.87564   0.25605   0.97509   0.00000  Uiso   1.00
C547   C     0.79103   0.07728   0.52491   0.00000  Uiso   1.00
C548   C     0.85661   0.31939   0.74813   0.00000  Uiso   1.00
C549   C     0.81006   0.01394   0.75186   0.00000  Uiso   1.00
C550   C     0.83413   0.16655   0.83635   0.00000  Uiso   1.00
C551   C     0.83254   0.16678   0.66365   0.00000  Uiso   1.00
C552   C     0.80962   0.12312   0.59410   0.00000  Uiso   1.00
H553   H     0.79343   0.08903   0.61326   0.00000  Uiso   1.00
H554   H     0.99546   0.20580   0.78397   0.00000  Uiso   1.00
H555   H     0.87323   0.24430   0.88674   0.00000  Uiso   1.00
H556   H     0.86850   0.24555   0.61230   0.00000  Uiso   1.00
H557   H     0.79816   0.08778   0.88770   0.00000  Uiso   1.00
H558   H     0.89186   0.29031   0.95618   0.00000  Uiso   1.00
H559   H     0.77481   0.04303   0.54382   0.00000  Uiso   1.00
H560   H     0.90058   0.00306   0.74456   0.00000  Uiso   1.00
H561   H     0.76609   0.33027   0.75544   0.00000  Uiso   1.00
H562   H     0.67121   0.12753   0.71603   0.00000  Uiso   1.00
N563   N     0.98344   0.15265   0.73783   0.00000  Uiso   1.00
N564   N     0.68322   0.18068   0.76217   0.00000  Uiso   1.00
N565   N     0.91092   0.01008   0.56124   0.00000  Uiso   1.00
N566   N     0.75575   0.32325   0.93876   0.00000  Uiso   1.00
O567   O     0.79642   0.24619   0.75298   0.00000  Uiso   1.00
O568   O     0.87025   0.08714   0.74701   0.00000  Uiso   1.00
O569   O     0.89280   0.23721   0.74518   0.00000  Uiso   1.00
O570   O     0.77387   0.09613   0.75481   0.00000  Uiso   1.00
O571   O     0.78514   0.17117   0.81997   0.00000  Uiso   1.00
O572   O     0.88153   0.16216   0.68002   0.00000  Uiso   1.00
O573   O     0.88152   0.16219   0.81217   0.00000  Uiso   1.00
O574   O     0.78515   0.17115   0.68782   0.00000  Uiso   1.00
Zn575  Zn    0.76898   0.17266   0.75521   0.00000  Uiso   1.00
Zn576  Zn    0.89769   0.16067   0.74479   0.00000  Uiso   1.00
C577   C     0.18191   0.59822   0.74882   0.00000  Uiso   1.00
C578   C     0.19038   0.54355   0.90590   0.00000  Uiso   1.00
C579   C     0.16421   0.50083   0.61617   0.00000  Uiso   1.00
C580   C     0.16913   0.49917   0.88383   0.00000  Uiso   1.00
C581   C     0.18577   0.54532   0.59325   0.00000  Uiso   1.00
C582   C     0.14756   0.45468   0.90675   0.00000  Uiso   1.00
C583   C     0.18661   0.54608   0.54642   0.00000  Uiso   1.00
C584   C     0.14672   0.45392   0.95358   0.00000  Uiso   1.00
C585   C     0.16600   0.50047   0.52346   0.00000  Uiso   1.00
C586   C     0.16733   0.49953   0.97654   0.00000  Uiso   1.00
C587   C     0.14413   0.45568   0.54753   0.00000  Uiso   1.00
C588   C     0.15143   0.40178   0.75117   0.00000  Uiso   1.00
C589   C     0.18920   0.54432   0.95247   0.00000  Uiso   1.00
C590   C     0.20773   0.59073   0.52194   0.00000  Uiso   1.00
C591   C     0.12561   0.40926   0.97806   0.00000  Uiso   1.00
C592   C     0.22804   0.63849   0.54380   0.00000  Uiso   1.00
C593   C     0.10529   0.36151   0.95620   0.00000  Uiso   1.00
C594   C     0.20897   0.58938   0.97509   0.00000  Uiso   1.00
C595   C     0.12436   0.41062   0.52491   0.00000  Uiso   1.00
C596   C     0.18994   0.65273   0.74813   0.00000  Uiso   1.00
C597   C     0.14339   0.34727   0.75186   0.00000  Uiso   1.00
C598   C     0.16746   0.49989   0.83635   0.00000  Uiso   1.00
C599   C     0.16587   0.50011   0.66365   0.00000  Uiso   1.00
C600   C     0.14296   0.45645   0.59410   0.00000  Uiso   1.00
H601   H     0.12677   0.42236   0.61326   0.00000  Uiso   1.00
H602   H     0.32879   0.53913   0.78397   0.00000  Uiso   1.00
H603   H     0.20657   0.57764   0.88674   0.00000  Uiso   1.00
H604   H     0.20184   0.57889   0.61230   0.00000  Uiso   1.00
H605   H     0.13149   0.42111   0.88770   0.00000  Uiso   1.00
H606   H     0.22519   0.62364   0.95618   0.00000  Uiso   1.00
H607   H     0.10814   0.37636   0.54382   0.00000  Uiso   1.00
H608   H     0.23391   0.33639   0.74456   0.00000  Uiso   1.00
H609   H     0.09942   0.66361   0.75544   0.00000  Uiso   1.00
H610   H     0.00454   0.46087   0.71603   0.00000  Uiso   1.00
N611   N     0.31678   0.48598   0.73783   0.00000  Uiso   1.00
N612   N     0.01656   0.51402   0.76217   0.00000  Uiso   1.00
N613   N     0.24425   0.34341   0.56124   0.00000  Uiso   1.00
N614   N     0.08908   0.65659   0.93876   0.00000  Uiso   1.00
O615   O     0.12975   0.57952   0.75298   0.00000  Uiso   1.00
O616   O     0.20358   0.42048   0.74701   0.00000  Uiso   1.00
O617   O     0.22613   0.57054   0.74518   0.00000  Uiso   1.00
O618   O     0.10720   0.42946   0.75481   0.00000  Uiso   1.00
O619   O     0.11847   0.50450   0.81997   0.00000  Uiso   1.00
O620   O     0.21486   0.49550   0.68002   0.00000  Uiso   1.00
O621   O     0.21485   0.49552   0.81217   0.00000  Uiso   1.00
O622   O     0.11848   0.50448   0.68782   0.00000  Uiso   1.00
Zn623  Zn    0.10231   0.50600   0.75521   0.00000  Uiso   1.00
Zn624  Zn    0.23102   0.49400   0.74479   0.00000  Uiso   1.00
C625   C     0.51524   0.59822   0.74882   0.00000  Uiso   1.00
C626   C     0.52371   0.54355   0.90590   0.00000  Uiso   1.00
C627   C     0.49754   0.50083   0.61617   0.00000  Uiso   1.00
C628   C     0.50246   0.49917   0.88383   0.00000  Uiso   1.00
C629   C     0.51911   0.54532   0.59325   0.00000  Uiso   1.00
C630   C     0.48089   0.45468   0.90675   0.00000  Uiso   1.00
C631   C     0.51994   0.54608   0.54642   0.00000  Uiso   1.00
C632   C     0.48006   0.45392   0.95358   0.00000  Uiso   1.00
C633   C     0.49933   0.50047   0.52346   0.00000  Uiso   1.00
C634   C     0.50067   0.49953   0.97654   0.00000  Uiso   1.00
C635   C     0.47747   0.45568   0.54753   0.00000  Uiso   1.00
C636   C     0.48476   0.40178   0.75117   0.00000  Uiso   1.00
C637   C     0.52253   0.54432   0.95247   0.00000  Uiso   1.00
C638   C     0.54106   0.59073   0.52194   0.00000  Uiso   1.00
C639   C     0.45894   0.40926   0.97806   0.00000  Uiso   1.00
C640   C     0.56137   0.63849   0.54380   0.00000  Uiso   1.00
C641   C     0.43863   0.36151   0.95620   0.00000  Uiso   1.00
C642   C     0.54230   0.58938   0.97509   0.00000  Uiso   1.00
C643   C     0.45770   0.41062   0.52491   0.00000  Uiso   1.00
C644   C     0.52327   0.65273   0.74813   0.00000  Uiso   1.00
C645   C     0.47673   0.34727   0.75186   0.00000  Uiso   1.00
C646   C     0.50080   0.49989   0.83635   0.00000  Uiso   1.00
C647   C     0.49920   0.50011   0.66365   0.00000  Uiso   1.00
C648   C     0.47629   0.45645   0.59410   0.00000  Uiso   1.00
H649   H     0.46010   0.42236   0.61326   0.00000  Uiso   1.00
H650   H     0.66213   0.53913   0.78397   0.00000  Uiso   1.00
H651   H     0.53990   0.57764   0.88674   0.00000  Uiso   1.00
H652   H     0.53517   0.57889   0.61230   0.00000  Uiso   1.00
H653   H     0.46483   0.42111   0.88770   0.00000  Uiso   1.00
H654   H     0.55852   0.62364   0.95618   0.00000  Uiso   1.00
H655   H     0.44148   0.37636   0.54382   0.00000  Uiso   1.00
H656   H     0.56724   0.33639   0.74456   0.00000  Uiso   1.00
H657   H     0.43276   0.66361   0.75544   0.00000  Uiso   1.00
H658   H     0.33787   0.46087   0.71603   0.00000  Uiso   1.00
N659   N     0.65011   0.48598   0.73783   0.00000  Uiso   1.00
N660   N     0.34989   0.51402   0.76217   0.00000  Uiso   1.00
N661   N     0.57759   0.34341   0.56124   0.00000  Uiso   1.00
N662   N     0.42241   0.65659   0.93876   0.00000  Uiso   1.00
O663   O     0.46308   0.57952   0.75298   0.00000  Uiso   1.00
O664   O     0.53692   0.42048   0.74701   0.00000  Uiso   1.00
O665   O     0.55946   0.57054   0.74518   0.00000  Uiso   1.00
O666   O     0.44054   0.42946   0.75481   0.00000  Uiso   1.00
O667   O     0.45181   0.50450   0.81997   0.00000  Uiso   1.00
O668   O     0.54819   0.49550   0.68002   0.00000  Uiso   1.00
O669   O     0.54819   0.49552   0.81217   0.00000  Uiso   1.00
O670   O     0.45181   0.50448   0.68782   0.00000  Uiso   1.00
Zn671  Zn    0.43565   0.50600   0.75521   0.00000  Uiso   1.00
Zn672  Zn    0.56435   0.49400   0.74479   0.00000  Uiso   1.00
C673   C     0.84857   0.59822   0.74882   0.00000  Uiso   1.00
C674   C     0.85704   0.54355   0.90590   0.00000  Uiso   1.00
C675   C     0.83087   0.50083   0.61617   0.00000  Uiso   1.00
C676   C     0.83579   0.49917   0.88383   0.00000  Uiso   1.00
C677   C     0.85244   0.54532   0.59325   0.00000  Uiso   1.00
C678   C     0.81423   0.45468   0.90675   0.00000  Uiso   1.00
C679   C     0.85328   0.54608   0.54642   0.00000  Uiso   1.00
C680   C     0.81339   0.45392   0.95358   0.00000  Uiso   1.00
C681   C     0.83267   0.50047   0.52346   0.00000  Uiso   1.00
C682   C     0.83400   0.49953   0.97654   0.00000  Uiso   1.00
C683   C     0.81080   0.45568   0.54753   0.00000  Uiso   1.00
C684   C     0.81809   0.40178   0.75117   0.00000  Uiso   1.00
C685   C     0.85587   0.54432   0.95247   0.00000  Uiso   1.00
C686   C     0.87439   0.59073   0.52194   0.00000  Uiso   1.00
C687   C     0.79227   0.40926   0.97806   0.00000  Uiso   1.00
C688   C     0.89471   0.63849   0.54380   0.00000  Uiso   1.00
C689   C     0.77196   0.36151   0.95620   0.00000  Uiso   1.00
C690   C     0.87564   0.58938   0.97509   0.00000  Uiso   1.00
C691   C     0.79103   0.41062   0.52491   0.00000  Uiso   1.00
C692   C     0.85661   0.65273   0.74813   0.00000  Uiso   1.00
C693   C     0.81006   0.34727   0.75186   0.00000  Uiso   1.00
C694   C     0.83413   0.49989   0.83635   0.00000  Uiso   1.00
C695   C     0.83254   0.50011   0.66365   0.00000  Uiso   1.00
C696   C     0.80962   0.45645   0.59410   0.00000  Uiso   1.00
H697   H     0.79343   0.42236   0.61326   0.00000  Uiso   1.00
H698   H     0.99546   0.53913   0.78397   0.00000  Uiso   1.00
H699   H     0.87323   0.57764   0.88674   0.00000  Uiso   1.00
H700   H     0.86850   0.57889   0.61230   0.00000  Uiso   1.00
H701   H     0.79816   0.42111   0.88770   0.00000  Uiso   1.00
H702   H     0.89186   0.62364   0.95618   0.00000  Uiso   1.00
H703   H     0.77481   0.37636   0.54382   0.00000  Uiso   1.00
H704   H     0.90058   0.33639   0.74456   0.00000  Uiso   1.00
H705   H     0.76609   0.66361   0.75544   0.00000  Uiso   1.00
H706   H     0.67121   0.46087   0.71603   0.00000  Uiso   1.00
N707   N     0.98344   0.48598   0.73783   0.00000  Uiso   1.00
N708   N     0.68322   0.51402   0.76217   0.00000  Uiso   1.00
N709   N     0.91092   0.34341   0.56124   0.00000  Uiso   1.00
N710   N     0.75575   0.65659   0.93876   0.00000  Uiso   1.00
O711   O     0.79642   0.57952   0.75298   0.00000  Uiso   1.00
O712   O     0.87025   0.42048   0.74701   0.00000  Uiso   1.00
O713   O     0.89280   0.57054   0.74518   0.00000  Uiso   1.00
O714   O     0.77387   0.42946   0.75481   0.00000  Uiso   1.00
O715   O     0.78514   0.50450   0.81997   0.00000  Uiso   1.00
O716   O     0.88153   0.49550   0.68002   0.00000  Uiso   1.00
O717   O     0.88152   0.49552   0.81217   0.00000  Uiso   1.00
O718   O     0.78515   0.50448   0.68782   0.00000  Uiso   1.00
Zn719  Zn    0.76898   0.50600   0.75521   0.00000  Uiso   1.00
Zn720  Zn    0.89769   0.49400   0.74479   0.00000  Uiso   1.00
C721   C     0.18191   0.93156   0.74882   0.00000  Uiso   1.00
C722   C     0.19038   0.87688   0.90590   0.00000  Uiso   1.00
C723   C     0.16421   0.83417   0.61617   0.00000  Uiso   1.00
C724   C     0.16913   0.83250   0.88383   0.00000  Uiso   1.00
C725   C     0.18577   0.87866   0.59325   0.00000  Uiso   1.00
C726   C     0.14756   0.78801   0.90675   0.00000  Uiso   1.00
C727   C     0.18661   0.87942   0.54642   0.00000  Uiso   1.00
C728   C     0.14672   0.78725   0.95358   0.00000  Uiso   1.00
C729   C     0.16600   0.83381   0.52346   0.00000  Uiso   1.00
C730   C     0.16733   0.83286   0.97654   0.00000  Uiso   1.00
C731   C     0.14413   0.78901   0.54753   0.00000  Uiso   1.00
C732   C     0.15143   0.73511   0.75117   0.00000  Uiso   1.00
C733   C     0.18920   0.87765   0.95247   0.00000  Uiso   1.00
C734   C     0.20773   0.92407   0.52194   0.00000  Uiso   1.00
C735   C     0.12561   0.74260   0.97806   0.00000  Uiso   1.00
C736   C     0.22804   0.97183   0.54380   0.00000  Uiso   1.00
C737   C     0.10529   0.69484   0.95620   0.00000  Uiso   1.00
C738   C     0.20897   0.92271   0.97509   0.00000  Uiso   1.00
C739   C     0.12436   0.74395   0.52491   0.00000  Uiso   1.00
C740   C     0.18994   0.98606   0.74813   0.00000  Uiso   1.00
C741   C     0.14339   0.68061   0.75186   0.00000  Uiso   1.00
C742   C     0.16746   0.83322   0.83635   0.00000  Uiso   1.00
C743   C     0.16587   0.83345   0.66365   0.00000  Uiso   1.00
C744   C     0.14296   0.78978   0.59410   0.00000  Uiso   1.00
H745   H     0.12677   0.75570   0.61326   0.00000  Uiso   1.00
H746   H     0.32879   0.87247   0.78397   0.00000  Uiso   1.00
H747   H     0.20657   0.91097   0.88674   0.00000  Uiso   1.00
H748   H     0.20184   0.91222   0.61230   0.00000  Uiso   1.00
H749   H     0.13149   0.75445   0.88770   0.00000  Uiso   1.00
H750   H     0.22519   0.95697   0.95618   0.00000  Uiso   1.00
H751   H     0.10814   0.70969   0.54382   0.00000  Uiso   1.00
H752   H     0.23391   0.66973   0.74456   0.00000  Uiso   1.00
H753   H     0.09942   0.99694   0.75544   0.00000  Uiso   1.00
H754   H     0.00454   0.79420   0.71603   0.00000  Uiso   1.00
N755   N     0.31678   0.81932   0.73783   0.00000  Uiso   1.00
N756   N     0.01656   0.84735   0.76217   0.00000  Uiso   1.00
N757   N     0.24425   0.67675   0.56124   0.00000  Uiso   1.00
N758   N     0.08908   0.98992   0.93876   0.00000  Uiso   1.00
O759   O     0.12975   0.91286   0.75298   0.00000  Uiso   1.00
O760   O     0.20358   0.75381   0.74701   0.00000  Uiso   1.00
O761   O     0.22613   0.90387   0.74518   0.00000  Uiso   1.00
O762   O     0.10720   0.76279   0.75481   0.00000  Uiso   1.00
O763   O     0.11847   0.83784   0.81997   0.00000  Uiso   1.00
O764   O     0.21486   0.82883   0.68002   0.00000  Uiso   1.00
O765   O     0.21485   0.82885   0.81217   0.00000  Uiso   1.00
O766   O     0.11848   0.83781   0.68782   0.00000  Uiso   1.00
Zn767  Zn    0.10231   0.83933   0.75521   0.00000  Uiso   1.00
Zn768  Zn    0.23102   0.82734   0.74479   0.00000  Uiso   1.00
C769   C     0.51524   0.93156   0.74882   0.00000  Uiso   1.00
C770   C     0.52371   0.87688   0.90590   0.00000  Uiso   1.00
C771   C     0.49754   0.83417   0.61617   0.00000  Uiso   1.00
C772   C     0.50246   0.83250   0.88383   0.00000  Uiso   1.00
C773   C     0.51911   0.87866   0.59325   0.00000  Uiso   1.00
C774   C     0.48089   0.78801   0.90675   0.00000  Uiso   1.00
C775   C     0.51994   0.87942   0.54642   0.00000  Uiso   1.00
C776   C     0.48006   0.78725   0.95358   0.00000  Uiso   1.00
C777   C     0.49933   0.83381   0.52346   0.00000  Uiso   1.00
C778   C     0.50067   0.83286   0.97654   0.00000  Uiso   1.00
C779   C     0.47747   0.78901   0.54753   0.00000  Uiso   1.00
C780   C     0.48476   0.73511   0.75117   0.00000  Uiso   1.00
C781   C     0.52253   0.87765   0.95247   0.00000  Uiso   1.00
C782   C     0.54106   0.92407   0.52194   0.00000  Uiso   1.00
C783   C     0.45894   0.74260   0.97806   0.00000  Uiso   1.00
C784   C     0.56137   0.97183   0.54380   0.00000  Uiso   1.00
C785   C     0.43863   0.69484   0.95620   0.00000  Uiso   1.00
C786   C     0.54230   0.92271   0.97509   0.00000  Uiso   1.00
C787   C     0.45770   0.74395   0.52491   0.00000  Uiso   1.00
C788   C     0.52327   0.98606   0.74813   0.00000  Uiso   1.00
C789   C     0.47673   0.68061   0.75186   0.00000  Uiso   1.00
C790   C     0.50080   0.83322   0.83635   0.00000  Uiso   1.00
C791   C     0.49920   0.83345   0.66365   0.00000  Uiso   1.00
C792   C     0.47629   0.78978   0.59410   0.00000  Uiso   1.00
H793   H     0.46010   0.75570   0.61326   0.00000  Uiso   1.00
H794   H     0.66213   0.87247   0.78397   0.00000  Uiso   1.00
H795   H     0.53990   0.91097   0.88674   0.00000  Uiso   1.00
H796   H     0.53517   0.91222   0.61230   0.00000  Uiso   1.00
H797   H     0.46483   0.75445   0.88770   0.00000  Uiso   1.00
H798   H     0.55852   0.95697   0.95618   0.00000  Uiso   1.00
H799   H     0.44148   0.70969   0.54382   0.00000  Uiso   1.00
H800   H     0.56724   0.66973   0.74456   0.00000  Uiso   1.00
H801   H     0.43276   0.99694   0.75544   0.00000  Uiso   1.00
H802   H     0.33787   0.79420   0.71603   0.00000  Uiso   1.00
N803   N     0.65011   0.81932   0.73783   0.00000  Uiso   1.00
N804   N     0.34989   0.84735   0.76217   0.00000  Uiso   1.00
N805   N     0.57759   0.67675   0.56124   0.00000  Uiso   1.00
N806   N     0.42241   0.98992   0.93876   0.00000  Uiso   1.00
O807   O     0.46308   0.91286   0.75298   0.00000  Uiso   1.00
O808   O     0.53692   0.75381   0.74701   0.00000  Uiso   1.00
O809   O     0.55946   0.90387   0.74518   0.00000  Uiso   1.00
O810   O     0.44054   0.76279   0.75481   0.00000  Uiso   1.00
O811   O     0.45181   0.83784   0.81997   0.00000  Uiso   1.00
O812   O     0.54819   0.82883   0.68002   0.00000  Uiso   1.00
O813   O     0.54819   0.82885   0.81217   0.00000  Uiso   1.00
O814   O     0.45181   0.83781   0.68782   0.00000  Uiso   1.00
Zn815  Zn    0.43565   0.83933   0.75521   0.00000  Uiso   1.00
Zn816  Zn    0.56435   0.82734   0.74479   0.00000  Uiso   1.00
C817   C     0.84857   0.93156   0.74882   0.00000  Uiso   1.00
C818   C     0.85704   0.87688   0.90590   0.00000  Uiso   1.00
C819   C     0.83087   0.83417   0.61617   0.00000  Uiso   1.00
C820   C     0.83579   0.83250   0.88383   0.00000  Uiso   1.00
C821   C     0.85244   0.87866   0.59325   0.00000  Uiso   1.00
C822   C     0.81423   0.78801   0.90675   0.00000  Uiso   1.00
C823   C     0.85328   0.87942   0.54642   0.00000  Uiso   1.00
C824   C     0.81339   0.78725   0.95358   0.00000  Uiso   1.00
C825   C     0.83267   0.83381   0.52346   0.00000  Uiso   1.00
C826   C     0.83400   0.83286   0.97654   0.00000  Uiso   1.00
C827   C     0.81080   0.78901   0.54753   0.00000  Uiso   1.00
C828   C     0.81809   0.73511   0.75117   0.00000  Uiso   1.00
C829   C     0.85587   0.87765   0.95247   0.00000  Uiso   1.00
C830   C     0.87439   0.92407   0.52194   0.00000  Uiso   1.00
C831   C     0.79227   0.74260   0.97806   0.00000  Uiso   1.00
C832   C     0.89471   0.97183   0.54380   0.00000  Uiso   1.00
C833   C     0.77196   0.69484   0.95620   0.00000  Uiso   1.00
C834   C     0.87564   0.92271   0.97509   0.00000  Uiso   1.00
C835   C     0.79103   0.74395   0.52491   0.00000  Uiso   1.00
C836   C     0.85661   0.98606   0.74813   0.00000  Uiso   1.00
C837   C     0.81006   0.68061   0.75186   0.00000  Uiso   1.00
C838   C     0.83413   0.83322   0.83635   0.00000  Uiso   1.00
C839   C     0.83254   0.83345   0.66365   0.00000  Uiso   1.00
C840   C     0.80962   0.78978   0.59410   0.00000  Uiso   1.00
H841   H     0.79343   0.75570   0.61326   0.00000  Uiso   1.00
H842   H     0.99546   0.87247   0.78397   0.00000  Uiso   1.00
H843   H     0.87323   0.91097   0.88674   0.00000  Uiso   1.00
H844   H     0.86850   0.91222   0.61230   0.00000  Uiso   1.00
H845   H     0.79816   0.75445   0.88770   0.00000  Uiso   1.00
H846   H     0.89186   0.95697   0.95618   0.00000  Uiso   1.00
H847   H     0.77481   0.70969   0.54382   0.00000  Uiso   1.00
H848   H     0.90058   0.66973   0.74456   0.00000  Uiso   1.00
H849   H     0.76609   0.99694   0.75544   0.00000  Uiso   1.00
H850   H     0.67121   0.79420   0.71603   0.00000  Uiso   1.00
N851   N     0.98344   0.81932   0.73783   0.00000  Uiso   1.00
N852   N     0.68322   0.84735   0.76217   0.00000  Uiso   1.00
N853   N     0.91092   0.67675   0.56124   0.00000  Uiso   1.00
N854   N     0.75575   0.98992   0.93876   0.00000  Uiso   1.00
O855   O     0.79642   0.91286   0.75298   0.00000  Uiso   1.00
O856   O     0.87025   0.75381   0.74701   0.00000  Uiso   1.00
O857   O     0.89280   0.90387   0.74518   0.00000  Uiso   1.00
O858   O     0.77387   0.76279   0.75481   0.00000  Uiso   1.00
O859   O     0.78514   0.83784   0.81997   0.00000  Uiso   1.00
O860   O     0.88153   0.82883   0.68002   0.00000  Uiso   1.00
O861   O     0.88152   0.82885   0.81217   0.00000  Uiso   1.00
O862   O     0.78515   0.83781   0.68782   0.00000  Uiso   1.00
Zn863  Zn    0.76898   0.83933   0.75521   0.00000  Uiso   1.00
Zn864  Zn    0.89769   0.82734   0.74479   0.00000  Uiso   1.00
loop_
_geom_bond_atom_site_label_1
_geom_bond_atom_site_label_2
_geom_bond_distance
_geom_bond_site_symmetry_2
_ccdc_geom_bond_type
C1     O39     1.278   .     A
C1     O41     1.286   .     A
C1     C20     1.400   .     S
C2     C4      1.387   .     A
C2     H27     1.086   .     S
C2     C13     1.383   .     A
C3     C23     1.415   .     S
C3     C24     1.387   .     A
C3     C5      1.389   .     A
C4     C22     1.415   .     S
C4     C6      1.389   .     A
C5     H28     1.084   .     S
C5     C7      1.392   .     A
C6     H29     1.084   .     S
C6     C8      1.392   .     A
C7     C9      1.419   .     A
C7     C14     1.412   .     A
C8     C15     1.412   .     A
C8     C10     1.419   .     A
C9     C11     1.414   .     A
C9     C442    1.393   1_554 S
C10    C13     1.414   .     A
C10    C441    1.393   .     S
C11    C19     1.397   .     A
C11    C24     1.383   .     A
C12    O40     1.278   .     A
C12    O42     1.286   .     A
C12    C21     1.400   .     S
C13    C18     1.397   .     A
C14    C16     1.446   .     S
C14    C450    1.391   1_554 S
C15    C17     1.446   .     S
C15    C451    1.391   .     S
C16    N181    1.157   .     S
C17    N326    1.157   1_545 S
C18    H30     1.086   .     S
C18    C446    1.391   .     S
C19    H31     1.086   .     S
C19    C447    1.391   1_554 S
C20    C165    1.335   .     S
C20    H176    1.088   .     S
C21    C308    1.335   1_545 S
C21    H321    1.088   1_545 S
C22    O43     1.286   .     A
C22    O45     1.286   .     A
C23    O46     1.286   .     A
C23    O44     1.286   .     A
C24    H25     1.086   .     S
H26    N84     1.029   .     S
H32    C308    1.088   1_545 S
H33    C165    1.088   .     S
H34    N131    1.029   1_455 S
N35    Zn48    2.020   .     S
N35    H82     1.029   .     S
N35    N84     1.276   .     S
N36    Zn47    2.020   .     S
N36    H122    1.029   1_455 S
N36    N131    1.276   1_455 S
N37    C304    1.157   1_545 S
N38    C161    1.157   .     S
O39    Zn47    1.955   .     S
O40    Zn48    1.955   .     S
O41    Zn48    1.975   .     S
O42    Zn47    1.975   .     S
O43    Zn47    1.989   .     S
O44    Zn48    1.989   .     S
O45    Zn48    2.013   .     S
O46    Zn47    2.013   .     S
C49    O87     1.278   .     A
C49    O89     1.286   .     A
C49    C68     1.400   .     S
C50    C52     1.387   .     A
C50    H75     1.086   .     S
C50    C61     1.383   .     A
C51    C71     1.415   .     S
C51    C72     1.387   .     A
C51    C53     1.389   .     A
C52    C70     1.415   .     S
C52    C54     1.389   .     A
C53    H76     1.084   .     S
C53    C55     1.392   .     A
C54    H77     1.084   .     S
C54    C56     1.392   .     A
C55    C57     1.419   .     A
C55    C62     1.412   .     A
C56    C63     1.412   .     A
C56    C58     1.419   .     A
C57    C59     1.414   .     A
C57    C490    1.393   1_554 S
C58    C61     1.414   .     A
C58    C489    1.393   .     S
C59    C67     1.397   .     A
C59    C72     1.383   .     A
C60    O88     1.278   .     A
C60    O90     1.286   .     A
C60    C69     1.400   .     S
C61    C66     1.397   .     A
C62    C64     1.446   .     S
C62    C498    1.391   1_554 S
C63    C65     1.446   .     S
C63    C499    1.391   .     S
C64    N229    1.157   .     S
C65    N374    1.157   1_545 S
C66    H78     1.086   .     S
C66    C494    1.391   .     S
C67    H79     1.086   .     S
C67    C495    1.391   1_554 S
C68    C213    1.335   .     S
C68    H224    1.088   .     S
C69    C356    1.335   1_545 S
C69    H369    1.088   1_545 S
C70    O91     1.286   .     A
C70    O93     1.286   .     A
C71    O94     1.286   .     A
C71    O92     1.286   .     A
C72    H73     1.086   .     S
H74    N132    1.029   .     S
H80    C356    1.088   1_545 S
H81    C213    1.088   .     S
N83    Zn96    2.020   .     S
N83    H130    1.029   .     S
N83    N132    1.276   .     S
N84    Zn95    2.020   .     S
N85    C352    1.157   1_545 S
N86    C209    1.157   .     S
O87    Zn95    1.955   .     S
O88    Zn96    1.955   .     S
O89    Zn96    1.975   .     S
O90    Zn95    1.975   .     S
O91    Zn95    1.989   .     S
O92    Zn96    1.989   .     S
O93    Zn96    2.013   .     S
O94    Zn95    2.013   .     S
C97    O135    1.278   .     A
C97    O137    1.286   .     A
C97    C116    1.400   .     S
C98    C100    1.387   .     A
C98    H123    1.086   .     S
C98    C109    1.383   .     A
C99    C119    1.415   .     S
C99    C120    1.387   .     A
C99    C101    1.389   .     A
C100   C118    1.415   .     S
C100   C102    1.389   .     A
C101   H124    1.084   .     S
C101   C103    1.392   .     A
C102   H125    1.084   .     S
C102   C104    1.392   .     A
C103   C105    1.419   .     A
C103   C110    1.412   .     A
C104   C111    1.412   .     A
C104   C106    1.419   .     A
C105   C107    1.414   .     A
C105   C538    1.393   1_554 S
C106   C109    1.414   .     A
C106   C537    1.393   .     S
C107   C115    1.397   .     A
C107   C120    1.383   .     A
C108   O136    1.278   .     A
C108   O138    1.286   .     A
C108   C117    1.400   .     S
C109   C114    1.397   .     A
C110   C112    1.446   .     S
C110   C546    1.391   1_554 S
C111   C113    1.446   .     S
C111   C547    1.391   .     S
C112   N277    1.157   .     S
C113   N422    1.157   1_545 S
C114   H126    1.086   .     S
C114   C542    1.391   .     S
C115   H127    1.086   .     S
C115   C543    1.391   1_554 S
C116   C261    1.335   .     S
C116   H272    1.088   .     S
C117   C404    1.335   1_545 S
C117   H417    1.088   1_545 S
C118   O139    1.286   .     A
C118   O141    1.286   .     A
C119   O142    1.286   .     A
C119   O140    1.286   .     A
C120   H121    1.086   .     S
H122   N36     1.029   1_655 S
H128   C404    1.088   1_545 S
H129   C261    1.088   .     S
N131   Zn144   2.020   .     S
N131   H34     1.029   1_655 S
N131   N36     1.276   1_655 S
N132   Zn143   2.020   .     S
N133   C400    1.157   1_545 S
N134   C257    1.157   .     S
O135   Zn143   1.955   .     S
O136   Zn144   1.955   .     S
O137   Zn144   1.975   .     S
O138   Zn143   1.975   .     S
O139   Zn143   1.989   .     S
O140   Zn144   1.989   .     S
O141   Zn144   2.013   .     S
O142   Zn143   2.013   .     S
C145   O183    1.278   .     A
C145   O185    1.286   .     A
C145   C164    1.400   .     S
C146   C148    1.387   .     A
C146   H171    1.086   .     S
C146   C157    1.383   .     A
C147   C167    1.415   .     S
C147   C168    1.387   .     A
C147   C149    1.389   .     A
C148   C166    1.415   .     S
C148   C150    1.389   .     A
C149   H172    1.084   .     S
C149   C151    1.392   .     A
C150   H173    1.084   .     S
C150   C152    1.392   .     A
C151   C153    1.419   .     A
C151   C158    1.412   .     A
C152   C159    1.412   .     A
C152   C154    1.419   .     A
C153   C155    1.414   .     A
C153   C586    1.393   1_554 S
C154   C157    1.414   .     A
C154   C585    1.393   .     S
C155   C163    1.397   .     A
C155   C168    1.383   .     A
C156   O184    1.278   .     A
C156   O186    1.286   .     A
C156   C165    1.400   .     S
C157   C162    1.397   .     A
C158   C160    1.446   .     S
C158   C594    1.391   1_554 S
C159   C161    1.446   .     S
C159   C595    1.391   .     S
C160   N325    1.157   .     S
C162   H174    1.086   .     S
C162   C590    1.391   .     S
C163   H175    1.086   .     S
C163   C591    1.391   1_554 S
C164   C309    1.335   .     S
C164   H320    1.088   .     S
C166   O187    1.286   .     A
C166   O189    1.286   .     A
C167   O190    1.286   .     A
C167   O188    1.286   .     A
C168   H169    1.086   .     S
H170   N228    1.029   .     S
H177   C309    1.088   .     S
H178   N275    1.029   1_455 S
N179   Zn192   2.020   .     S
N179   H226    1.029   .     S
N179   N228    1.276   .     S
N180   Zn191   2.020   .     S
N180   H266    1.029   1_455 S
N180   N275    1.276   1_455 S
N182   C305    1.157   .     S
O183   Zn191   1.955   .     S
O184   Zn192   1.955   .     S
O185   Zn192   1.975   .     S
O186   Zn191   1.975   .     S
O187   Zn191   1.989   .     S
O188   Zn192   1.989   .     S
O189   Zn192   2.013   .     S
O190   Zn191   2.013   .     S
C193   O231    1.278   .     A
C193   O233    1.286   .     A
C193   C212    1.400   .     S
C194   C196    1.387   .     A
C194   H219    1.086   .     S
C194   C205    1.383   .     A
C195   C215    1.415   .     S
C195   C216    1.387   .     A
C195   C197    1.389   .     A
C196   C214    1.415   .     S
C196   C198    1.389   .     A
C197   H220    1.084   .     S
C197   C199    1.392   .     A
C198   H221    1.084   .     S
C198   C200    1.392   .     A
C199   C201    1.419   .     A
C199   C206    1.412   .     A
C200   C207    1.412   .     A
C200   C202    1.419   .     A
C201   C203    1.414   .     A
C201   C634    1.393   1_554 S
C202   C205    1.414   .     A
C202   C633    1.393   .     S
C203   C211    1.397   .     A
C203   C216    1.383   .     A
C204   O232    1.278   .     A
C204   O234    1.286   .     A
C204   C213    1.400   .     S
C205   C210    1.397   .     A
C206   C208    1.446   .     S
C206   C642    1.391   1_554 S
C207   C209    1.446   .     S
C207   C643    1.391   .     S
C208   N373    1.157   .     S
C210   H222    1.086   .     S
C210   C638    1.391   .     S
C211   H223    1.086   .     S
C211   C639    1.391   1_554 S
C212   C357    1.335   .     S
C212   H368    1.088   .     S
C214   O235    1.286   .     A
C214   O237    1.286   .     A
C215   O238    1.286   .     A
C215   O236    1.286   .     A
C216   H217    1.086   .     S
H218   N276    1.029   .     S
H225   C357    1.088   .     S
N227   Zn240   2.020   .     S
N227   H274    1.029   .     S
N227   N276    1.276   .     S
N228   Zn239   2.020   .     S
N230   C353    1.157   .     S
O231   Zn239   1.955   .     S
O232   Zn240   1.955   .     S
O233   Zn240   1.975   .     S
O234   Zn239   1.975   .     S
O235   Zn239   1.989   .     S
O236   Zn240   1.989   .     S
O237   Zn240   2.013   .     S
O238   Zn239   2.013   .     S
C241   O279    1.278   .     A
C241   O281    1.286   .     A
C241   C260    1.400   .     S
C242   C244    1.387   .     A
C242   H267    1.086   .     S
C242   C253    1.383   .     A
C243   C263    1.415   .     S
C243   C264    1.387   .     A
C243   C245    1.389   .     A
C244   C262    1.415   .     S
C244   C246    1.389   .     A
C245   H268    1.084   .     S
C245   C247    1.392   .     A
C246   H269    1.084   .     S
C246   C248    1.392   .     A
C247   C249    1.419   .     A
C247   C254    1.412   .     A
C248   C255    1.412   .     A
C248   C250    1.419   .     A
C249   C251    1.414   .     A
C249   C682    1.393   1_554 S
C250   C253    1.414   .     A
C250   C681    1.393   .     S
C251   C259    1.397   .     A
C251   C264    1.383   .     A
C252   O280    1.278   .     A
C252   O282    1.286   .     A
C252   C261    1.400   .     S
C253   C258    1.397   .     A
C254   C256    1.446   .     S
C254   C690    1.391   1_554 S
C255   C257    1.446   .     S
C255   C691    1.391   .     S
C256   N421    1.157   .     S
C258   H270    1.086   .     S
C258   C686    1.391   .     S
C259   H271    1.086   .     S
C259   C687    1.391   1_554 S
C260   C405    1.335   .     S
C260   H416    1.088   .     S
C262   O283    1.286   .     A
C262   O285    1.286   .     A
C263   O286    1.286   .     A
C263   O284    1.286   .     A
C264   H265    1.086   .     S
H266   N180    1.029   1_655 S
H273   C405    1.088   .     S
N275   Zn288   2.020   .     S
N275   H178    1.029   1_655 S
N275   N180    1.276   1_655 S
N276   Zn287   2.020   .     S
N278   C401    1.157   .     S
O279   Zn287   1.955   .     S
O280   Zn288   1.955   .     S
O281   Zn288   1.975   .     S
O282   Zn287   1.975   .     S
O283   Zn287   1.989   .     S
O284   Zn288   1.989   .     S
O285   Zn288   2.013   .     S
O286   Zn287   2.013   .     S
C289   O327    1.278   .     A
C289   O329    1.286   .     A
C289   C308    1.400   .     S
C290   C292    1.387   .     A
C290   H315    1.086   .     S
C290   C301    1.383   .     A
C291   C311    1.415   .     S
C291   C312    1.387   .     A
C291   C293    1.389   .     A
C292   C310    1.415   .     S
C292   C294    1.389   .     A
C293   H316    1.084   .     S
C293   C295    1.392   .     A
C294   H317    1.084   .     S
C294   C296    1.392   .     A
C295   C297    1.419   .     A
C295   C302    1.412   .     A
C296   C303    1.412   .     A
C296   C298    1.419   .     A
C297   C299    1.414   .     A
C297   C730    1.393   1_554 S
C298   C301    1.414   .     A
C298   C729    1.393   .     S
C299   C307    1.397   .     A
C299   C312    1.383   .     A
C300   O328    1.278   .     A
C300   O330    1.286   .     A
C300   C309    1.400   .     S
C301   C306    1.397   .     A
C302   C304    1.446   .     S
C302   C738    1.391   1_554 S
C303   C305    1.446   .     S
C303   C739    1.391   .     S
C304   N37     1.157   1_565 S
C306   H318    1.086   .     S
C306   C734    1.391   .     S
C307   H319    1.086   .     S
C307   C735    1.391   1_554 S
C308   C21     1.335   1_565 S
C308   H32     1.088   1_565 S
C310   O331    1.286   .     A
C310   O333    1.286   .     A
C311   O334    1.286   .     A
C311   O332    1.286   .     A
C312   H313    1.086   .     S
H314   N372    1.029   .     S
H321   C21     1.088   1_565 S
H322   N419    1.029   1_455 S
N323   Zn336   2.020   .     S
N323   H370    1.029   .     S
N323   N372    1.276   .     S
N324   Zn335   2.020   .     S
N324   H410    1.029   1_455 S
N324   N419    1.276   1_455 S
N326   C17     1.157   1_565 S
O327   Zn335   1.955   .     S
O328   Zn336   1.955   .     S
O329   Zn336   1.975   .     S
O330   Zn335   1.975   .     S
O331   Zn335   1.989   .     S
O332   Zn336   1.989   .     S
O333   Zn336   2.013   .     S
O334   Zn335   2.013   .     S
C337   O375    1.278   .     A
C337   O377    1.286   .     A
C337   C356    1.400   .     S
C338   C340    1.387   .     A
C338   H363    1.086   .     S
C338   C349    1.383   .     A
C339   C359    1.415   .     S
C339   C360    1.387   .     A
C339   C341    1.389   .     A
C340   C358    1.415   .     S
C340   C342    1.389   .     A
C341   H364    1.084   .     S
C341   C343    1.392   .     A
C342   H365    1.084   .     S
C342   C344    1.392   .     A
C343   C345    1.419   .     A
C343   C350    1.412   .     A
C344   C351    1.412   .     A
C344   C346    1.419   .     A
C345   C347    1.414   .     A
C345   C778    1.393   1_554 S
C346   C349    1.414   .     A
C346   C777    1.393   .     S
C347   C355    1.397   .     A
C347   C360    1.383   .     A
C348   O376    1.278   .     A
C348   O378    1.286   .     A
C348   C357    1.400   .     S
C349   C354    1.397   .     A
C350   C352    1.446   .     S
C350   C786    1.391   1_554 S
C351   C353    1.446   .     S
C351   C787    1.391   .     S
C352   N85     1.157   1_565 S
C354   H366    1.086   .     S
C354   C782    1.391   .     S
C355   H367    1.086   .     S
C355   C783    1.391   1_554 S
C356   C69     1.335   1_565 S
C356   H80     1.088   1_565 S
C358   O379    1.286   .     A
C358   O381    1.286   .     A
C359   O382    1.286   .     A
C359   O380    1.286   .     A
C360   H361    1.086   .     S
H362   N420    1.029   .     S
H369   C69     1.088   1_565 S
N371   Zn384   2.020   .     S
N371   H418    1.029   .     S
N371   N420    1.276   .     S
N372   Zn383   2.020   .     S
N374   C65     1.157   1_565 S
O375   Zn383   1.955   .     S
O376   Zn384   1.955   .     S
O377   Zn384   1.975   .     S
O378   Zn383   1.975   .     S
O379   Zn383   1.989   .     S
O380   Zn384   1.989   .     S
O381   Zn384   2.013   .     S
O382   Zn383   2.013   .     S
C385   O423    1.278   .     A
C385   O425    1.286   .     A
C385   C404    1.400   .     S
C386   C388    1.387   .     A
C386   H411    1.086   .     S
C386   C397    1.383   .     A
C387   C407    1.415   .     S
C387   C408    1.387   .     A
C387   C389    1.389   .     A
C388   C406    1.415   .     S
C388   C390    1.389   .     A
C389   H412    1.084   .     S
C389   C391    1.392   .     A
C390   H413    1.084   .     S
C390   C392    1.392   .     A
C391   C393    1.419   .     A
C391   C398    1.412   .     A
C392   C399    1.412   .     A
C392   C394    1.419   .     A
C393   C395    1.414   .     A
C393   C826    1.393   1_554 S
C394   C397    1.414   .     A
C394   C825    1.393   .     S
C395   C403    1.397   .     A
C395   C408    1.383   .     A
C396   O424    1.278   .     A
C396   O426    1.286   .     A
C396   C405    1.400   .     S
C397   C402    1.397   .     A
C398   C400    1.446   .     S
C398   C834    1.391   1_554 S
C399   C401    1.446   .     S
C399   C835    1.391   .     S
C400   N133    1.157   1_565 S
C402   H414    1.086   .     S
C402   C830    1.391   .     S
C403   H415    1.086   .     S
C403   C831    1.391   1_554 S
C404   C117    1.335   1_565 S
C404   H128    1.088   1_565 S
C406   O427    1.286   .     A
C406   O429    1.286   .     A
C407   O430    1.286   .     A
C407   O428    1.286   .     A
C408   H409    1.086   .     S
H410   N324    1.029   1_655 S
H417   C117    1.088   1_565 S
N419   Zn432   2.020   .     S
N419   H322    1.029   1_655 S
N419   N324    1.276   1_655 S
N420   Zn431   2.020   .     S
N422   C113    1.157   1_565 S
O423   Zn431   1.955   .     S
O424   Zn432   1.955   .     S
O425   Zn432   1.975   .     S
O426   Zn431   1.975   .     S
O427   Zn431   1.989   .     S
O428   Zn432   1.989   .     S
O429   Zn432   2.013   .     S
O430   Zn431   2.013   .     S
C433   O471    1.278   .     A
C433   O473    1.286   .     A
C433   C452    1.400   .     S
C434   C436    1.387   .     A
C434   H459    1.086   .     S
C434   C445    1.383   .     A
C435   C455    1.415   .     S
C435   C456    1.387   .     A
C435   C437    1.389   .     A
C436   C454    1.415   .     S
C436   C438    1.389   .     A
C437   H460    1.084   .     S
C437   C439    1.392   .     A
C438   H461    1.084   .     S
C438   C440    1.392   .     A
C439   C441    1.419   .     A
C439   C446    1.412   .     A
C440   C447    1.412   .     A
C440   C442    1.419   .     A
C441   C443    1.414   .     A
C442   C445    1.414   .     A
C442   C9      1.393   1_556 S
C443   C451    1.397   .     A
C443   C456    1.383   .     A
C444   O472    1.278   .     A
C444   O474    1.286   .     A
C444   C453    1.400   .     S
C445   C450    1.397   .     A
C446   C448    1.446   .     S
C447   C449    1.446   .     S
C447   C19     1.391   1_556 S
C448   N613    1.157   .     S
C449   N758    1.157   1_545 S
C450   H462    1.086   .     S
C450   C14     1.391   1_556 S
C451   H463    1.086   .     S
C452   C597    1.335   .     S
C452   H608    1.088   .     S
C453   C740    1.335   1_545 S
C453   H753    1.088   1_545 S
C454   O475    1.286   .     A
C454   O477    1.286   .     A
C455   O478    1.286   .     A
C455   O476    1.286   .     A
C456   H457    1.086   .     S
H458   N516    1.029   .     S
H464   C740    1.088   1_545 S
H465   C597    1.088   .     S
H466   N563    1.029   1_455 S
N467   Zn480   2.020   .     S
N467   H514    1.029   .     S
N467   N516    1.276   .     S
N468   Zn479   2.020   .     S
N468   H554    1.029   1_455 S
N468   N563    1.276   1_455 S
N469   C736    1.157   1_545 S
N470   C593    1.157   .     S
O471   Zn479   1.955   .     S
O472   Zn480   1.955   .     S
O473   Zn480   1.975   .     S
O474   Zn479   1.975   .     S
O475   Zn479   1.989   .     S
O476   Zn480   1.989   .     S
O477   Zn480   2.013   .     S
O478   Zn479   2.013   .     S
C481   O519    1.278   .     A
C481   O521    1.286   .     A
C481   C500    1.400   .     S
C482   C484    1.387   .     A
C482   H507    1.086   .     S
C482   C493    1.383   .     A
C483   C503    1.415   .     S
C483   C504    1.387   .     A
C483   C485    1.389   .     A
C484   C502    1.415   .     S
C484   C486    1.389   .     A
C485   H508    1.084   .     S
C485   C487    1.392   .     A
C486   H509    1.084   .     S
C486   C488    1.392   .     A
C487   C489    1.419   .     A
C487   C494    1.412   .     A
C488   C495    1.412   .     A
C488   C490    1.419   .     A
C489   C491    1.414   .     A
C490   C493    1.414   .     A
C490   C57     1.393   1_556 S
C491   C499    1.397   .     A
C491   C504    1.383   .     A
C492   O520    1.278   .     A
C492   O522    1.286   .     A
C492   C501    1.400   .     S
C493   C498    1.397   .     A
C494   C496    1.446   .     S
C495   C497    1.446   .     S
C495   C67     1.391   1_556 S
C496   N661    1.157   .     S
C497   N806    1.157   1_545 S
C498   H510    1.086   .     S
C498   C62     1.391   1_556 S
C499   H511    1.086   .     S
C500   C645    1.335   .     S
C500   H656    1.088   .     S
C501   C788    1.335   1_545 S
C501   H801    1.088   1_545 S
C502   O523    1.286   .     A
C502   O525    1.286   .     A
C503   O526    1.286   .     A
C503   O524    1.286   .     A
C504   H505    1.086   .     S
H506   N564    1.029   .     S
H512   C788    1.088   1_545 S
H513   C645    1.088   .     S
N515   Zn528   2.020   .     S
N515   H562    1.029   .     S
N515   N564    1.276   .     S
N516   Zn527   2.020   .     S
N517   C784    1.157   1_545 S
N518   C641    1.157   .     S
O519   Zn527   1.955   .     S
O520   Zn528   1.955   .     S
O521   Zn528   1.975   .     S
O522   Zn527   1.975   .     S
O523   Zn527   1.989   .     S
O524   Zn528   1.989   .     S
O525   Zn528   2.013   .     S
O526   Zn527   2.013   .     S
C529   O567    1.278   .     A
C529   O569    1.286   .     A
C529   C548    1.400   .     S
C530   C532    1.387   .     A
C530   H555    1.086   .     S
C530   C541    1.383   .     A
C531   C551    1.415   .     S
C531   C552    1.387   .     A
C531   C533    1.389   .     A
C532   C550    1.415   .     S
C532   C534    1.389   .     A
C533   H556    1.084   .     S
C533   C535    1.392   .     A
C534   H557    1.084   .     S
C534   C536    1.392   .     A
C535   C537    1.419   .     A
C535   C542    1.412   .     A
C536   C543    1.412   .     A
C536   C538    1.419   .     A
C537   C539    1.414   .     A
C538   C541    1.414   .     A
C538   C105    1.393   1_556 S
C539   C547    1.397   .     A
C539   C552    1.383   .     A
C540   O568    1.278   .     A
C540   O570    1.286   .     A
C540   C549    1.400   .     S
C541   C546    1.397   .     A
C542   C544    1.446   .     S
C543   C545    1.446   .     S
C543   C115    1.391   1_556 S
C544   N709    1.157   .     S
C545   N854    1.157   1_545 S
C546   H558    1.086   .     S
C546   C110    1.391   1_556 S
C547   H559    1.086   .     S
C548   C693    1.335   .     S
C548   H704    1.088   .     S
C549   C836    1.335   1_545 S
C549   H849    1.088   1_545 S
C550   O571    1.286   .     A
C550   O573    1.286   .     A
C551   O574    1.286   .     A
C551   O572    1.286   .     A
C552   H553    1.086   .     S
H554   N468    1.029   1_655 S
H560   C836    1.088   1_545 S
H561   C693    1.088   .     S
N563   Zn576   2.020   .     S
N563   H466    1.029   1_655 S
N563   N468    1.276   1_655 S
N564   Zn575   2.020   .     S
N565   C832    1.157   1_545 S
N566   C689    1.157   .     S
O567   Zn575   1.955   .     S
O568   Zn576   1.955   .     S
O569   Zn576   1.975   .     S
O570   Zn575   1.975   .     S
O571   Zn575   1.989   .     S
O572   Zn576   1.989   .     S
O573   Zn576   2.013   .     S
O574   Zn575   2.013   .     S
C577   O615    1.278   .     A
C577   O617    1.286   .     A
C577   C596    1.400   .     S
C578   C580    1.387   .     A
C578   H603    1.086   .     S
C578   C589    1.383   .     A
C579   C599    1.415   .     S
C579   C600    1.387   .     A
C579   C581    1.389   .     A
C580   C598    1.415   .     S
C580   C582    1.389   .     A
C581   H604    1.084   .     S
C581   C583    1.392   .     A
C582   H605    1.084   .     S
C582   C584    1.392   .     A
C583   C585    1.419   .     A
C583   C590    1.412   .     A
C584   C591    1.412   .     A
C584   C586    1.419   .     A
C585   C587    1.414   .     A
C586   C589    1.414   .     A
C586   C153    1.393   1_556 S
C587   C595    1.397   .     A
C587   C600    1.383   .     A
C588   O616    1.278   .     A
C588   O618    1.286   .     A
C588   C597    1.400   .     S
C589   C594    1.397   .     A
C590   C592    1.446   .     S
C591   C593    1.446   .     S
C591   C163    1.391   1_556 S
C592   N757    1.157   .     S
C594   H606    1.086   .     S
C594   C158    1.391   1_556 S
C595   H607    1.086   .     S
C596   C741    1.335   .     S
C596   H752    1.088   .     S
C598   O619    1.286   .     A
C598   O621    1.286   .     A
C599   O622    1.286   .     A
C599   O620    1.286   .     A
C600   H601    1.086   .     S
H602   N660    1.029   .     S
H609   C741    1.088   .     S
H610   N707    1.029   1_455 S
N611   Zn624   2.020   .     S
N611   H658    1.029   .     S
N611   N660    1.276   .     S
N612   Zn623   2.020   .     S
N612   H698    1.029   1_455 S
N612   N707    1.276   1_455 S
N614   C737    1.157   .     S
O615   Zn623   1.955   .     S
O616   Zn624   1.955   .     S
O617   Zn624   1.975   .     S
O618   Zn623   1.975   .     S
O619   Zn623   1.989   .     S
O620   Zn624   1.989   .     S
O621   Zn624   2.013   .     S
O622   Zn623   2.013   .     S
C625   O663    1.278   .     A
C625   O665    1.286   .     A
C625   C644    1.400   .     S
C626   C628    1.387   .     A
C626   H651    1.086   .     S
C626   C637    1.383   .     A
C627   C647    1.415   .     S
C627   C648    1.387   .     A
C627   C629    1.389   .     A
C628   C646    1.415   .     S
C628   C630    1.389   .     A
C629   H652    1.084   .     S
C629   C631    1.392   .     A
C630   H653    1.084   .     S
C630   C632    1.392   .     A
C631   C633    1.419   .     A
C631   C638    1.412   .     A
C632   C639    1.412   .     A
C632   C634    1.419   .     A
C633   C635    1.414   .     A
C634   C637    1.414   .     A
C634   C201    1.393   1_556 S
C635   C643    1.397   .     A
C635   C648    1.383   .     A
C636   O664    1.278   .     A
C636   O666    1.286   .     A
C636   C645    1.400   .     S
C637   C642    1.397   .     A
C638   C640    1.446   .     S
C639   C641    1.446   .     S
C639   C211    1.391   1_556 S
C640   N805    1.157   .     S
C642   H654    1.086   .     S
C642   C206    1.391   1_556 S
C643   H655    1.086   .     S
C644   C789    1.335   .     S
C644   H800    1.088   .     S
C646   O667    1.286   .     A
C646   O669    1.286   .     A
C647   O670    1.286   .     A
C647   O668    1.286   .     A
C648   H649    1.086   .     S
H650   N708    1.029   .     S
H657   C789    1.088   .     S
N659   Zn672   2.020   .     S
N659   H706    1.029   .     S
N659   N708    1.276   .     S
N660   Zn671   2.020   .     S
N662   C785    1.157   .     S
O663   Zn671   1.955   .     S
O664   Zn672   1.955   .     S
O665   Zn672   1.975   .     S
O666   Zn671   1.975   .     S
O667   Zn671   1.989   .     S
O668   Zn672   1.989   .     S
O669   Zn672   2.013   .     S
O670   Zn671   2.013   .     S
C673   O711    1.278   .     A
C673   O713    1.286   .     A
C673   C692    1.400   .     S
C674   C676    1.387   .     A
C674   H699    1.086   .     S
C674   C685    1.383   .     A
C675   C695    1.415   .     S
C675   C696    1.387   .     A
C675   C677    1.389   .     A
C676   C694    1.415   .     S
C676   C678    1.389   .     A
C677   H700    1.084   .     S
C677   C679    1.392   .     A
C678   H701    1.084   .     S
C678   C680    1.392   .     A
C679   C681    1.419   .     A
C679   C686    1.412   .     A
C680   C687    1.412   .     A
C680   C682    1.419   .     A
C681   C683    1.414   .     A
C682   C685    1.414   .     A
C682   C249    1.393   1_556 S
C683   C691    1.397   .     A
C683   C696    1.383   .     A
C684   O712    1.278   .     A
C684   O714    1.286   .     A
C684   C693    1.400   .     S
C685   C690    1.397   .     A
C686   C688    1.446   .     S
C687   C689    1.446   .     S
C687   C259    1.391   1_556 S
C688   N853    1.157   .     S
C690   H702    1.086   .     S
C690   C254    1.391   1_556 S
C691   H703    1.086   .     S
C692   C837    1.335   .     S
C692   H848    1.088   .     S
C694   O715    1.286   .     A
C694   O717    1.286   .     A
C695   O718    1.286   .     A
C695   O716    1.286   .     A
C696   H697    1.086   .     S
H698   N612    1.029   1_655 S
H705   C837    1.088   .     S
N707   Zn720   2.020   .     S
N707   H610    1.029   1_655 S
N707   N612    1.276   1_655 S
N708   Zn719   2.020   .     S
N710   C833    1.157   .     S
O711   Zn719   1.955   .     S
O712   Zn720   1.955   .     S
O713   Zn720   1.975   .     S
O714   Zn719   1.975   .     S
O715   Zn719   1.989   .     S
O716   Zn720   1.989   .     S
O717   Zn720   2.013   .     S
O718   Zn719   2.013   .     S
C721   O759    1.278   .     A
C721   O761    1.286   .     A
C721   C740    1.400   .     S
C722   C724    1.387   .     A
C722   H747    1.086   .     S
C722   C733    1.383   .     A
C723   C743    1.415   .     S
C723   C744    1.387   .     A
C723   C725    1.389   .     A
C724   C742    1.415   .     S
C724   C726    1.389   .     A
C725   H748    1.084   .     S
C725   C727    1.392   .     A
C726   H749    1.084   .     S
C726   C728    1.392   .     A
C727   C729    1.419   .     A
C727   C734    1.412   .     A
C728   C735    1.412   .     A
C728   C730    1.419   .     A
C729   C731    1.414   .     A
C730   C733    1.414   .     A
C730   C297    1.393   1_556 S
C731   C739    1.397   .     A
C731   C744    1.383   .     A
C732   O760    1.278   .     A
C732   O762    1.286   .     A
C732   C741    1.400   .     S
C733   C738    1.397   .     A
C734   C736    1.446   .     S
C735   C737    1.446   .     S
C735   C307    1.391   1_556 S
C736   N469    1.157   1_565 S
C738   H750    1.086   .     S
C738   C302    1.391   1_556 S
C739   H751    1.086   .     S
C740   C453    1.335   1_565 S
C740   H464    1.088   1_565 S
C742   O763    1.286   .     A
C742   O765    1.286   .     A
C743   O766    1.286   .     A
C743   O764    1.286   .     A
C744   H745    1.086   .     S
H746   N804    1.029   .     S
H753   C453    1.088   1_565 S
H754   N851    1.029   1_455 S
N755   Zn768   2.020   .     S
N755   H802    1.029   .     S
N755   N804    1.276   .     S
N756   Zn767   2.020   .     S
N756   H842    1.029   1_455 S
N756   N851    1.276   1_455 S
N758   C449    1.157   1_565 S
O759   Zn767   1.955   .     S
O760   Zn768   1.955   .     S
O761   Zn768   1.975   .     S
O762   Zn767   1.975   .     S
O763   Zn767   1.989   .     S
O764   Zn768   1.989   .     S
O765   Zn768   2.013   .     S
O766   Zn767   2.013   .     S
C769   O807    1.278   .     A
C769   O809    1.286   .     A
C769   C788    1.400   .     S
C770   C772    1.387   .     A
C770   H795    1.086   .     S
C770   C781    1.383   .     A
C771   C791    1.415   .     S
C771   C792    1.387   .     A
C771   C773    1.389   .     A
C772   C790    1.415   .     S
C772   C774    1.389   .     A
C773   H796    1.084   .     S
C773   C775    1.392   .     A
C774   H797    1.084   .     S
C774   C776    1.392   .     A
C775   C777    1.419   .     A
C775   C782    1.412   .     A
C776   C783    1.412   .     A
C776   C778    1.419   .     A
C777   C779    1.414   .     A
C778   C781    1.414   .     A
C778   C345    1.393   1_556 S
C779   C787    1.397   .     A
C779   C792    1.383   .     A
C780   O808    1.278   .     A
C780   O810    1.286   .     A
C780   C789    1.400   .     S
C781   C786    1.397   .     A
C782   C784    1.446   .     S
C783   C785    1.446   .     S
C783   C355    1.391   1_556 S
C784   N517    1.157   1_565 S
C786   H798    1.086   .     S
C786   C350    1.391   1_556 S
C787   H799    1.086   .     S
C788   C501    1.335   1_565 S
C788   H512    1.088   1_565 S
C790   O811    1.286   .     A
C790   O813    1.286   .     A
C791   O814    1.286   .     A
C791   O812    1.286   .     A
C792   H793    1.086   .     S
H794   N852    1.029   .     S
H801   C501    1.088   1_565 S
N803   Zn816   2.020   .     S
N803   H850    1.029   .     S
N803   N852    1.276   .     S
N804   Zn815   2.020   .     S
N806   C497    1.157   1_565 S
O807   Zn815   1.955   .     S
O808   Zn816   1.955   .     S
O809   Zn816   1.975   .     S
O810   Zn815   1.975   .     S
O811   Zn815   1.989   .     S
O812   Zn816   1.989   .     S
O813   Zn816   2.013   .     S
O814   Zn815   2.013   .     S
C817   O855    1.278   .     A
C817   O857    1.286   .     A
C817   C836    1.400   .     S
C818   C820    1.387   .     A
C818   H843    1.086   .     S
C818   C829    1.383   .     A
C819   C839    1.415   .     S
C819   C840    1.387   .     A
C819   C821    1.389   .     A
C820   C838    1.415   .     S
C820   C822    1.389   .     A
C821   H844    1.084   .     S
C821   C823    1.392   .     A
C822   H845    1.084   .     S
C822   C824    1.392   .     A
C823   C825    1.419   .     A
C823   C830    1.412   .     A
C824   C831    1.412   .     A
C824   C826    1.419   .     A
C825   C827    1.414   .     A
C826   C829    1.414   .     A
C826   C393    1.393   1_556 S
C827   C835    1.397   .     A
C827   C840    1.383   .     A
C828   O856    1.278   .     A
C828   O858    1.286   .     A
C828   C837    1.400   .     S
C829   C834    1.397   .     A
C830   C832    1.446   .     S
C831   C833    1.446   .     S
C831   C403    1.391   1_556 S
C832   N565    1.157   1_565 S
C834   H846    1.086   .     S
C834   C398    1.391   1_556 S
C835   H847    1.086   .     S
C836   C549    1.335   1_565 S
C836   H560    1.088   1_565 S
C838   O859    1.286   .     A
C838   O861    1.286   .     A
C839   O862    1.286   .     A
C839   O860    1.286   .     A
C840   H841    1.086   .     S
H842   N756    1.029   1_655 S
H849   C549    1.088   1_565 S
N851   Zn864   2.020   .     S
N851   H754    1.029   1_655 S
N851   N756    1.276   1_655 S
N852   Zn863   2.020   .     S
N854   C545    1.157   1_565 S
O855   Zn863   1.955   .     S
O856   Zn864   1.955   .     S
O857   Zn864   1.975   .     S
O858   Zn863   1.975   .     S
O859   Zn863   1.989   .     S
O860   Zn864   1.989   .     S
O861   Zn864   2.013   .     S
O862   Zn863   2.013   .     S
