data_str_m3_o10_o18_pcu_sym.96
_audit_creation_date              2020-01-03
_audit_creation_method            'Materials Studio'
_symmetry_space_group_name_H-M    'P1'
_symmetry_Int_Tables_number       1
_symmetry_cell_setting            triclinic
loop_
_symmetry_equiv_pos_as_xyz
  x,y,z
_cell_length_a                    23.5278
_cell_length_b                    25.8546
_cell_length_c                    27.7209
_cell_angle_alpha                 92.8745
_cell_angle_beta                  94.2464
_cell_angle_gamma                 94.2947
loop_
_atom_site_label
_atom_site_type_symbol
_atom_site_fract_x
_atom_site_fract_y
_atom_site_fract_z
_atom_site_U_iso_or_equiv
_atom_site_adp_type
_atom_site_occupancy
C1     C     0.01570   0.26480   0.25201   0.00000  Uiso   1.00
C2     C     0.31143   0.16096   0.15908   0.00000  Uiso   1.00
C3     C     0.03250   0.17168   0.39329   0.00000  Uiso   1.00
C4     C     0.29809   0.14594   0.10785   0.00000  Uiso   1.00
C5     C     0.01141   0.20034   0.47383   0.00000  Uiso   1.00
C6     C     0.30265   0.08436   0.03948   0.00000  Uiso   1.00
C7     C     0.32992   0.19564   0.42415   0.00000  Uiso   1.00
C8     C     0.32412   0.10509   0.08524   0.00000  Uiso   1.00
C9     C     0.08087   0.14961   0.41230   0.00000  Uiso   1.00
C10    C     0.25066   0.16511   0.08469   0.00000  Uiso   1.00
C11    C     0.09466   0.15110   0.46211   0.00000  Uiso   1.00
C12    C     0.31918   0.06888   0.25453   0.00000  Uiso   1.00
C13    C     0.22259   0.13804   0.04383   0.00000  Uiso   1.00
C14    C     0.06133   0.17986   0.49280   0.00000  Uiso   1.00
C15    C     0.25107   0.10017   0.01880   0.00000  Uiso   1.00
C16    C     0.14415   0.12923   0.48158   0.00000  Uiso   1.00
C17    C     0.16603   0.14698   0.02852   0.00000  Uiso   1.00
C18    C     0.13930   0.10830   0.12516   0.00000  Uiso   1.00
C19    C     0.09333   0.02370   0.43240   0.00000  Uiso   1.00
C20    C     0.11074   0.02368   0.30540   0.00000  Uiso   1.00
C21    C     0.26140   0.32487   0.33281   0.00000  Uiso   1.00
C22    C     0.12848   0.16812   0.06065   0.00000  Uiso   1.00
C23    C     0.17155   0.08903   0.45738   0.00000  Uiso   1.00
C24    C     0.07783   0.18687   0.04210   0.00000  Uiso   1.00
C25    C     0.22521   0.07573   0.47596   0.00000  Uiso   1.00
C26    C     0.02586   0.31950   0.25881   0.00000  Uiso   1.00
C27    C     0.31388   0.01543   0.26467   0.00000  Uiso   1.00
C28    C     0.02167   0.17049   0.34092   0.00000  Uiso   1.00
H29    H     0.05062   0.20554   0.06639   0.00000  Uiso   1.00
H30    H     0.17128   0.21135   0.28227   0.00000  Uiso   1.00
H31    H     0.11481   0.18511   0.13344   0.00000  Uiso   1.00
H32    H     0.18258   0.10289   0.14178   0.00000  Uiso   1.00
H33    H     0.13019   0.07971   0.09367   0.00000  Uiso   1.00
H34    H     0.10758   0.09892   0.15162   0.00000  Uiso   1.00
H35    H     0.16835   0.03689   0.39746   0.00000  Uiso   1.00
H36    H     0.05601   0.02834   0.40653   0.00000  Uiso   1.00
H37    H     0.08139   0.03399   0.46956   0.00000  Uiso   1.00
H38    H     0.10293   0.31557   0.43067   0.00000  Uiso   1.00
H39    H     0.10944   0.32093   0.23667   0.00000  Uiso   1.00
H40    H     0.24549   0.04457   0.45803   0.00000  Uiso   1.00
H41    H     0.15163   0.04683   0.30173   0.00000  Uiso   1.00
H42    H     0.11889   0.32217   0.32595   0.00000  Uiso   1.00
H43    H     0.08334   0.04872   0.32575   0.00000  Uiso   1.00
H44    H     0.22512   0.01036   0.26576   0.00000  Uiso   1.00
H45    H     0.22092   0.30421   0.34201   0.00000  Uiso   1.00
H46    H     0.26562   0.03114   0.35092   0.00000  Uiso   1.00
H47    H     0.29738   0.30272   0.34653   0.00000  Uiso   1.00
H48    H     0.23286   0.19839   0.10141   0.00000  Uiso   1.00
H49    H     0.10932   0.13371   0.38761   0.00000  Uiso   1.00
H50    H     0.02583   0.08769   0.10355   0.00000  Uiso   1.00
H51    H     0.29196   0.21261   0.40974   0.00000  Uiso   1.00
H52    H     0.31790   0.22074   0.49724   0.00000  Uiso   1.00
H53    H     0.32391   0.05356   0.02206   0.00000  Uiso   1.00
H54    H     0.16234   0.12021   0.22098   0.00000  Uiso   1.00
N55    N     0.14695   0.15216   0.23739   0.00000  Uiso   1.00
N56    N     0.18638   0.18117   0.26260   0.00000  Uiso   1.00
N57    N     0.13663   0.16170   0.11136   0.00000  Uiso   1.00
N58    N     0.14225   0.05618   0.41929   0.00000  Uiso   1.00
N59    N     0.08360   0.00789   0.25797   0.00000  Uiso   1.00
N60    N     0.26090   0.32815   0.28083   0.00000  Uiso   1.00
O61    O     0.29719   0.24631   0.25309   0.00000  Uiso   1.00
O62    O     0.03614   0.08702   0.24690   0.00000  Uiso   1.00
O63    O     0.05822   0.23702   0.24501   0.00000  Uiso   1.00
O64    O     0.27512   0.09632   0.25498   0.00000  Uiso   1.00
O65    O     0.30328   0.17397   0.32247   0.00000  Uiso   1.00
O66    O     0.03005   0.15937   0.17753   0.00000  Uiso   1.00
O67    O     0.06431   0.16467   0.31439   0.00000  Uiso   1.00
O68    O     0.26902   0.16866   0.18561   0.00000  Uiso   1.00
Zn69   Zn    0.27033   0.17287   0.25539   0.00000  Uiso   1.00
Zn70   Zn    0.06300   0.16046   0.24460   0.00000  Uiso   1.00
C71    C     0.34904   0.26480   0.25201   0.00000  Uiso   1.00
C72    C     0.64476   0.16096   0.15908   0.00000  Uiso   1.00
C73    C     0.36583   0.17168   0.39329   0.00000  Uiso   1.00
C74    C     0.63143   0.14594   0.10785   0.00000  Uiso   1.00
C75    C     0.34475   0.20034   0.47383   0.00000  Uiso   1.00
C76    C     0.63599   0.08436   0.03948   0.00000  Uiso   1.00
C77    C     0.66325   0.19564   0.42415   0.00000  Uiso   1.00
C78    C     0.65746   0.10509   0.08524   0.00000  Uiso   1.00
C79    C     0.41421   0.14961   0.41230   0.00000  Uiso   1.00
C80    C     0.58399   0.16511   0.08469   0.00000  Uiso   1.00
C81    C     0.42800   0.15110   0.46211   0.00000  Uiso   1.00
C82    C     0.65252   0.06888   0.25453   0.00000  Uiso   1.00
C83    C     0.55593   0.13804   0.04383   0.00000  Uiso   1.00
C84    C     0.39467   0.17986   0.49280   0.00000  Uiso   1.00
C85    C     0.58441   0.10017   0.01880   0.00000  Uiso   1.00
C86    C     0.47748   0.12923   0.48158   0.00000  Uiso   1.00
C87    C     0.49936   0.14698   0.02852   0.00000  Uiso   1.00
C88    C     0.47264   0.10830   0.12516   0.00000  Uiso   1.00
C89    C     0.42666   0.02370   0.43240   0.00000  Uiso   1.00
C90    C     0.44408   0.02368   0.30540   0.00000  Uiso   1.00
C91    C     0.59473   0.32487   0.33281   0.00000  Uiso   1.00
C92    C     0.46182   0.16812   0.06065   0.00000  Uiso   1.00
C93    C     0.50488   0.08903   0.45738   0.00000  Uiso   1.00
C94    C     0.41116   0.18687   0.04210   0.00000  Uiso   1.00
C95    C     0.55854   0.07573   0.47596   0.00000  Uiso   1.00
C96    C     0.35919   0.31950   0.25881   0.00000  Uiso   1.00
C97    C     0.64721   0.01543   0.26467   0.00000  Uiso   1.00
C98    C     0.35500   0.17049   0.34092   0.00000  Uiso   1.00
H99    H     0.38395   0.20554   0.06639   0.00000  Uiso   1.00
H100   H     0.50461   0.21135   0.28227   0.00000  Uiso   1.00
H101   H     0.44814   0.18511   0.13344   0.00000  Uiso   1.00
H102   H     0.51592   0.10289   0.14178   0.00000  Uiso   1.00
H103   H     0.46352   0.07971   0.09367   0.00000  Uiso   1.00
H104   H     0.44091   0.09892   0.15162   0.00000  Uiso   1.00
H105   H     0.50169   0.03689   0.39746   0.00000  Uiso   1.00
H106   H     0.38935   0.02834   0.40653   0.00000  Uiso   1.00
H107   H     0.41472   0.03399   0.46956   0.00000  Uiso   1.00
H108   H     0.43627   0.31557   0.43067   0.00000  Uiso   1.00
H109   H     0.44278   0.32093   0.23667   0.00000  Uiso   1.00
H110   H     0.57883   0.04457   0.45803   0.00000  Uiso   1.00
H111   H     0.48496   0.04683   0.30173   0.00000  Uiso   1.00
H112   H     0.45222   0.32217   0.32595   0.00000  Uiso   1.00
H113   H     0.41667   0.04872   0.32575   0.00000  Uiso   1.00
H114   H     0.55845   0.01036   0.26576   0.00000  Uiso   1.00
H115   H     0.55426   0.30421   0.34201   0.00000  Uiso   1.00
H116   H     0.59895   0.03114   0.35092   0.00000  Uiso   1.00
H117   H     0.63071   0.30272   0.34653   0.00000  Uiso   1.00
H118   H     0.56619   0.19839   0.10141   0.00000  Uiso   1.00
H119   H     0.44266   0.13371   0.38761   0.00000  Uiso   1.00
H120   H     0.35916   0.08769   0.10355   0.00000  Uiso   1.00
H121   H     0.62529   0.21261   0.40974   0.00000  Uiso   1.00
H122   H     0.65123   0.22074   0.49724   0.00000  Uiso   1.00
H123   H     0.65724   0.05356   0.02206   0.00000  Uiso   1.00
H124   H     0.49567   0.12021   0.22098   0.00000  Uiso   1.00
N125   N     0.48029   0.15216   0.23739   0.00000  Uiso   1.00
N126   N     0.51971   0.18117   0.26260   0.00000  Uiso   1.00
N127   N     0.46996   0.16170   0.11136   0.00000  Uiso   1.00
N128   N     0.47558   0.05618   0.41929   0.00000  Uiso   1.00
N129   N     0.41693   0.00789   0.25797   0.00000  Uiso   1.00
N130   N     0.59423   0.32815   0.28083   0.00000  Uiso   1.00
O131   O     0.63052   0.24631   0.25309   0.00000  Uiso   1.00
O132   O     0.36948   0.08702   0.24690   0.00000  Uiso   1.00
O133   O     0.39155   0.23702   0.24501   0.00000  Uiso   1.00
O134   O     0.60845   0.09632   0.25498   0.00000  Uiso   1.00
O135   O     0.63662   0.17397   0.32247   0.00000  Uiso   1.00
O136   O     0.36338   0.15937   0.17753   0.00000  Uiso   1.00
O137   O     0.39764   0.16467   0.31439   0.00000  Uiso   1.00
O138   O     0.60236   0.16866   0.18561   0.00000  Uiso   1.00
Zn139  Zn    0.60366   0.17287   0.25539   0.00000  Uiso   1.00
Zn140  Zn    0.39634   0.16046   0.24460   0.00000  Uiso   1.00
C141   C     0.68237   0.26480   0.25201   0.00000  Uiso   1.00
C142   C     0.97809   0.16096   0.15908   0.00000  Uiso   1.00
C143   C     0.69917   0.17168   0.39329   0.00000  Uiso   1.00
C144   C     0.96476   0.14594   0.10785   0.00000  Uiso   1.00
C145   C     0.67808   0.20034   0.47383   0.00000  Uiso   1.00
C146   C     0.96932   0.08436   0.03948   0.00000  Uiso   1.00
C147   C     0.99659   0.19564   0.42415   0.00000  Uiso   1.00
C148   C     0.99079   0.10509   0.08524   0.00000  Uiso   1.00
C149   C     0.74754   0.14961   0.41230   0.00000  Uiso   1.00
C150   C     0.91732   0.16511   0.08469   0.00000  Uiso   1.00
C151   C     0.76133   0.15110   0.46211   0.00000  Uiso   1.00
C152   C     0.98585   0.06888   0.25453   0.00000  Uiso   1.00
C153   C     0.88926   0.13804   0.04383   0.00000  Uiso   1.00
C154   C     0.72800   0.17986   0.49280   0.00000  Uiso   1.00
C155   C     0.91774   0.10017   0.01880   0.00000  Uiso   1.00
C156   C     0.81082   0.12923   0.48158   0.00000  Uiso   1.00
C157   C     0.83269   0.14698   0.02852   0.00000  Uiso   1.00
C158   C     0.80597   0.10830   0.12516   0.00000  Uiso   1.00
C159   C     0.76000   0.02370   0.43240   0.00000  Uiso   1.00
C160   C     0.77741   0.02368   0.30540   0.00000  Uiso   1.00
C161   C     0.92807   0.32487   0.33281   0.00000  Uiso   1.00
C162   C     0.79515   0.16812   0.06065   0.00000  Uiso   1.00
C163   C     0.83822   0.08903   0.45738   0.00000  Uiso   1.00
C164   C     0.74449   0.18687   0.04210   0.00000  Uiso   1.00
C165   C     0.89188   0.07573   0.47596   0.00000  Uiso   1.00
C166   C     0.69253   0.31950   0.25881   0.00000  Uiso   1.00
C167   C     0.98054   0.01543   0.26467   0.00000  Uiso   1.00
C168   C     0.68833   0.17049   0.34092   0.00000  Uiso   1.00
H169   H     0.71728   0.20554   0.06639   0.00000  Uiso   1.00
H170   H     0.83794   0.21135   0.28227   0.00000  Uiso   1.00
H171   H     0.78147   0.18511   0.13344   0.00000  Uiso   1.00
H172   H     0.84925   0.10289   0.14178   0.00000  Uiso   1.00
H173   H     0.79685   0.07971   0.09367   0.00000  Uiso   1.00
H174   H     0.77425   0.09892   0.15162   0.00000  Uiso   1.00
H175   H     0.83502   0.03689   0.39746   0.00000  Uiso   1.00
H176   H     0.72268   0.02834   0.40653   0.00000  Uiso   1.00
H177   H     0.74805   0.03399   0.46956   0.00000  Uiso   1.00
H178   H     0.76960   0.31557   0.43067   0.00000  Uiso   1.00
H179   H     0.77611   0.32093   0.23667   0.00000  Uiso   1.00
H180   H     0.91216   0.04457   0.45803   0.00000  Uiso   1.00
H181   H     0.81829   0.04683   0.30173   0.00000  Uiso   1.00
H182   H     0.78556   0.32217   0.32595   0.00000  Uiso   1.00
H183   H     0.75000   0.04872   0.32575   0.00000  Uiso   1.00
H184   H     0.89178   0.01036   0.26576   0.00000  Uiso   1.00
H185   H     0.88759   0.30421   0.34201   0.00000  Uiso   1.00
H186   H     0.93228   0.03114   0.35092   0.00000  Uiso   1.00
H187   H     0.96405   0.30272   0.34653   0.00000  Uiso   1.00
H188   H     0.89952   0.19839   0.10141   0.00000  Uiso   1.00
H189   H     0.77599   0.13371   0.38761   0.00000  Uiso   1.00
H190   H     0.69250   0.08769   0.10355   0.00000  Uiso   1.00
H191   H     0.95862   0.21261   0.40974   0.00000  Uiso   1.00
H192   H     0.98457   0.22074   0.49724   0.00000  Uiso   1.00
H193   H     0.99058   0.05356   0.02206   0.00000  Uiso   1.00
H194   H     0.82901   0.12021   0.22098   0.00000  Uiso   1.00
N195   N     0.81362   0.15216   0.23739   0.00000  Uiso   1.00
N196   N     0.85305   0.18117   0.26260   0.00000  Uiso   1.00
N197   N     0.80329   0.16170   0.11136   0.00000  Uiso   1.00
N198   N     0.80891   0.05618   0.41929   0.00000  Uiso   1.00
N199   N     0.75026   0.00789   0.25797   0.00000  Uiso   1.00
N200   N     0.92757   0.32815   0.28083   0.00000  Uiso   1.00
O201   O     0.96386   0.24631   0.25309   0.00000  Uiso   1.00
O202   O     0.70281   0.08702   0.24690   0.00000  Uiso   1.00
O203   O     0.72488   0.23702   0.24501   0.00000  Uiso   1.00
O204   O     0.94178   0.09632   0.25498   0.00000  Uiso   1.00
O205   O     0.96995   0.17397   0.32247   0.00000  Uiso   1.00
O206   O     0.69672   0.15937   0.17753   0.00000  Uiso   1.00
O207   O     0.73098   0.16467   0.31439   0.00000  Uiso   1.00
O208   O     0.93569   0.16866   0.18561   0.00000  Uiso   1.00
Zn209  Zn    0.93700   0.17287   0.25539   0.00000  Uiso   1.00
Zn210  Zn    0.72967   0.16046   0.24460   0.00000  Uiso   1.00
C211   C     0.01570   0.59814   0.25201   0.00000  Uiso   1.00
C212   C     0.31143   0.49429   0.15908   0.00000  Uiso   1.00
C213   C     0.03250   0.50501   0.39329   0.00000  Uiso   1.00
C214   C     0.29809   0.47927   0.10785   0.00000  Uiso   1.00
C215   C     0.01141   0.53367   0.47383   0.00000  Uiso   1.00
C216   C     0.30265   0.41769   0.03948   0.00000  Uiso   1.00
C217   C     0.32992   0.52897   0.42415   0.00000  Uiso   1.00
C218   C     0.32412   0.43843   0.08524   0.00000  Uiso   1.00
C219   C     0.08087   0.48294   0.41230   0.00000  Uiso   1.00
C220   C     0.25066   0.49845   0.08469   0.00000  Uiso   1.00
C221   C     0.09466   0.48444   0.46211   0.00000  Uiso   1.00
C222   C     0.31918   0.40222   0.25453   0.00000  Uiso   1.00
C223   C     0.22259   0.47138   0.04383   0.00000  Uiso   1.00
C224   C     0.06133   0.51319   0.49280   0.00000  Uiso   1.00
C225   C     0.25107   0.43350   0.01880   0.00000  Uiso   1.00
C226   C     0.14415   0.46256   0.48158   0.00000  Uiso   1.00
C227   C     0.16603   0.48031   0.02852   0.00000  Uiso   1.00
C228   C     0.13930   0.44163   0.12516   0.00000  Uiso   1.00
C229   C     0.09333   0.35703   0.43240   0.00000  Uiso   1.00
C230   C     0.11074   0.35701   0.30540   0.00000  Uiso   1.00
C231   C     0.26140   0.65821   0.33281   0.00000  Uiso   1.00
C232   C     0.12848   0.50145   0.06065   0.00000  Uiso   1.00
C233   C     0.17155   0.42236   0.45738   0.00000  Uiso   1.00
C234   C     0.07783   0.52021   0.04210   0.00000  Uiso   1.00
C235   C     0.22521   0.40906   0.47596   0.00000  Uiso   1.00
C236   C     0.02586   0.65283   0.25881   0.00000  Uiso   1.00
C237   C     0.31388   0.34876   0.26467   0.00000  Uiso   1.00
C238   C     0.02167   0.50382   0.34092   0.00000  Uiso   1.00
H239   H     0.05062   0.53887   0.06639   0.00000  Uiso   1.00
H240   H     0.17128   0.54468   0.28227   0.00000  Uiso   1.00
H241   H     0.11481   0.51845   0.13344   0.00000  Uiso   1.00
H242   H     0.18258   0.43622   0.14178   0.00000  Uiso   1.00
H243   H     0.13019   0.41304   0.09367   0.00000  Uiso   1.00
H244   H     0.10758   0.43225   0.15162   0.00000  Uiso   1.00
H245   H     0.16835   0.37022   0.39746   0.00000  Uiso   1.00
H246   H     0.05601   0.36168   0.40653   0.00000  Uiso   1.00
H247   H     0.08139   0.36732   0.46956   0.00000  Uiso   1.00
H248   H     0.10293   0.64890   0.43067   0.00000  Uiso   1.00
H249   H     0.10944   0.65426   0.23667   0.00000  Uiso   1.00
H250   H     0.24549   0.37791   0.45803   0.00000  Uiso   1.00
H251   H     0.15163   0.38016   0.30173   0.00000  Uiso   1.00
H252   H     0.11889   0.65550   0.32595   0.00000  Uiso   1.00
H253   H     0.08334   0.38205   0.32575   0.00000  Uiso   1.00
H254   H     0.22512   0.34369   0.26576   0.00000  Uiso   1.00
H255   H     0.22092   0.63754   0.34201   0.00000  Uiso   1.00
H256   H     0.26562   0.36448   0.35092   0.00000  Uiso   1.00
H257   H     0.29738   0.63605   0.34653   0.00000  Uiso   1.00
H258   H     0.23286   0.53172   0.10141   0.00000  Uiso   1.00
H259   H     0.10932   0.46704   0.38761   0.00000  Uiso   1.00
H260   H     0.02583   0.42102   0.10355   0.00000  Uiso   1.00
H261   H     0.29196   0.54595   0.40974   0.00000  Uiso   1.00
H262   H     0.31790   0.55408   0.49724   0.00000  Uiso   1.00
H263   H     0.32391   0.38689   0.02206   0.00000  Uiso   1.00
H264   H     0.16234   0.45355   0.22098   0.00000  Uiso   1.00
N265   N     0.14695   0.48550   0.23739   0.00000  Uiso   1.00
N266   N     0.18638   0.51450   0.26260   0.00000  Uiso   1.00
N267   N     0.13663   0.49504   0.11136   0.00000  Uiso   1.00
N268   N     0.14225   0.38951   0.41929   0.00000  Uiso   1.00
N269   N     0.08360   0.34123   0.25797   0.00000  Uiso   1.00
N270   N     0.26090   0.66148   0.28083   0.00000  Uiso   1.00
O271   O     0.29719   0.57964   0.25309   0.00000  Uiso   1.00
O272   O     0.03614   0.42036   0.24690   0.00000  Uiso   1.00
O273   O     0.05822   0.57035   0.24501   0.00000  Uiso   1.00
O274   O     0.27512   0.42965   0.25498   0.00000  Uiso   1.00
O275   O     0.30328   0.50730   0.32247   0.00000  Uiso   1.00
O276   O     0.03005   0.49270   0.17753   0.00000  Uiso   1.00
O277   O     0.06431   0.49801   0.31439   0.00000  Uiso   1.00
O278   O     0.26902   0.50199   0.18561   0.00000  Uiso   1.00
Zn279  Zn    0.27033   0.50621   0.25539   0.00000  Uiso   1.00
Zn280  Zn    0.06300   0.49379   0.24460   0.00000  Uiso   1.00
C281   C     0.34904   0.59814   0.25201   0.00000  Uiso   1.00
C282   C     0.64476   0.49429   0.15908   0.00000  Uiso   1.00
C283   C     0.36583   0.50501   0.39329   0.00000  Uiso   1.00
C284   C     0.63143   0.47927   0.10785   0.00000  Uiso   1.00
C285   C     0.34475   0.53367   0.47383   0.00000  Uiso   1.00
C286   C     0.63599   0.41769   0.03948   0.00000  Uiso   1.00
C287   C     0.66325   0.52897   0.42415   0.00000  Uiso   1.00
C288   C     0.65746   0.43843   0.08524   0.00000  Uiso   1.00
C289   C     0.41421   0.48294   0.41230   0.00000  Uiso   1.00
C290   C     0.58399   0.49845   0.08469   0.00000  Uiso   1.00
C291   C     0.42800   0.48444   0.46211   0.00000  Uiso   1.00
C292   C     0.65252   0.40222   0.25453   0.00000  Uiso   1.00
C293   C     0.55593   0.47138   0.04383   0.00000  Uiso   1.00
C294   C     0.39467   0.51319   0.49280   0.00000  Uiso   1.00
C295   C     0.58441   0.43350   0.01880   0.00000  Uiso   1.00
C296   C     0.47748   0.46256   0.48158   0.00000  Uiso   1.00
C297   C     0.49936   0.48031   0.02852   0.00000  Uiso   1.00
C298   C     0.47264   0.44163   0.12516   0.00000  Uiso   1.00
C299   C     0.42666   0.35703   0.43240   0.00000  Uiso   1.00
C300   C     0.44408   0.35701   0.30540   0.00000  Uiso   1.00
C301   C     0.59473   0.65821   0.33281   0.00000  Uiso   1.00
C302   C     0.46182   0.50145   0.06065   0.00000  Uiso   1.00
C303   C     0.50488   0.42236   0.45738   0.00000  Uiso   1.00
C304   C     0.41116   0.52021   0.04210   0.00000  Uiso   1.00
C305   C     0.55854   0.40906   0.47596   0.00000  Uiso   1.00
C306   C     0.35919   0.65283   0.25881   0.00000  Uiso   1.00
C307   C     0.64721   0.34876   0.26467   0.00000  Uiso   1.00
C308   C     0.35500   0.50382   0.34092   0.00000  Uiso   1.00
H309   H     0.38395   0.53887   0.06639   0.00000  Uiso   1.00
H310   H     0.50461   0.54468   0.28227   0.00000  Uiso   1.00
H311   H     0.44814   0.51845   0.13344   0.00000  Uiso   1.00
H312   H     0.51592   0.43622   0.14178   0.00000  Uiso   1.00
H313   H     0.46352   0.41304   0.09367   0.00000  Uiso   1.00
H314   H     0.44091   0.43225   0.15162   0.00000  Uiso   1.00
H315   H     0.50169   0.37022   0.39746   0.00000  Uiso   1.00
H316   H     0.38935   0.36168   0.40653   0.00000  Uiso   1.00
H317   H     0.41472   0.36732   0.46956   0.00000  Uiso   1.00
H318   H     0.43627   0.64890   0.43067   0.00000  Uiso   1.00
H319   H     0.44278   0.65426   0.23667   0.00000  Uiso   1.00
H320   H     0.57883   0.37791   0.45803   0.00000  Uiso   1.00
H321   H     0.48496   0.38016   0.30173   0.00000  Uiso   1.00
H322   H     0.45222   0.65550   0.32595   0.00000  Uiso   1.00
H323   H     0.41667   0.38205   0.32575   0.00000  Uiso   1.00
H324   H     0.55845   0.34369   0.26576   0.00000  Uiso   1.00
H325   H     0.55426   0.63754   0.34201   0.00000  Uiso   1.00
H326   H     0.59895   0.36448   0.35092   0.00000  Uiso   1.00
H327   H     0.63071   0.63605   0.34653   0.00000  Uiso   1.00
H328   H     0.56619   0.53172   0.10141   0.00000  Uiso   1.00
H329   H     0.44266   0.46704   0.38761   0.00000  Uiso   1.00
H330   H     0.35916   0.42102   0.10355   0.00000  Uiso   1.00
H331   H     0.62529   0.54595   0.40974   0.00000  Uiso   1.00
H332   H     0.65123   0.55408   0.49724   0.00000  Uiso   1.00
H333   H     0.65724   0.38689   0.02206   0.00000  Uiso   1.00
H334   H     0.49567   0.45355   0.22098   0.00000  Uiso   1.00
N335   N     0.48029   0.48550   0.23739   0.00000  Uiso   1.00
N336   N     0.51971   0.51450   0.26260   0.00000  Uiso   1.00
N337   N     0.46996   0.49504   0.11136   0.00000  Uiso   1.00
N338   N     0.47558   0.38951   0.41929   0.00000  Uiso   1.00
N339   N     0.41693   0.34123   0.25797   0.00000  Uiso   1.00
N340   N     0.59423   0.66148   0.28083   0.00000  Uiso   1.00
O341   O     0.63052   0.57964   0.25309   0.00000  Uiso   1.00
O342   O     0.36948   0.42036   0.24690   0.00000  Uiso   1.00
O343   O     0.39155   0.57035   0.24501   0.00000  Uiso   1.00
O344   O     0.60845   0.42965   0.25498   0.00000  Uiso   1.00
O345   O     0.63662   0.50730   0.32247   0.00000  Uiso   1.00
O346   O     0.36338   0.49270   0.17753   0.00000  Uiso   1.00
O347   O     0.39764   0.49801   0.31439   0.00000  Uiso   1.00
O348   O     0.60236   0.50199   0.18561   0.00000  Uiso   1.00
Zn349  Zn    0.60366   0.50621   0.25539   0.00000  Uiso   1.00
Zn350  Zn    0.39634   0.49379   0.24460   0.00000  Uiso   1.00
C351   C     0.68237   0.59814   0.25201   0.00000  Uiso   1.00
C352   C     0.97809   0.49429   0.15908   0.00000  Uiso   1.00
C353   C     0.69917   0.50501   0.39329   0.00000  Uiso   1.00
C354   C     0.96476   0.47927   0.10785   0.00000  Uiso   1.00
C355   C     0.67808   0.53367   0.47383   0.00000  Uiso   1.00
C356   C     0.96932   0.41769   0.03948   0.00000  Uiso   1.00
C357   C     0.99659   0.52897   0.42415   0.00000  Uiso   1.00
C358   C     0.99079   0.43843   0.08524   0.00000  Uiso   1.00
C359   C     0.74754   0.48294   0.41230   0.00000  Uiso   1.00
C360   C     0.91732   0.49845   0.08469   0.00000  Uiso   1.00
C361   C     0.76133   0.48444   0.46211   0.00000  Uiso   1.00
C362   C     0.98585   0.40222   0.25453   0.00000  Uiso   1.00
C363   C     0.88926   0.47138   0.04383   0.00000  Uiso   1.00
C364   C     0.72800   0.51319   0.49280   0.00000  Uiso   1.00
C365   C     0.91774   0.43350   0.01880   0.00000  Uiso   1.00
C366   C     0.81082   0.46256   0.48158   0.00000  Uiso   1.00
C367   C     0.83269   0.48031   0.02852   0.00000  Uiso   1.00
C368   C     0.80597   0.44163   0.12516   0.00000  Uiso   1.00
C369   C     0.76000   0.35703   0.43240   0.00000  Uiso   1.00
C370   C     0.77741   0.35701   0.30540   0.00000  Uiso   1.00
C371   C     0.92807   0.65821   0.33281   0.00000  Uiso   1.00
C372   C     0.79515   0.50145   0.06065   0.00000  Uiso   1.00
C373   C     0.83822   0.42236   0.45738   0.00000  Uiso   1.00
C374   C     0.74449   0.52021   0.04210   0.00000  Uiso   1.00
C375   C     0.89188   0.40906   0.47596   0.00000  Uiso   1.00
C376   C     0.69253   0.65283   0.25881   0.00000  Uiso   1.00
C377   C     0.98054   0.34876   0.26467   0.00000  Uiso   1.00
C378   C     0.68833   0.50382   0.34092   0.00000  Uiso   1.00
H379   H     0.71728   0.53887   0.06639   0.00000  Uiso   1.00
H380   H     0.83794   0.54468   0.28227   0.00000  Uiso   1.00
H381   H     0.78147   0.51845   0.13344   0.00000  Uiso   1.00
H382   H     0.84925   0.43622   0.14178   0.00000  Uiso   1.00
H383   H     0.79685   0.41304   0.09367   0.00000  Uiso   1.00
H384   H     0.77425   0.43225   0.15162   0.00000  Uiso   1.00
H385   H     0.83502   0.37022   0.39746   0.00000  Uiso   1.00
H386   H     0.72268   0.36168   0.40653   0.00000  Uiso   1.00
H387   H     0.74805   0.36732   0.46956   0.00000  Uiso   1.00
H388   H     0.76960   0.64890   0.43067   0.00000  Uiso   1.00
H389   H     0.77611   0.65426   0.23667   0.00000  Uiso   1.00
H390   H     0.91216   0.37791   0.45803   0.00000  Uiso   1.00
H391   H     0.81829   0.38016   0.30173   0.00000  Uiso   1.00
H392   H     0.78556   0.65550   0.32595   0.00000  Uiso   1.00
H393   H     0.75000   0.38205   0.32575   0.00000  Uiso   1.00
H394   H     0.89178   0.34369   0.26576   0.00000  Uiso   1.00
H395   H     0.88759   0.63754   0.34201   0.00000  Uiso   1.00
H396   H     0.93228   0.36448   0.35092   0.00000  Uiso   1.00
H397   H     0.96405   0.63605   0.34653   0.00000  Uiso   1.00
H398   H     0.89952   0.53172   0.10141   0.00000  Uiso   1.00
H399   H     0.77599   0.46704   0.38761   0.00000  Uiso   1.00
H400   H     0.69250   0.42102   0.10355   0.00000  Uiso   1.00
H401   H     0.95862   0.54595   0.40974   0.00000  Uiso   1.00
H402   H     0.98457   0.55408   0.49724   0.00000  Uiso   1.00
H403   H     0.99058   0.38689   0.02206   0.00000  Uiso   1.00
H404   H     0.82901   0.45355   0.22098   0.00000  Uiso   1.00
N405   N     0.81362   0.48550   0.23739   0.00000  Uiso   1.00
N406   N     0.85305   0.51450   0.26260   0.00000  Uiso   1.00
N407   N     0.80329   0.49504   0.11136   0.00000  Uiso   1.00
N408   N     0.80891   0.38951   0.41929   0.00000  Uiso   1.00
N409   N     0.75026   0.34123   0.25797   0.00000  Uiso   1.00
N410   N     0.92757   0.66148   0.28083   0.00000  Uiso   1.00
O411   O     0.96386   0.57964   0.25309   0.00000  Uiso   1.00
O412   O     0.70281   0.42036   0.24690   0.00000  Uiso   1.00
O413   O     0.72488   0.57035   0.24501   0.00000  Uiso   1.00
O414   O     0.94178   0.42965   0.25498   0.00000  Uiso   1.00
O415   O     0.96995   0.50730   0.32247   0.00000  Uiso   1.00
O416   O     0.69672   0.49270   0.17753   0.00000  Uiso   1.00
O417   O     0.73098   0.49801   0.31439   0.00000  Uiso   1.00
O418   O     0.93569   0.50199   0.18561   0.00000  Uiso   1.00
Zn419  Zn    0.93700   0.50621   0.25539   0.00000  Uiso   1.00
Zn420  Zn    0.72967   0.49379   0.24460   0.00000  Uiso   1.00
C421   C     0.01570   0.93147   0.25201   0.00000  Uiso   1.00
C422   C     0.31143   0.82762   0.15908   0.00000  Uiso   1.00
C423   C     0.03250   0.83834   0.39329   0.00000  Uiso   1.00
C424   C     0.29809   0.81261   0.10785   0.00000  Uiso   1.00
C425   C     0.01141   0.86701   0.47383   0.00000  Uiso   1.00
C426   C     0.30265   0.75103   0.03948   0.00000  Uiso   1.00
C427   C     0.32992   0.86231   0.42415   0.00000  Uiso   1.00
C428   C     0.32412   0.77176   0.08524   0.00000  Uiso   1.00
C429   C     0.08087   0.81627   0.41230   0.00000  Uiso   1.00
C430   C     0.25066   0.83178   0.08469   0.00000  Uiso   1.00
C431   C     0.09466   0.81777   0.46211   0.00000  Uiso   1.00
C432   C     0.31918   0.73555   0.25453   0.00000  Uiso   1.00
C433   C     0.22259   0.80471   0.04383   0.00000  Uiso   1.00
C434   C     0.06133   0.84652   0.49280   0.00000  Uiso   1.00
C435   C     0.25107   0.76684   0.01880   0.00000  Uiso   1.00
C436   C     0.14415   0.79589   0.48158   0.00000  Uiso   1.00
C437   C     0.16603   0.81364   0.02852   0.00000  Uiso   1.00
C438   C     0.13930   0.77496   0.12516   0.00000  Uiso   1.00
C439   C     0.09333   0.69037   0.43240   0.00000  Uiso   1.00
C440   C     0.11074   0.69034   0.30540   0.00000  Uiso   1.00
C441   C     0.26140   0.99154   0.33281   0.00000  Uiso   1.00
C442   C     0.12848   0.83478   0.06065   0.00000  Uiso   1.00
C443   C     0.17155   0.75570   0.45738   0.00000  Uiso   1.00
C444   C     0.07783   0.85354   0.04210   0.00000  Uiso   1.00
C445   C     0.22521   0.74240   0.47596   0.00000  Uiso   1.00
C446   C     0.02586   0.98616   0.25881   0.00000  Uiso   1.00
C447   C     0.31388   0.68210   0.26467   0.00000  Uiso   1.00
C448   C     0.02167   0.83715   0.34092   0.00000  Uiso   1.00
H449   H     0.05062   0.87220   0.06639   0.00000  Uiso   1.00
H450   H     0.17128   0.87801   0.28227   0.00000  Uiso   1.00
H451   H     0.11481   0.85178   0.13344   0.00000  Uiso   1.00
H452   H     0.18258   0.76955   0.14178   0.00000  Uiso   1.00
H453   H     0.13019   0.74637   0.09367   0.00000  Uiso   1.00
H454   H     0.10758   0.76558   0.15162   0.00000  Uiso   1.00
H455   H     0.16835   0.70356   0.39746   0.00000  Uiso   1.00
H456   H     0.05601   0.69501   0.40653   0.00000  Uiso   1.00
H457   H     0.08139   0.70066   0.46956   0.00000  Uiso   1.00
H458   H     0.10293   0.98224   0.43067   0.00000  Uiso   1.00
H459   H     0.10944   0.98759   0.23667   0.00000  Uiso   1.00
H460   H     0.24549   0.71124   0.45803   0.00000  Uiso   1.00
H461   H     0.15163   0.71349   0.30173   0.00000  Uiso   1.00
H462   H     0.11889   0.98884   0.32595   0.00000  Uiso   1.00
H463   H     0.08334   0.71539   0.32575   0.00000  Uiso   1.00
H464   H     0.22512   0.67703   0.26576   0.00000  Uiso   1.00
H465   H     0.22092   0.97087   0.34201   0.00000  Uiso   1.00
H466   H     0.26562   0.69781   0.35092   0.00000  Uiso   1.00
H467   H     0.29738   0.96939   0.34653   0.00000  Uiso   1.00
H468   H     0.23286   0.86506   0.10141   0.00000  Uiso   1.00
H469   H     0.10932   0.80038   0.38761   0.00000  Uiso   1.00
H470   H     0.02583   0.75435   0.10355   0.00000  Uiso   1.00
H471   H     0.29196   0.87928   0.40974   0.00000  Uiso   1.00
H472   H     0.31790   0.88741   0.49724   0.00000  Uiso   1.00
H473   H     0.32391   0.72023   0.02206   0.00000  Uiso   1.00
H474   H     0.16234   0.78688   0.22098   0.00000  Uiso   1.00
N475   N     0.14695   0.81883   0.23739   0.00000  Uiso   1.00
N476   N     0.18638   0.84784   0.26260   0.00000  Uiso   1.00
N477   N     0.13663   0.82837   0.11136   0.00000  Uiso   1.00
N478   N     0.14225   0.72284   0.41929   0.00000  Uiso   1.00
N479   N     0.08360   0.67456   0.25797   0.00000  Uiso   1.00
N480   N     0.26090   0.99482   0.28083   0.00000  Uiso   1.00
O481   O     0.29719   0.91298   0.25309   0.00000  Uiso   1.00
O482   O     0.03614   0.75369   0.24690   0.00000  Uiso   1.00
O483   O     0.05822   0.90368   0.24501   0.00000  Uiso   1.00
O484   O     0.27512   0.76298   0.25498   0.00000  Uiso   1.00
O485   O     0.30328   0.84063   0.32247   0.00000  Uiso   1.00
O486   O     0.03005   0.82603   0.17753   0.00000  Uiso   1.00
O487   O     0.06431   0.83134   0.31439   0.00000  Uiso   1.00
O488   O     0.26902   0.83533   0.18561   0.00000  Uiso   1.00
Zn489  Zn    0.27033   0.83954   0.25539   0.00000  Uiso   1.00
Zn490  Zn    0.06300   0.82713   0.24460   0.00000  Uiso   1.00
C491   C     0.34904   0.93147   0.25201   0.00000  Uiso   1.00
C492   C     0.64476   0.82762   0.15908   0.00000  Uiso   1.00
C493   C     0.36583   0.83834   0.39329   0.00000  Uiso   1.00
C494   C     0.63143   0.81261   0.10785   0.00000  Uiso   1.00
C495   C     0.34475   0.86701   0.47383   0.00000  Uiso   1.00
C496   C     0.63599   0.75103   0.03948   0.00000  Uiso   1.00
C497   C     0.66325   0.86231   0.42415   0.00000  Uiso   1.00
C498   C     0.65746   0.77176   0.08524   0.00000  Uiso   1.00
C499   C     0.41421   0.81627   0.41230   0.00000  Uiso   1.00
C500   C     0.58399   0.83178   0.08469   0.00000  Uiso   1.00
C501   C     0.42800   0.81777   0.46211   0.00000  Uiso   1.00
C502   C     0.65252   0.73555   0.25453   0.00000  Uiso   1.00
C503   C     0.55593   0.80471   0.04383   0.00000  Uiso   1.00
C504   C     0.39467   0.84652   0.49280   0.00000  Uiso   1.00
C505   C     0.58441   0.76684   0.01880   0.00000  Uiso   1.00
C506   C     0.47748   0.79589   0.48158   0.00000  Uiso   1.00
C507   C     0.49936   0.81364   0.02852   0.00000  Uiso   1.00
C508   C     0.47264   0.77496   0.12516   0.00000  Uiso   1.00
C509   C     0.42666   0.69037   0.43240   0.00000  Uiso   1.00
C510   C     0.44408   0.69034   0.30540   0.00000  Uiso   1.00
C511   C     0.59473   0.99154   0.33281   0.00000  Uiso   1.00
C512   C     0.46182   0.83478   0.06065   0.00000  Uiso   1.00
C513   C     0.50488   0.75570   0.45738   0.00000  Uiso   1.00
C514   C     0.41116   0.85354   0.04210   0.00000  Uiso   1.00
C515   C     0.55854   0.74240   0.47596   0.00000  Uiso   1.00
C516   C     0.35919   0.98616   0.25881   0.00000  Uiso   1.00
C517   C     0.64721   0.68210   0.26467   0.00000  Uiso   1.00
C518   C     0.35500   0.83715   0.34092   0.00000  Uiso   1.00
H519   H     0.38395   0.87220   0.06639   0.00000  Uiso   1.00
H520   H     0.50461   0.87801   0.28227   0.00000  Uiso   1.00
H521   H     0.44814   0.85178   0.13344   0.00000  Uiso   1.00
H522   H     0.51592   0.76955   0.14178   0.00000  Uiso   1.00
H523   H     0.46352   0.74637   0.09367   0.00000  Uiso   1.00
H524   H     0.44091   0.76558   0.15162   0.00000  Uiso   1.00
H525   H     0.50169   0.70356   0.39746   0.00000  Uiso   1.00
H526   H     0.38935   0.69501   0.40653   0.00000  Uiso   1.00
H527   H     0.41472   0.70066   0.46956   0.00000  Uiso   1.00
H528   H     0.43627   0.98224   0.43067   0.00000  Uiso   1.00
H529   H     0.44278   0.98759   0.23667   0.00000  Uiso   1.00
H530   H     0.57883   0.71124   0.45803   0.00000  Uiso   1.00
H531   H     0.48496   0.71349   0.30173   0.00000  Uiso   1.00
H532   H     0.45222   0.98884   0.32595   0.00000  Uiso   1.00
H533   H     0.41667   0.71539   0.32575   0.00000  Uiso   1.00
H534   H     0.55845   0.67703   0.26576   0.00000  Uiso   1.00
H535   H     0.55426   0.97087   0.34201   0.00000  Uiso   1.00
H536   H     0.59895   0.69781   0.35092   0.00000  Uiso   1.00
H537   H     0.63071   0.96939   0.34653   0.00000  Uiso   1.00
H538   H     0.56619   0.86506   0.10141   0.00000  Uiso   1.00
H539   H     0.44266   0.80038   0.38761   0.00000  Uiso   1.00
H540   H     0.35916   0.75435   0.10355   0.00000  Uiso   1.00
H541   H     0.62529   0.87928   0.40974   0.00000  Uiso   1.00
H542   H     0.65123   0.88741   0.49724   0.00000  Uiso   1.00
H543   H     0.65724   0.72023   0.02206   0.00000  Uiso   1.00
H544   H     0.49567   0.78688   0.22098   0.00000  Uiso   1.00
N545   N     0.48029   0.81883   0.23739   0.00000  Uiso   1.00
N546   N     0.51971   0.84784   0.26260   0.00000  Uiso   1.00
N547   N     0.46996   0.82837   0.11136   0.00000  Uiso   1.00
N548   N     0.47558   0.72284   0.41929   0.00000  Uiso   1.00
N549   N     0.41693   0.67456   0.25797   0.00000  Uiso   1.00
N550   N     0.59423   0.99482   0.28083   0.00000  Uiso   1.00
O551   O     0.63052   0.91298   0.25309   0.00000  Uiso   1.00
O552   O     0.36948   0.75369   0.24690   0.00000  Uiso   1.00
O553   O     0.39155   0.90368   0.24501   0.00000  Uiso   1.00
O554   O     0.60845   0.76298   0.25498   0.00000  Uiso   1.00
O555   O     0.63662   0.84063   0.32247   0.00000  Uiso   1.00
O556   O     0.36338   0.82603   0.17753   0.00000  Uiso   1.00
O557   O     0.39764   0.83134   0.31439   0.00000  Uiso   1.00
O558   O     0.60236   0.83533   0.18561   0.00000  Uiso   1.00
Zn559  Zn    0.60366   0.83954   0.25539   0.00000  Uiso   1.00
Zn560  Zn    0.39634   0.82713   0.24460   0.00000  Uiso   1.00
C561   C     0.68237   0.93147   0.25201   0.00000  Uiso   1.00
C562   C     0.97809   0.82762   0.15908   0.00000  Uiso   1.00
C563   C     0.69917   0.83834   0.39329   0.00000  Uiso   1.00
C564   C     0.96476   0.81261   0.10785   0.00000  Uiso   1.00
C565   C     0.67808   0.86701   0.47383   0.00000  Uiso   1.00
C566   C     0.96932   0.75103   0.03948   0.00000  Uiso   1.00
C567   C     0.99659   0.86231   0.42415   0.00000  Uiso   1.00
C568   C     0.99079   0.77176   0.08524   0.00000  Uiso   1.00
C569   C     0.74754   0.81627   0.41230   0.00000  Uiso   1.00
C570   C     0.91732   0.83178   0.08469   0.00000  Uiso   1.00
C571   C     0.76133   0.81777   0.46211   0.00000  Uiso   1.00
C572   C     0.98585   0.73555   0.25453   0.00000  Uiso   1.00
C573   C     0.88926   0.80471   0.04383   0.00000  Uiso   1.00
C574   C     0.72800   0.84652   0.49280   0.00000  Uiso   1.00
C575   C     0.91774   0.76684   0.01880   0.00000  Uiso   1.00
C576   C     0.81082   0.79589   0.48158   0.00000  Uiso   1.00
C577   C     0.83269   0.81364   0.02852   0.00000  Uiso   1.00
C578   C     0.80597   0.77496   0.12516   0.00000  Uiso   1.00
C579   C     0.76000   0.69037   0.43240   0.00000  Uiso   1.00
C580   C     0.77741   0.69034   0.30540   0.00000  Uiso   1.00
C581   C     0.92807   0.99154   0.33281   0.00000  Uiso   1.00
C582   C     0.79515   0.83478   0.06065   0.00000  Uiso   1.00
C583   C     0.83822   0.75570   0.45738   0.00000  Uiso   1.00
C584   C     0.74449   0.85354   0.04210   0.00000  Uiso   1.00
C585   C     0.89188   0.74240   0.47596   0.00000  Uiso   1.00
C586   C     0.69253   0.98616   0.25881   0.00000  Uiso   1.00
C587   C     0.98054   0.68210   0.26467   0.00000  Uiso   1.00
C588   C     0.68833   0.83715   0.34092   0.00000  Uiso   1.00
H589   H     0.71728   0.87220   0.06639   0.00000  Uiso   1.00
H590   H     0.83794   0.87801   0.28227   0.00000  Uiso   1.00
H591   H     0.78147   0.85178   0.13344   0.00000  Uiso   1.00
H592   H     0.84925   0.76955   0.14178   0.00000  Uiso   1.00
H593   H     0.79685   0.74637   0.09367   0.00000  Uiso   1.00
H594   H     0.77425   0.76558   0.15162   0.00000  Uiso   1.00
H595   H     0.83502   0.70356   0.39746   0.00000  Uiso   1.00
H596   H     0.72268   0.69501   0.40653   0.00000  Uiso   1.00
H597   H     0.74805   0.70066   0.46956   0.00000  Uiso   1.00
H598   H     0.76960   0.98224   0.43067   0.00000  Uiso   1.00
H599   H     0.77611   0.98759   0.23667   0.00000  Uiso   1.00
H600   H     0.91216   0.71124   0.45803   0.00000  Uiso   1.00
H601   H     0.81829   0.71349   0.30173   0.00000  Uiso   1.00
H602   H     0.78556   0.98884   0.32595   0.00000  Uiso   1.00
H603   H     0.75000   0.71539   0.32575   0.00000  Uiso   1.00
H604   H     0.89178   0.67703   0.26576   0.00000  Uiso   1.00
H605   H     0.88759   0.97087   0.34201   0.00000  Uiso   1.00
H606   H     0.93228   0.69781   0.35092   0.00000  Uiso   1.00
H607   H     0.96405   0.96939   0.34653   0.00000  Uiso   1.00
H608   H     0.89952   0.86506   0.10141   0.00000  Uiso   1.00
H609   H     0.77599   0.80038   0.38761   0.00000  Uiso   1.00
H610   H     0.69250   0.75435   0.10355   0.00000  Uiso   1.00
H611   H     0.95862   0.87928   0.40974   0.00000  Uiso   1.00
H612   H     0.98457   0.88741   0.49724   0.00000  Uiso   1.00
H613   H     0.99058   0.72023   0.02206   0.00000  Uiso   1.00
H614   H     0.82901   0.78688   0.22098   0.00000  Uiso   1.00
N615   N     0.81362   0.81883   0.23739   0.00000  Uiso   1.00
N616   N     0.85305   0.84784   0.26260   0.00000  Uiso   1.00
N617   N     0.80329   0.82837   0.11136   0.00000  Uiso   1.00
N618   N     0.80891   0.72284   0.41929   0.00000  Uiso   1.00
N619   N     0.75026   0.67456   0.25797   0.00000  Uiso   1.00
N620   N     0.92757   0.99482   0.28083   0.00000  Uiso   1.00
O621   O     0.96386   0.91298   0.25309   0.00000  Uiso   1.00
O622   O     0.70281   0.75369   0.24690   0.00000  Uiso   1.00
O623   O     0.72488   0.90368   0.24501   0.00000  Uiso   1.00
O624   O     0.94178   0.76298   0.25498   0.00000  Uiso   1.00
O625   O     0.96995   0.84063   0.32247   0.00000  Uiso   1.00
O626   O     0.69672   0.82603   0.17753   0.00000  Uiso   1.00
O627   O     0.73098   0.83134   0.31439   0.00000  Uiso   1.00
O628   O     0.93569   0.83533   0.18561   0.00000  Uiso   1.00
Zn629  Zn    0.93700   0.83954   0.25539   0.00000  Uiso   1.00
Zn630  Zn    0.72967   0.82713   0.24460   0.00000  Uiso   1.00
C631   C     0.01570   0.26480   0.75201   0.00000  Uiso   1.00
C632   C     0.31143   0.16096   0.65908   0.00000  Uiso   1.00
C633   C     0.03250   0.17168   0.89329   0.00000  Uiso   1.00
C634   C     0.29809   0.14594   0.60785   0.00000  Uiso   1.00
C635   C     0.01141   0.20034   0.97383   0.00000  Uiso   1.00
C636   C     0.30265   0.08436   0.53948   0.00000  Uiso   1.00
C637   C     0.32992   0.19564   0.92415   0.00000  Uiso   1.00
C638   C     0.32412   0.10509   0.58524   0.00000  Uiso   1.00
C639   C     0.08087   0.14961   0.91230   0.00000  Uiso   1.00
C640   C     0.25066   0.16511   0.58469   0.00000  Uiso   1.00
C641   C     0.09466   0.15110   0.96211   0.00000  Uiso   1.00
C642   C     0.31918   0.06888   0.75453   0.00000  Uiso   1.00
C643   C     0.22259   0.13804   0.54383   0.00000  Uiso   1.00
C644   C     0.06133   0.17986   0.99280   0.00000  Uiso   1.00
C645   C     0.25107   0.10017   0.51880   0.00000  Uiso   1.00
C646   C     0.14415   0.12923   0.98158   0.00000  Uiso   1.00
C647   C     0.16603   0.14698   0.52852   0.00000  Uiso   1.00
C648   C     0.13930   0.10830   0.62516   0.00000  Uiso   1.00
C649   C     0.09333   0.02370   0.93240   0.00000  Uiso   1.00
C650   C     0.11074   0.02368   0.80540   0.00000  Uiso   1.00
C651   C     0.26140   0.32487   0.83281   0.00000  Uiso   1.00
C652   C     0.12848   0.16812   0.56065   0.00000  Uiso   1.00
C653   C     0.17155   0.08903   0.95738   0.00000  Uiso   1.00
C654   C     0.07783   0.18687   0.54210   0.00000  Uiso   1.00
C655   C     0.22521   0.07573   0.97596   0.00000  Uiso   1.00
C656   C     0.02586   0.31950   0.75881   0.00000  Uiso   1.00
C657   C     0.31388   0.01543   0.76467   0.00000  Uiso   1.00
C658   C     0.02167   0.17049   0.84092   0.00000  Uiso   1.00
H659   H     0.05062   0.20554   0.56639   0.00000  Uiso   1.00
H660   H     0.17128   0.21135   0.78227   0.00000  Uiso   1.00
H661   H     0.11481   0.18511   0.63344   0.00000  Uiso   1.00
H662   H     0.18258   0.10289   0.64178   0.00000  Uiso   1.00
H663   H     0.13019   0.07971   0.59367   0.00000  Uiso   1.00
H664   H     0.10758   0.09892   0.65162   0.00000  Uiso   1.00
H665   H     0.16835   0.03689   0.89746   0.00000  Uiso   1.00
H666   H     0.05601   0.02834   0.90653   0.00000  Uiso   1.00
H667   H     0.08139   0.03399   0.96956   0.00000  Uiso   1.00
H668   H     0.10293   0.31557   0.93067   0.00000  Uiso   1.00
H669   H     0.10944   0.32093   0.73667   0.00000  Uiso   1.00
H670   H     0.24549   0.04457   0.95803   0.00000  Uiso   1.00
H671   H     0.15163   0.04683   0.80173   0.00000  Uiso   1.00
H672   H     0.11889   0.32217   0.82595   0.00000  Uiso   1.00
H673   H     0.08334   0.04872   0.82575   0.00000  Uiso   1.00
H674   H     0.22512   0.01036   0.76576   0.00000  Uiso   1.00
H675   H     0.22092   0.30421   0.84201   0.00000  Uiso   1.00
H676   H     0.26562   0.03114   0.85092   0.00000  Uiso   1.00
H677   H     0.29738   0.30272   0.84653   0.00000  Uiso   1.00
H678   H     0.23286   0.19839   0.60141   0.00000  Uiso   1.00
H679   H     0.10932   0.13371   0.88761   0.00000  Uiso   1.00
H680   H     0.02583   0.08769   0.60355   0.00000  Uiso   1.00
H681   H     0.29196   0.21261   0.90974   0.00000  Uiso   1.00
H682   H     0.31790   0.22074   0.99724   0.00000  Uiso   1.00
H683   H     0.32391   0.05356   0.52206   0.00000  Uiso   1.00
H684   H     0.16234   0.12021   0.72098   0.00000  Uiso   1.00
N685   N     0.14695   0.15216   0.73739   0.00000  Uiso   1.00
N686   N     0.18638   0.18117   0.76260   0.00000  Uiso   1.00
N687   N     0.13663   0.16170   0.61136   0.00000  Uiso   1.00
N688   N     0.14225   0.05618   0.91929   0.00000  Uiso   1.00
N689   N     0.08360   0.00789   0.75797   0.00000  Uiso   1.00
N690   N     0.26090   0.32815   0.78083   0.00000  Uiso   1.00
O691   O     0.29719   0.24631   0.75309   0.00000  Uiso   1.00
O692   O     0.03614   0.08702   0.74690   0.00000  Uiso   1.00
O693   O     0.05822   0.23702   0.74501   0.00000  Uiso   1.00
O694   O     0.27512   0.09632   0.75498   0.00000  Uiso   1.00
O695   O     0.30328   0.17397   0.82247   0.00000  Uiso   1.00
O696   O     0.03005   0.15937   0.67753   0.00000  Uiso   1.00
O697   O     0.06431   0.16467   0.81439   0.00000  Uiso   1.00
O698   O     0.26902   0.16866   0.68561   0.00000  Uiso   1.00
Zn699  Zn    0.27033   0.17287   0.75539   0.00000  Uiso   1.00
Zn700  Zn    0.06300   0.16046   0.74460   0.00000  Uiso   1.00
C701   C     0.34904   0.26480   0.75201   0.00000  Uiso   1.00
C702   C     0.64476   0.16096   0.65908   0.00000  Uiso   1.00
C703   C     0.36583   0.17168   0.89329   0.00000  Uiso   1.00
C704   C     0.63143   0.14594   0.60785   0.00000  Uiso   1.00
C705   C     0.34475   0.20034   0.97383   0.00000  Uiso   1.00
C706   C     0.63599   0.08436   0.53948   0.00000  Uiso   1.00
C707   C     0.66325   0.19564   0.92415   0.00000  Uiso   1.00
C708   C     0.65746   0.10509   0.58524   0.00000  Uiso   1.00
C709   C     0.41421   0.14961   0.91230   0.00000  Uiso   1.00
C710   C     0.58399   0.16511   0.58469   0.00000  Uiso   1.00
C711   C     0.42800   0.15110   0.96211   0.00000  Uiso   1.00
C712   C     0.65252   0.06888   0.75453   0.00000  Uiso   1.00
C713   C     0.55593   0.13804   0.54383   0.00000  Uiso   1.00
C714   C     0.39467   0.17986   0.99280   0.00000  Uiso   1.00
C715   C     0.58441   0.10017   0.51880   0.00000  Uiso   1.00
C716   C     0.47748   0.12923   0.98158   0.00000  Uiso   1.00
C717   C     0.49936   0.14698   0.52852   0.00000  Uiso   1.00
C718   C     0.47264   0.10830   0.62516   0.00000  Uiso   1.00
C719   C     0.42666   0.02370   0.93240   0.00000  Uiso   1.00
C720   C     0.44408   0.02368   0.80540   0.00000  Uiso   1.00
C721   C     0.59473   0.32487   0.83281   0.00000  Uiso   1.00
C722   C     0.46182   0.16812   0.56065   0.00000  Uiso   1.00
C723   C     0.50488   0.08903   0.95738   0.00000  Uiso   1.00
C724   C     0.41116   0.18687   0.54210   0.00000  Uiso   1.00
C725   C     0.55854   0.07573   0.97596   0.00000  Uiso   1.00
C726   C     0.35919   0.31950   0.75881   0.00000  Uiso   1.00
C727   C     0.64721   0.01543   0.76467   0.00000  Uiso   1.00
C728   C     0.35500   0.17049   0.84092   0.00000  Uiso   1.00
H729   H     0.38395   0.20554   0.56639   0.00000  Uiso   1.00
H730   H     0.50461   0.21135   0.78227   0.00000  Uiso   1.00
H731   H     0.44814   0.18511   0.63344   0.00000  Uiso   1.00
H732   H     0.51592   0.10289   0.64178   0.00000  Uiso   1.00
H733   H     0.46352   0.07971   0.59367   0.00000  Uiso   1.00
H734   H     0.44091   0.09892   0.65162   0.00000  Uiso   1.00
H735   H     0.50169   0.03689   0.89746   0.00000  Uiso   1.00
H736   H     0.38935   0.02834   0.90653   0.00000  Uiso   1.00
H737   H     0.41472   0.03399   0.96956   0.00000  Uiso   1.00
H738   H     0.43627   0.31557   0.93067   0.00000  Uiso   1.00
H739   H     0.44278   0.32093   0.73667   0.00000  Uiso   1.00
H740   H     0.57883   0.04457   0.95803   0.00000  Uiso   1.00
H741   H     0.48496   0.04683   0.80173   0.00000  Uiso   1.00
H742   H     0.45222   0.32217   0.82595   0.00000  Uiso   1.00
H743   H     0.41667   0.04872   0.82575   0.00000  Uiso   1.00
H744   H     0.55845   0.01036   0.76576   0.00000  Uiso   1.00
H745   H     0.55426   0.30421   0.84201   0.00000  Uiso   1.00
H746   H     0.59895   0.03114   0.85092   0.00000  Uiso   1.00
H747   H     0.63071   0.30272   0.84653   0.00000  Uiso   1.00
H748   H     0.56619   0.19839   0.60141   0.00000  Uiso   1.00
H749   H     0.44266   0.13371   0.88761   0.00000  Uiso   1.00
H750   H     0.35916   0.08769   0.60355   0.00000  Uiso   1.00
H751   H     0.62529   0.21261   0.90974   0.00000  Uiso   1.00
H752   H     0.65123   0.22074   0.99724   0.00000  Uiso   1.00
H753   H     0.65724   0.05356   0.52206   0.00000  Uiso   1.00
H754   H     0.49567   0.12021   0.72098   0.00000  Uiso   1.00
N755   N     0.48029   0.15216   0.73739   0.00000  Uiso   1.00
N756   N     0.51971   0.18117   0.76260   0.00000  Uiso   1.00
N757   N     0.46996   0.16170   0.61136   0.00000  Uiso   1.00
N758   N     0.47558   0.05618   0.91929   0.00000  Uiso   1.00
N759   N     0.41693   0.00789   0.75797   0.00000  Uiso   1.00
N760   N     0.59423   0.32815   0.78083   0.00000  Uiso   1.00
O761   O     0.63052   0.24631   0.75309   0.00000  Uiso   1.00
O762   O     0.36948   0.08702   0.74690   0.00000  Uiso   1.00
O763   O     0.39155   0.23702   0.74501   0.00000  Uiso   1.00
O764   O     0.60845   0.09632   0.75498   0.00000  Uiso   1.00
O765   O     0.63662   0.17397   0.82247   0.00000  Uiso   1.00
O766   O     0.36338   0.15937   0.67753   0.00000  Uiso   1.00
O767   O     0.39764   0.16467   0.81439   0.00000  Uiso   1.00
O768   O     0.60236   0.16866   0.68561   0.00000  Uiso   1.00
Zn769  Zn    0.60366   0.17287   0.75539   0.00000  Uiso   1.00
Zn770  Zn    0.39634   0.16046   0.74460   0.00000  Uiso   1.00
C771   C     0.68237   0.26480   0.75201   0.00000  Uiso   1.00
C772   C     0.97809   0.16096   0.65908   0.00000  Uiso   1.00
C773   C     0.69917   0.17168   0.89329   0.00000  Uiso   1.00
C774   C     0.96476   0.14594   0.60785   0.00000  Uiso   1.00
C775   C     0.67808   0.20034   0.97383   0.00000  Uiso   1.00
C776   C     0.96932   0.08436   0.53948   0.00000  Uiso   1.00
C777   C     0.99659   0.19564   0.92415   0.00000  Uiso   1.00
C778   C     0.99079   0.10509   0.58524   0.00000  Uiso   1.00
C779   C     0.74754   0.14961   0.91230   0.00000  Uiso   1.00
C780   C     0.91732   0.16511   0.58469   0.00000  Uiso   1.00
C781   C     0.76133   0.15110   0.96211   0.00000  Uiso   1.00
C782   C     0.98585   0.06888   0.75453   0.00000  Uiso   1.00
C783   C     0.88926   0.13804   0.54383   0.00000  Uiso   1.00
C784   C     0.72800   0.17986   0.99280   0.00000  Uiso   1.00
C785   C     0.91774   0.10017   0.51880   0.00000  Uiso   1.00
C786   C     0.81082   0.12923   0.98158   0.00000  Uiso   1.00
C787   C     0.83269   0.14698   0.52852   0.00000  Uiso   1.00
C788   C     0.80597   0.10830   0.62516   0.00000  Uiso   1.00
C789   C     0.76000   0.02370   0.93240   0.00000  Uiso   1.00
C790   C     0.77741   0.02368   0.80540   0.00000  Uiso   1.00
C791   C     0.92807   0.32487   0.83281   0.00000  Uiso   1.00
C792   C     0.79515   0.16812   0.56065   0.00000  Uiso   1.00
C793   C     0.83822   0.08903   0.95738   0.00000  Uiso   1.00
C794   C     0.74449   0.18687   0.54210   0.00000  Uiso   1.00
C795   C     0.89188   0.07573   0.97596   0.00000  Uiso   1.00
C796   C     0.69253   0.31950   0.75881   0.00000  Uiso   1.00
C797   C     0.98054   0.01543   0.76467   0.00000  Uiso   1.00
C798   C     0.68833   0.17049   0.84092   0.00000  Uiso   1.00
H799   H     0.71728   0.20554   0.56639   0.00000  Uiso   1.00
H800   H     0.83794   0.21135   0.78227   0.00000  Uiso   1.00
H801   H     0.78147   0.18511   0.63344   0.00000  Uiso   1.00
H802   H     0.84925   0.10289   0.64178   0.00000  Uiso   1.00
H803   H     0.79685   0.07971   0.59367   0.00000  Uiso   1.00
H804   H     0.77425   0.09892   0.65162   0.00000  Uiso   1.00
H805   H     0.83502   0.03689   0.89746   0.00000  Uiso   1.00
H806   H     0.72268   0.02834   0.90653   0.00000  Uiso   1.00
H807   H     0.74805   0.03399   0.96956   0.00000  Uiso   1.00
H808   H     0.76960   0.31557   0.93067   0.00000  Uiso   1.00
H809   H     0.77611   0.32093   0.73667   0.00000  Uiso   1.00
H810   H     0.91216   0.04457   0.95803   0.00000  Uiso   1.00
H811   H     0.81829   0.04683   0.80173   0.00000  Uiso   1.00
H812   H     0.78556   0.32217   0.82595   0.00000  Uiso   1.00
H813   H     0.75000   0.04872   0.82575   0.00000  Uiso   1.00
H814   H     0.89178   0.01036   0.76576   0.00000  Uiso   1.00
H815   H     0.88759   0.30421   0.84201   0.00000  Uiso   1.00
H816   H     0.93228   0.03114   0.85092   0.00000  Uiso   1.00
H817   H     0.96405   0.30272   0.84653   0.00000  Uiso   1.00
H818   H     0.89952   0.19839   0.60141   0.00000  Uiso   1.00
H819   H     0.77599   0.13371   0.88761   0.00000  Uiso   1.00
H820   H     0.69250   0.08769   0.60355   0.00000  Uiso   1.00
H821   H     0.95862   0.21261   0.90974   0.00000  Uiso   1.00
H822   H     0.98457   0.22074   0.99724   0.00000  Uiso   1.00
H823   H     0.99058   0.05356   0.52206   0.00000  Uiso   1.00
H824   H     0.82901   0.12021   0.72098   0.00000  Uiso   1.00
N825   N     0.81362   0.15216   0.73739   0.00000  Uiso   1.00
N826   N     0.85305   0.18117   0.76260   0.00000  Uiso   1.00
N827   N     0.80329   0.16170   0.61136   0.00000  Uiso   1.00
N828   N     0.80891   0.05618   0.91929   0.00000  Uiso   1.00
N829   N     0.75026   0.00789   0.75797   0.00000  Uiso   1.00
N830   N     0.92757   0.32815   0.78083   0.00000  Uiso   1.00
O831   O     0.96386   0.24631   0.75309   0.00000  Uiso   1.00
O832   O     0.70281   0.08702   0.74690   0.00000  Uiso   1.00
O833   O     0.72488   0.23702   0.74501   0.00000  Uiso   1.00
O834   O     0.94178   0.09632   0.75498   0.00000  Uiso   1.00
O835   O     0.96995   0.17397   0.82247   0.00000  Uiso   1.00
O836   O     0.69672   0.15937   0.67753   0.00000  Uiso   1.00
O837   O     0.73098   0.16467   0.81439   0.00000  Uiso   1.00
O838   O     0.93569   0.16866   0.68561   0.00000  Uiso   1.00
Zn839  Zn    0.93700   0.17287   0.75539   0.00000  Uiso   1.00
Zn840  Zn    0.72967   0.16046   0.74460   0.00000  Uiso   1.00
C841   C     0.01570   0.59814   0.75201   0.00000  Uiso   1.00
C842   C     0.31143   0.49429   0.65908   0.00000  Uiso   1.00
C843   C     0.03250   0.50501   0.89329   0.00000  Uiso   1.00
C844   C     0.29809   0.47927   0.60785   0.00000  Uiso   1.00
C845   C     0.01141   0.53367   0.97383   0.00000  Uiso   1.00
C846   C     0.30265   0.41769   0.53948   0.00000  Uiso   1.00
C847   C     0.32992   0.52897   0.92415   0.00000  Uiso   1.00
C848   C     0.32412   0.43843   0.58524   0.00000  Uiso   1.00
C849   C     0.08087   0.48294   0.91230   0.00000  Uiso   1.00
C850   C     0.25066   0.49845   0.58469   0.00000  Uiso   1.00
C851   C     0.09466   0.48444   0.96211   0.00000  Uiso   1.00
C852   C     0.31918   0.40222   0.75453   0.00000  Uiso   1.00
C853   C     0.22259   0.47138   0.54383   0.00000  Uiso   1.00
C854   C     0.06133   0.51319   0.99280   0.00000  Uiso   1.00
C855   C     0.25107   0.43350   0.51880   0.00000  Uiso   1.00
C856   C     0.14415   0.46256   0.98158   0.00000  Uiso   1.00
C857   C     0.16603   0.48031   0.52852   0.00000  Uiso   1.00
C858   C     0.13930   0.44163   0.62516   0.00000  Uiso   1.00
C859   C     0.09333   0.35703   0.93240   0.00000  Uiso   1.00
C860   C     0.11074   0.35701   0.80540   0.00000  Uiso   1.00
C861   C     0.26140   0.65821   0.83281   0.00000  Uiso   1.00
C862   C     0.12848   0.50145   0.56065   0.00000  Uiso   1.00
C863   C     0.17155   0.42236   0.95738   0.00000  Uiso   1.00
C864   C     0.07783   0.52021   0.54210   0.00000  Uiso   1.00
C865   C     0.22521   0.40906   0.97596   0.00000  Uiso   1.00
C866   C     0.02586   0.65283   0.75881   0.00000  Uiso   1.00
C867   C     0.31388   0.34876   0.76467   0.00000  Uiso   1.00
C868   C     0.02167   0.50382   0.84092   0.00000  Uiso   1.00
H869   H     0.05062   0.53887   0.56639   0.00000  Uiso   1.00
H870   H     0.17128   0.54468   0.78227   0.00000  Uiso   1.00
H871   H     0.11481   0.51845   0.63344   0.00000  Uiso   1.00
H872   H     0.18258   0.43622   0.64178   0.00000  Uiso   1.00
H873   H     0.13019   0.41304   0.59367   0.00000  Uiso   1.00
H874   H     0.10758   0.43225   0.65162   0.00000  Uiso   1.00
H875   H     0.16835   0.37022   0.89746   0.00000  Uiso   1.00
H876   H     0.05601   0.36168   0.90653   0.00000  Uiso   1.00
H877   H     0.08139   0.36732   0.96956   0.00000  Uiso   1.00
H878   H     0.10293   0.64890   0.93067   0.00000  Uiso   1.00
H879   H     0.10944   0.65426   0.73667   0.00000  Uiso   1.00
H880   H     0.24549   0.37791   0.95803   0.00000  Uiso   1.00
H881   H     0.15163   0.38016   0.80173   0.00000  Uiso   1.00
H882   H     0.11889   0.65550   0.82595   0.00000  Uiso   1.00
H883   H     0.08334   0.38205   0.82575   0.00000  Uiso   1.00
H884   H     0.22512   0.34369   0.76576   0.00000  Uiso   1.00
H885   H     0.22092   0.63754   0.84201   0.00000  Uiso   1.00
H886   H     0.26562   0.36448   0.85092   0.00000  Uiso   1.00
H887   H     0.29738   0.63605   0.84653   0.00000  Uiso   1.00
H888   H     0.23286   0.53172   0.60141   0.00000  Uiso   1.00
H889   H     0.10932   0.46704   0.88761   0.00000  Uiso   1.00
H890   H     0.02583   0.42102   0.60355   0.00000  Uiso   1.00
H891   H     0.29196   0.54595   0.90974   0.00000  Uiso   1.00
H892   H     0.31790   0.55408   0.99724   0.00000  Uiso   1.00
H893   H     0.32391   0.38689   0.52206   0.00000  Uiso   1.00
H894   H     0.16234   0.45355   0.72098   0.00000  Uiso   1.00
N895   N     0.14695   0.48550   0.73739   0.00000  Uiso   1.00
N896   N     0.18638   0.51450   0.76260   0.00000  Uiso   1.00
N897   N     0.13663   0.49504   0.61136   0.00000  Uiso   1.00
N898   N     0.14225   0.38951   0.91929   0.00000  Uiso   1.00
N899   N     0.08360   0.34123   0.75797   0.00000  Uiso   1.00
N900   N     0.26090   0.66148   0.78083   0.00000  Uiso   1.00
O901   O     0.29719   0.57964   0.75309   0.00000  Uiso   1.00
O902   O     0.03614   0.42036   0.74690   0.00000  Uiso   1.00
O903   O     0.05822   0.57035   0.74501   0.00000  Uiso   1.00
O904   O     0.27512   0.42965   0.75498   0.00000  Uiso   1.00
O905   O     0.30328   0.50730   0.82247   0.00000  Uiso   1.00
O906   O     0.03005   0.49270   0.67753   0.00000  Uiso   1.00
O907   O     0.06431   0.49801   0.81439   0.00000  Uiso   1.00
O908   O     0.26902   0.50199   0.68561   0.00000  Uiso   1.00
Zn909  Zn    0.27033   0.50621   0.75539   0.00000  Uiso   1.00
Zn910  Zn    0.06300   0.49379   0.74460   0.00000  Uiso   1.00
C911   C     0.34904   0.59814   0.75201   0.00000  Uiso   1.00
C912   C     0.64476   0.49429   0.65908   0.00000  Uiso   1.00
C913   C     0.36583   0.50501   0.89329   0.00000  Uiso   1.00
C914   C     0.63143   0.47927   0.60785   0.00000  Uiso   1.00
C915   C     0.34475   0.53367   0.97383   0.00000  Uiso   1.00
C916   C     0.63599   0.41769   0.53948   0.00000  Uiso   1.00
C917   C     0.66325   0.52897   0.92415   0.00000  Uiso   1.00
C918   C     0.65746   0.43843   0.58524   0.00000  Uiso   1.00
C919   C     0.41421   0.48294   0.91230   0.00000  Uiso   1.00
C920   C     0.58399   0.49845   0.58469   0.00000  Uiso   1.00
C921   C     0.42800   0.48444   0.96211   0.00000  Uiso   1.00
C922   C     0.65252   0.40222   0.75453   0.00000  Uiso   1.00
C923   C     0.55593   0.47138   0.54383   0.00000  Uiso   1.00
C924   C     0.39467   0.51319   0.99280   0.00000  Uiso   1.00
C925   C     0.58441   0.43350   0.51880   0.00000  Uiso   1.00
C926   C     0.47748   0.46256   0.98158   0.00000  Uiso   1.00
C927   C     0.49936   0.48031   0.52852   0.00000  Uiso   1.00
C928   C     0.47264   0.44163   0.62516   0.00000  Uiso   1.00
C929   C     0.42666   0.35703   0.93240   0.00000  Uiso   1.00
C930   C     0.44408   0.35701   0.80540   0.00000  Uiso   1.00
C931   C     0.59473   0.65821   0.83281   0.00000  Uiso   1.00
C932   C     0.46182   0.50145   0.56065   0.00000  Uiso   1.00
C933   C     0.50488   0.42236   0.95738   0.00000  Uiso   1.00
C934   C     0.41116   0.52021   0.54210   0.00000  Uiso   1.00
C935   C     0.55854   0.40906   0.97596   0.00000  Uiso   1.00
C936   C     0.35919   0.65283   0.75881   0.00000  Uiso   1.00
C937   C     0.64721   0.34876   0.76467   0.00000  Uiso   1.00
C938   C     0.35500   0.50382   0.84092   0.00000  Uiso   1.00
H939   H     0.38395   0.53887   0.56639   0.00000  Uiso   1.00
H940   H     0.50461   0.54468   0.78227   0.00000  Uiso   1.00
H941   H     0.44814   0.51845   0.63344   0.00000  Uiso   1.00
H942   H     0.51592   0.43622   0.64178   0.00000  Uiso   1.00
H943   H     0.46352   0.41304   0.59367   0.00000  Uiso   1.00
H944   H     0.44091   0.43225   0.65162   0.00000  Uiso   1.00
H945   H     0.50169   0.37022   0.89746   0.00000  Uiso   1.00
H946   H     0.38935   0.36168   0.90653   0.00000  Uiso   1.00
H947   H     0.41472   0.36732   0.96956   0.00000  Uiso   1.00
H948   H     0.43627   0.64890   0.93067   0.00000  Uiso   1.00
H949   H     0.44278   0.65426   0.73667   0.00000  Uiso   1.00
H950   H     0.57883   0.37791   0.95803   0.00000  Uiso   1.00
H951   H     0.48496   0.38016   0.80173   0.00000  Uiso   1.00
H952   H     0.45222   0.65550   0.82595   0.00000  Uiso   1.00
H953   H     0.41667   0.38205   0.82575   0.00000  Uiso   1.00
H954   H     0.55845   0.34369   0.76576   0.00000  Uiso   1.00
H955   H     0.55426   0.63754   0.84201   0.00000  Uiso   1.00
H956   H     0.59895   0.36448   0.85092   0.00000  Uiso   1.00
H957   H     0.63071   0.63605   0.84653   0.00000  Uiso   1.00
H958   H     0.56619   0.53172   0.60141   0.00000  Uiso   1.00
H959   H     0.44266   0.46704   0.88761   0.00000  Uiso   1.00
H960   H     0.35916   0.42102   0.60355   0.00000  Uiso   1.00
H961   H     0.62529   0.54595   0.90974   0.00000  Uiso   1.00
H962   H     0.65123   0.55408   0.99724   0.00000  Uiso   1.00
H963   H     0.65724   0.38689   0.52206   0.00000  Uiso   1.00
H964   H     0.49567   0.45355   0.72098   0.00000  Uiso   1.00
N965   N     0.48029   0.48550   0.73739   0.00000  Uiso   1.00
N966   N     0.51971   0.51450   0.76260   0.00000  Uiso   1.00
N967   N     0.46996   0.49504   0.61136   0.00000  Uiso   1.00
N968   N     0.47558   0.38951   0.91929   0.00000  Uiso   1.00
N969   N     0.41693   0.34123   0.75797   0.00000  Uiso   1.00
N970   N     0.59423   0.66148   0.78083   0.00000  Uiso   1.00
O971   O     0.63052   0.57964   0.75309   0.00000  Uiso   1.00
O972   O     0.36948   0.42036   0.74690   0.00000  Uiso   1.00
O973   O     0.39155   0.57035   0.74501   0.00000  Uiso   1.00
O974   O     0.60845   0.42965   0.75498   0.00000  Uiso   1.00
O975   O     0.63662   0.50730   0.82247   0.00000  Uiso   1.00
O976   O     0.36338   0.49270   0.67753   0.00000  Uiso   1.00
O977   O     0.39764   0.49801   0.81439   0.00000  Uiso   1.00
O978   O     0.60236   0.50199   0.68561   0.00000  Uiso   1.00
Zn979  Zn    0.60366   0.50621   0.75539   0.00000  Uiso   1.00
Zn980  Zn    0.39634   0.49379   0.74460   0.00000  Uiso   1.00
C981   C     0.68237   0.59814   0.75201   0.00000  Uiso   1.00
C982   C     0.97809   0.49429   0.65908   0.00000  Uiso   1.00
C983   C     0.69917   0.50501   0.89329   0.00000  Uiso   1.00
C984   C     0.96476   0.47927   0.60785   0.00000  Uiso   1.00
C985   C     0.67808   0.53367   0.97383   0.00000  Uiso   1.00
C986   C     0.96932   0.41769   0.53948   0.00000  Uiso   1.00
C987   C     0.99659   0.52897   0.92415   0.00000  Uiso   1.00
C988   C     0.99079   0.43843   0.58524   0.00000  Uiso   1.00
C989   C     0.74754   0.48294   0.91230   0.00000  Uiso   1.00
C990   C     0.91732   0.49845   0.58469   0.00000  Uiso   1.00
C991   C     0.76133   0.48444   0.96211   0.00000  Uiso   1.00
C992   C     0.98585   0.40222   0.75453   0.00000  Uiso   1.00
C993   C     0.88926   0.47138   0.54383   0.00000  Uiso   1.00
C994   C     0.72800   0.51319   0.99280   0.00000  Uiso   1.00
C995   C     0.91774   0.43350   0.51880   0.00000  Uiso   1.00
C996   C     0.81082   0.46256   0.98158   0.00000  Uiso   1.00
C997   C     0.83269   0.48031   0.52852   0.00000  Uiso   1.00
C998   C     0.80597   0.44163   0.62516   0.00000  Uiso   1.00
C999   C     0.76000   0.35703   0.93240   0.00000  Uiso   1.00
C1000  C     0.77741   0.35701   0.80540   0.00000  Uiso   1.00
C1001  C     0.92807   0.65821   0.83281   0.00000  Uiso   1.00
C1002  C     0.79515   0.50145   0.56065   0.00000  Uiso   1.00
C1003  C     0.83822   0.42236   0.95738   0.00000  Uiso   1.00
C1004  C     0.74449   0.52021   0.54210   0.00000  Uiso   1.00
C1005  C     0.89188   0.40906   0.97596   0.00000  Uiso   1.00
C1006  C     0.69253   0.65283   0.75881   0.00000  Uiso   1.00
C1007  C     0.98054   0.34876   0.76467   0.00000  Uiso   1.00
C1008  C     0.68833   0.50382   0.84092   0.00000  Uiso   1.00
H1009  H     0.71728   0.53887   0.56639   0.00000  Uiso   1.00
H1010  H     0.83794   0.54468   0.78227   0.00000  Uiso   1.00
H1011  H     0.78147   0.51845   0.63344   0.00000  Uiso   1.00
H1012  H     0.84925   0.43622   0.64178   0.00000  Uiso   1.00
H1013  H     0.79685   0.41304   0.59367   0.00000  Uiso   1.00
H1014  H     0.77425   0.43225   0.65162   0.00000  Uiso   1.00
H1015  H     0.83502   0.37022   0.89746   0.00000  Uiso   1.00
H1016  H     0.72268   0.36168   0.90653   0.00000  Uiso   1.00
H1017  H     0.74805   0.36732   0.96956   0.00000  Uiso   1.00
H1018  H     0.76960   0.64890   0.93067   0.00000  Uiso   1.00
H1019  H     0.77611   0.65426   0.73667   0.00000  Uiso   1.00
H1020  H     0.91216   0.37791   0.95803   0.00000  Uiso   1.00
H1021  H     0.81829   0.38016   0.80173   0.00000  Uiso   1.00
H1022  H     0.78556   0.65550   0.82595   0.00000  Uiso   1.00
H1023  H     0.75000   0.38205   0.82575   0.00000  Uiso   1.00
H1024  H     0.89178   0.34369   0.76576   0.00000  Uiso   1.00
H1025  H     0.88759   0.63754   0.84201   0.00000  Uiso   1.00
H1026  H     0.93228   0.36448   0.85092   0.00000  Uiso   1.00
H1027  H     0.96405   0.63605   0.84653   0.00000  Uiso   1.00
H1028  H     0.89952   0.53172   0.60141   0.00000  Uiso   1.00
H1029  H     0.77599   0.46704   0.88761   0.00000  Uiso   1.00
H1030  H     0.69250   0.42102   0.60355   0.00000  Uiso   1.00
H1031  H     0.95862   0.54595   0.90974   0.00000  Uiso   1.00
H1032  H     0.98457   0.55408   0.99724   0.00000  Uiso   1.00
H1033  H     0.99058   0.38689   0.52206   0.00000  Uiso   1.00
H1034  H     0.82901   0.45355   0.72098   0.00000  Uiso   1.00
N1035  N     0.81362   0.48550   0.73739   0.00000  Uiso   1.00
N1036  N     0.85305   0.51450   0.76260   0.00000  Uiso   1.00
N1037  N     0.80329   0.49504   0.61136   0.00000  Uiso   1.00
N1038  N     0.80891   0.38951   0.91929   0.00000  Uiso   1.00
N1039  N     0.75026   0.34123   0.75797   0.00000  Uiso   1.00
N1040  N     0.92757   0.66148   0.78083   0.00000  Uiso   1.00
O1041  O     0.96386   0.57964   0.75309   0.00000  Uiso   1.00
O1042  O     0.70281   0.42036   0.74690   0.00000  Uiso   1.00
O1043  O     0.72488   0.57035   0.74501   0.00000  Uiso   1.00
O1044  O     0.94178   0.42965   0.75498   0.00000  Uiso   1.00
O1045  O     0.96995   0.50730   0.82247   0.00000  Uiso   1.00
O1046  O     0.69672   0.49270   0.67753   0.00000  Uiso   1.00
O1047  O     0.73098   0.49801   0.81439   0.00000  Uiso   1.00
O1048  O     0.93569   0.50199   0.68561   0.00000  Uiso   1.00
Zn1049 Zn    0.93700   0.50621   0.75539   0.00000  Uiso   1.00
Zn1050 Zn    0.72967   0.49379   0.74460   0.00000  Uiso   1.00
C1051  C     0.01570   0.93147   0.75201   0.00000  Uiso   1.00
C1052  C     0.31143   0.82762   0.65908   0.00000  Uiso   1.00
C1053  C     0.03250   0.83834   0.89329   0.00000  Uiso   1.00
C1054  C     0.29809   0.81261   0.60785   0.00000  Uiso   1.00
C1055  C     0.01141   0.86701   0.97383   0.00000  Uiso   1.00
C1056  C     0.30265   0.75103   0.53948   0.00000  Uiso   1.00
C1057  C     0.32992   0.86231   0.92415   0.00000  Uiso   1.00
C1058  C     0.32412   0.77176   0.58524   0.00000  Uiso   1.00
C1059  C     0.08087   0.81627   0.91230   0.00000  Uiso   1.00
C1060  C     0.25066   0.83178   0.58469   0.00000  Uiso   1.00
C1061  C     0.09466   0.81777   0.96211   0.00000  Uiso   1.00
C1062  C     0.31918   0.73555   0.75453   0.00000  Uiso   1.00
C1063  C     0.22259   0.80471   0.54383   0.00000  Uiso   1.00
C1064  C     0.06133   0.84652   0.99280   0.00000  Uiso   1.00
C1065  C     0.25107   0.76684   0.51880   0.00000  Uiso   1.00
C1066  C     0.14415   0.79589   0.98158   0.00000  Uiso   1.00
C1067  C     0.16603   0.81364   0.52852   0.00000  Uiso   1.00
C1068  C     0.13930   0.77496   0.62516   0.00000  Uiso   1.00
C1069  C     0.09333   0.69037   0.93240   0.00000  Uiso   1.00
C1070  C     0.11074   0.69034   0.80540   0.00000  Uiso   1.00
C1071  C     0.26140   0.99154   0.83281   0.00000  Uiso   1.00
C1072  C     0.12848   0.83478   0.56065   0.00000  Uiso   1.00
C1073  C     0.17155   0.75570   0.95738   0.00000  Uiso   1.00
C1074  C     0.07783   0.85354   0.54210   0.00000  Uiso   1.00
C1075  C     0.22521   0.74240   0.97596   0.00000  Uiso   1.00
C1076  C     0.02586   0.98616   0.75881   0.00000  Uiso   1.00
C1077  C     0.31388   0.68210   0.76467   0.00000  Uiso   1.00
C1078  C     0.02167   0.83715   0.84092   0.00000  Uiso   1.00
H1079  H     0.05062   0.87220   0.56639   0.00000  Uiso   1.00
H1080  H     0.17128   0.87801   0.78227   0.00000  Uiso   1.00
H1081  H     0.11481   0.85178   0.63344   0.00000  Uiso   1.00
H1082  H     0.18258   0.76955   0.64178   0.00000  Uiso   1.00
H1083  H     0.13019   0.74637   0.59367   0.00000  Uiso   1.00
H1084  H     0.10758   0.76558   0.65162   0.00000  Uiso   1.00
H1085  H     0.16835   0.70356   0.89746   0.00000  Uiso   1.00
H1086  H     0.05601   0.69501   0.90653   0.00000  Uiso   1.00
H1087  H     0.08139   0.70066   0.96956   0.00000  Uiso   1.00
H1088  H     0.10293   0.98224   0.93067   0.00000  Uiso   1.00
H1089  H     0.10944   0.98759   0.73667   0.00000  Uiso   1.00
H1090  H     0.24549   0.71124   0.95803   0.00000  Uiso   1.00
H1091  H     0.15163   0.71349   0.80173   0.00000  Uiso   1.00
H1092  H     0.11889   0.98884   0.82595   0.00000  Uiso   1.00
H1093  H     0.08334   0.71539   0.82575   0.00000  Uiso   1.00
H1094  H     0.22512   0.67703   0.76576   0.00000  Uiso   1.00
H1095  H     0.22092   0.97087   0.84201   0.00000  Uiso   1.00
H1096  H     0.26562   0.69781   0.85092   0.00000  Uiso   1.00
H1097  H     0.29738   0.96939   0.84653   0.00000  Uiso   1.00
H1098  H     0.23286   0.86506   0.60141   0.00000  Uiso   1.00
H1099  H     0.10932   0.80038   0.88761   0.00000  Uiso   1.00
H1100  H     0.02583   0.75435   0.60355   0.00000  Uiso   1.00
H1101  H     0.29196   0.87928   0.90974   0.00000  Uiso   1.00
H1102  H     0.31790   0.88741   0.99724   0.00000  Uiso   1.00
H1103  H     0.32391   0.72023   0.52206   0.00000  Uiso   1.00
H1104  H     0.16234   0.78688   0.72098   0.00000  Uiso   1.00
N1105  N     0.14695   0.81883   0.73739   0.00000  Uiso   1.00
N1106  N     0.18638   0.84784   0.76260   0.00000  Uiso   1.00
N1107  N     0.13663   0.82837   0.61136   0.00000  Uiso   1.00
N1108  N     0.14225   0.72284   0.91929   0.00000  Uiso   1.00
N1109  N     0.08360   0.67456   0.75797   0.00000  Uiso   1.00
N1110  N     0.26090   0.99482   0.78083   0.00000  Uiso   1.00
O1111  O     0.29719   0.91298   0.75309   0.00000  Uiso   1.00
O1112  O     0.03614   0.75369   0.74690   0.00000  Uiso   1.00
O1113  O     0.05822   0.90368   0.74501   0.00000  Uiso   1.00
O1114  O     0.27512   0.76298   0.75498   0.00000  Uiso   1.00
O1115  O     0.30328   0.84063   0.82247   0.00000  Uiso   1.00
O1116  O     0.03005   0.82603   0.67753   0.00000  Uiso   1.00
O1117  O     0.06431   0.83134   0.81439   0.00000  Uiso   1.00
O1118  O     0.26902   0.83533   0.68561   0.00000  Uiso   1.00
Zn1119 Zn    0.27033   0.83954   0.75539   0.00000  Uiso   1.00
Zn1120 Zn    0.06300   0.82713   0.74460   0.00000  Uiso   1.00
C1121  C     0.34904   0.93147   0.75201   0.00000  Uiso   1.00
C1122  C     0.64476   0.82762   0.65908   0.00000  Uiso   1.00
C1123  C     0.36583   0.83834   0.89329   0.00000  Uiso   1.00
C1124  C     0.63143   0.81261   0.60785   0.00000  Uiso   1.00
C1125  C     0.34475   0.86701   0.97383   0.00000  Uiso   1.00
C1126  C     0.63599   0.75103   0.53948   0.00000  Uiso   1.00
C1127  C     0.66325   0.86231   0.92415   0.00000  Uiso   1.00
C1128  C     0.65746   0.77176   0.58524   0.00000  Uiso   1.00
C1129  C     0.41421   0.81627   0.91230   0.00000  Uiso   1.00
C1130  C     0.58399   0.83178   0.58469   0.00000  Uiso   1.00
C1131  C     0.42800   0.81777   0.96211   0.00000  Uiso   1.00
C1132  C     0.65252   0.73555   0.75453   0.00000  Uiso   1.00
C1133  C     0.55593   0.80471   0.54383   0.00000  Uiso   1.00
C1134  C     0.39467   0.84652   0.99280   0.00000  Uiso   1.00
C1135  C     0.58441   0.76684   0.51880   0.00000  Uiso   1.00
C1136  C     0.47748   0.79589   0.98158   0.00000  Uiso   1.00
C1137  C     0.49936   0.81364   0.52852   0.00000  Uiso   1.00
C1138  C     0.47264   0.77496   0.62516   0.00000  Uiso   1.00
C1139  C     0.42666   0.69037   0.93240   0.00000  Uiso   1.00
C1140  C     0.44408   0.69034   0.80540   0.00000  Uiso   1.00
C1141  C     0.59473   0.99154   0.83281   0.00000  Uiso   1.00
C1142  C     0.46182   0.83478   0.56065   0.00000  Uiso   1.00
C1143  C     0.50488   0.75570   0.95738   0.00000  Uiso   1.00
C1144  C     0.41116   0.85354   0.54210   0.00000  Uiso   1.00
C1145  C     0.55854   0.74240   0.97596   0.00000  Uiso   1.00
C1146  C     0.35919   0.98616   0.75881   0.00000  Uiso   1.00
C1147  C     0.64721   0.68210   0.76467   0.00000  Uiso   1.00
C1148  C     0.35500   0.83715   0.84092   0.00000  Uiso   1.00
H1149  H     0.38395   0.87220   0.56639   0.00000  Uiso   1.00
H1150  H     0.50461   0.87801   0.78227   0.00000  Uiso   1.00
H1151  H     0.44814   0.85178   0.63344   0.00000  Uiso   1.00
H1152  H     0.51592   0.76955   0.64178   0.00000  Uiso   1.00
H1153  H     0.46352   0.74637   0.59367   0.00000  Uiso   1.00
H1154  H     0.44091   0.76558   0.65162   0.00000  Uiso   1.00
H1155  H     0.50169   0.70356   0.89746   0.00000  Uiso   1.00
H1156  H     0.38935   0.69501   0.90653   0.00000  Uiso   1.00
H1157  H     0.41472   0.70066   0.96956   0.00000  Uiso   1.00
H1158  H     0.43627   0.98224   0.93067   0.00000  Uiso   1.00
H1159  H     0.44278   0.98759   0.73667   0.00000  Uiso   1.00
H1160  H     0.57883   0.71124   0.95803   0.00000  Uiso   1.00
H1161  H     0.48496   0.71349   0.80173   0.00000  Uiso   1.00
H1162  H     0.45222   0.98884   0.82595   0.00000  Uiso   1.00
H1163  H     0.41667   0.71539   0.82575   0.00000  Uiso   1.00
H1164  H     0.55845   0.67703   0.76576   0.00000  Uiso   1.00
H1165  H     0.55426   0.97087   0.84201   0.00000  Uiso   1.00
H1166  H     0.59895   0.69781   0.85092   0.00000  Uiso   1.00
H1167  H     0.63071   0.96939   0.84653   0.00000  Uiso   1.00
H1168  H     0.56619   0.86506   0.60141   0.00000  Uiso   1.00
H1169  H     0.44266   0.80038   0.88761   0.00000  Uiso   1.00
H1170  H     0.35916   0.75435   0.60355   0.00000  Uiso   1.00
H1171  H     0.62529   0.87928   0.90974   0.00000  Uiso   1.00
H1172  H     0.65123   0.88741   0.99724   0.00000  Uiso   1.00
H1173  H     0.65724   0.72023   0.52206   0.00000  Uiso   1.00
H1174  H     0.49567   0.78688   0.72098   0.00000  Uiso   1.00
N1175  N     0.48029   0.81883   0.73739   0.00000  Uiso   1.00
N1176  N     0.51971   0.84784   0.76260   0.00000  Uiso   1.00
N1177  N     0.46996   0.82837   0.61136   0.00000  Uiso   1.00
N1178  N     0.47558   0.72284   0.91929   0.00000  Uiso   1.00
N1179  N     0.41693   0.67456   0.75797   0.00000  Uiso   1.00
N1180  N     0.59423   0.99482   0.78083   0.00000  Uiso   1.00
O1181  O     0.63052   0.91298   0.75309   0.00000  Uiso   1.00
O1182  O     0.36948   0.75369   0.74690   0.00000  Uiso   1.00
O1183  O     0.39155   0.90368   0.74501   0.00000  Uiso   1.00
O1184  O     0.60845   0.76298   0.75498   0.00000  Uiso   1.00
O1185  O     0.63662   0.84063   0.82247   0.00000  Uiso   1.00
O1186  O     0.36338   0.82603   0.67753   0.00000  Uiso   1.00
O1187  O     0.39764   0.83134   0.81439   0.00000  Uiso   1.00
O1188  O     0.60236   0.83533   0.68561   0.00000  Uiso   1.00
Zn1189 Zn    0.60366   0.83954   0.75539   0.00000  Uiso   1.00
Zn1190 Zn    0.39634   0.82713   0.74460   0.00000  Uiso   1.00
C1191  C     0.68237   0.93147   0.75201   0.00000  Uiso   1.00
C1192  C     0.97809   0.82762   0.65908   0.00000  Uiso   1.00
C1193  C     0.69917   0.83834   0.89329   0.00000  Uiso   1.00
C1194  C     0.96476   0.81261   0.60785   0.00000  Uiso   1.00
C1195  C     0.67808   0.86701   0.97383   0.00000  Uiso   1.00
C1196  C     0.96932   0.75103   0.53948   0.00000  Uiso   1.00
C1197  C     0.99659   0.86231   0.92415   0.00000  Uiso   1.00
C1198  C     0.99079   0.77176   0.58524   0.00000  Uiso   1.00
C1199  C     0.74754   0.81627   0.91230   0.00000  Uiso   1.00
C1200  C     0.91732   0.83178   0.58469   0.00000  Uiso   1.00
C1201  C     0.76133   0.81777   0.96211   0.00000  Uiso   1.00
C1202  C     0.98585   0.73555   0.75453   0.00000  Uiso   1.00
C1203  C     0.88926   0.80471   0.54383   0.00000  Uiso   1.00
C1204  C     0.72800   0.84652   0.99280   0.00000  Uiso   1.00
C1205  C     0.91774   0.76684   0.51880   0.00000  Uiso   1.00
C1206  C     0.81082   0.79589   0.98158   0.00000  Uiso   1.00
C1207  C     0.83269   0.81364   0.52852   0.00000  Uiso   1.00
C1208  C     0.80597   0.77496   0.62516   0.00000  Uiso   1.00
C1209  C     0.76000   0.69037   0.93240   0.00000  Uiso   1.00
C1210  C     0.77741   0.69034   0.80540   0.00000  Uiso   1.00
C1211  C     0.92807   0.99154   0.83281   0.00000  Uiso   1.00
C1212  C     0.79515   0.83478   0.56065   0.00000  Uiso   1.00
C1213  C     0.83822   0.75570   0.95738   0.00000  Uiso   1.00
C1214  C     0.74449   0.85354   0.54210   0.00000  Uiso   1.00
C1215  C     0.89188   0.74240   0.97596   0.00000  Uiso   1.00
C1216  C     0.69253   0.98616   0.75881   0.00000  Uiso   1.00
C1217  C     0.98054   0.68210   0.76467   0.00000  Uiso   1.00
C1218  C     0.68833   0.83715   0.84092   0.00000  Uiso   1.00
H1219  H     0.71728   0.87220   0.56639   0.00000  Uiso   1.00
H1220  H     0.83794   0.87801   0.78227   0.00000  Uiso   1.00
H1221  H     0.78147   0.85178   0.63344   0.00000  Uiso   1.00
H1222  H     0.84925   0.76955   0.64178   0.00000  Uiso   1.00
H1223  H     0.79685   0.74637   0.59367   0.00000  Uiso   1.00
H1224  H     0.77425   0.76558   0.65162   0.00000  Uiso   1.00
H1225  H     0.83502   0.70356   0.89746   0.00000  Uiso   1.00
H1226  H     0.72268   0.69501   0.90653   0.00000  Uiso   1.00
H1227  H     0.74805   0.70066   0.96956   0.00000  Uiso   1.00
H1228  H     0.76960   0.98224   0.93067   0.00000  Uiso   1.00
H1229  H     0.77611   0.98759   0.73667   0.00000  Uiso   1.00
H1230  H     0.91216   0.71124   0.95803   0.00000  Uiso   1.00
H1231  H     0.81829   0.71349   0.80173   0.00000  Uiso   1.00
H1232  H     0.78556   0.98884   0.82595   0.00000  Uiso   1.00
H1233  H     0.75000   0.71539   0.82575   0.00000  Uiso   1.00
H1234  H     0.89178   0.67703   0.76576   0.00000  Uiso   1.00
H1235  H     0.88759   0.97087   0.84201   0.00000  Uiso   1.00
H1236  H     0.93228   0.69781   0.85092   0.00000  Uiso   1.00
H1237  H     0.96405   0.96939   0.84653   0.00000  Uiso   1.00
H1238  H     0.89952   0.86506   0.60141   0.00000  Uiso   1.00
H1239  H     0.77599   0.80038   0.88761   0.00000  Uiso   1.00
H1240  H     0.69250   0.75435   0.60355   0.00000  Uiso   1.00
H1241  H     0.95862   0.87928   0.90974   0.00000  Uiso   1.00
H1242  H     0.98457   0.88741   0.99724   0.00000  Uiso   1.00
H1243  H     0.99058   0.72023   0.52206   0.00000  Uiso   1.00
H1244  H     0.82901   0.78688   0.72098   0.00000  Uiso   1.00
N1245  N     0.81362   0.81883   0.73739   0.00000  Uiso   1.00
N1246  N     0.85305   0.84784   0.76260   0.00000  Uiso   1.00
N1247  N     0.80329   0.82837   0.61136   0.00000  Uiso   1.00
N1248  N     0.80891   0.72284   0.91929   0.00000  Uiso   1.00
N1249  N     0.75026   0.67456   0.75797   0.00000  Uiso   1.00
N1250  N     0.92757   0.99482   0.78083   0.00000  Uiso   1.00
O1251  O     0.96386   0.91298   0.75309   0.00000  Uiso   1.00
O1252  O     0.70281   0.75369   0.74690   0.00000  Uiso   1.00
O1253  O     0.72488   0.90368   0.74501   0.00000  Uiso   1.00
O1254  O     0.94178   0.76298   0.75498   0.00000  Uiso   1.00
O1255  O     0.96995   0.84063   0.82247   0.00000  Uiso   1.00
O1256  O     0.69672   0.82603   0.67753   0.00000  Uiso   1.00
O1257  O     0.73098   0.83134   0.81439   0.00000  Uiso   1.00
O1258  O     0.93569   0.83533   0.68561   0.00000  Uiso   1.00
Zn1259 Zn    0.93700   0.83954   0.75539   0.00000  Uiso   1.00
Zn1260 Zn    0.72967   0.82713   0.74460   0.00000  Uiso   1.00
loop_
_geom_bond_atom_site_label_1
_geom_bond_atom_site_label_2
_geom_bond_distance
_geom_bond_site_symmetry_2
_ccdc_geom_bond_type
C1     O63     1.295   .     A
C1     C26     1.417   .     S
C1     O201    1.279   1_455 S
C2     C4      1.458   .     S
C2     O68     1.304   .     A
C2     O136    1.294   .     S
C3     C9      1.392   .     A
C3     C28     1.454   .     S
C3     C147    1.401   1_455 S
C4     C8      1.404   .     A
C4     C10     1.383   .     A
C5     C14     1.402   .     A
C5     C147    1.392   1_455 S
C5     H192    1.084   1_455 S
C6     C15     1.401   .     A
C6     H53     1.084   .     S
C6     C8      1.396   .     A
C7     H51     1.083   .     S
C7     C73     1.401   .     S
C7     C75     1.392   .     S
C8     H120    1.075   .     S
C9     C11     1.393   .     A
C9     H49     1.080   .     S
C10    H48     1.083   .     S
C10    C13     1.396   .     A
C11    C16     1.415   .     A
C11    C14     1.419   .     A
C12    O64     1.300   .     A
C12    C27     1.422   .     S
C12    O132    1.276   .     S
C13    C17     1.406   .     A
C13    C15     1.410   .     A
C14    C654    1.392   .     S
C15    C655    1.393   1_554 S
C16    C23     1.428   .     A
C16    C647    1.405   .     S
C17    C22     1.418   .     A
C17    C646    1.405   1_554 S
C18    N57     1.456   .     S
C18    H34     1.107   .     S
C18    H33     1.113   .     S
C18    H32     1.108   .     S
C19    N58     1.452   .     S
C19    H37     1.112   .     S
C19    H36     1.109   .     S
C19    H458    1.111   1_545 S
C20    N59     1.444   .     S
C20    H41     1.108   .     S
C20    H43     1.110   .     S
C20    H462    1.111   1_545 S
C21    N60     1.447   .     S
C21    H47     1.112   .     S
C21    H45     1.109   .     S
C21    H256    1.112   .     S
C22    N57     1.424   .     S
C22    C24     1.393   .     A
C23    N58     1.424   .     S
C23    C25     1.401   .     A
C24    H29     1.083   .     S
C24    C644    1.392   1_554 S
C25    H40     1.085   .     S
C25    C645    1.393   .     S
C26    C377    1.367   1_455 S
C26    N269    1.433   .     S
C27    C516    1.367   1_545 S
C27    N480    1.430   1_545 S
C28    O67     1.300   .     A
C28    O205    1.296   1_455 S
H30    N56     1.029   .     S
H31    N57     1.030   .     S
H35    N58     1.031   .     S
H38    C229    1.111   .     S
H39    N269    1.031   .     S
H42    C230    1.111   .     S
H44    N480    1.030   1_545 S
H46    C441    1.112   1_545 S
H50    C148    1.075   1_455 S
H52    C75     1.084   .     S
H54    N55     1.026   .     S
N55    N56     1.288   .     D
N55    Zn70    2.026   .     S
N56    Zn69    2.026   .     S
N59    C446    1.433   1_545 S
N59    H459    1.031   1_545 S
N60    C237    1.430   .     S
N60    H254    1.030   .     S
O61    Zn69    1.961   .     S
O61    C71     1.279   .     S
O62    Zn70    1.961   .     S
O62    C152    1.276   1_455 S
O63    Zn70    1.990   .     S
O64    Zn69    1.990   .     S
O65    Zn69    1.959   .     S
O65    C98     1.296   .     S
O66    Zn70    1.959   .     S
O66    C142    1.294   1_455 S
O67    Zn70    1.930   .     S
O68    Zn69    1.930   .     S
C71    O133    1.295   .     A
C71    C96     1.417   .     S
C72    C74     1.458   .     S
C72    O138    1.304   .     A
C72    O206    1.294   .     S
C73    C79     1.392   .     A
C73    C98     1.454   .     S
C74    C78     1.404   .     A
C74    C80     1.383   .     A
C75    C84     1.402   .     A
C76    C85     1.401   .     A
C76    H123    1.084   .     S
C76    C78     1.396   .     A
C77    H121    1.083   .     S
C77    C143    1.401   .     S
C77    C145    1.392   .     S
C78    H190    1.075   .     S
C79    C81     1.393   .     A
C79    H119    1.080   .     S
C80    H118    1.083   .     S
C80    C83     1.396   .     A
C81    C86     1.415   .     A
C81    C84     1.419   .     A
C82    O134    1.300   .     A
C82    C97     1.422   .     S
C82    O202    1.276   .     S
C83    C87     1.406   .     A
C83    C85     1.410   .     A
C84    C724    1.392   .     S
C85    C725    1.393   1_554 S
C86    C93     1.428   .     A
C86    C717    1.405   .     S
C87    C92     1.418   .     A
C87    C716    1.405   1_554 S
C88    N127    1.456   .     S
C88    H104    1.107   .     S
C88    H103    1.113   .     S
C88    H102    1.108   .     S
C89    N128    1.452   .     S
C89    H107    1.112   .     S
C89    H106    1.109   .     S
C89    H528    1.111   1_545 S
C90    N129    1.444   .     S
C90    H111    1.108   .     S
C90    H113    1.110   .     S
C90    H532    1.111   1_545 S
C91    N130    1.447   .     S
C91    H117    1.112   .     S
C91    H115    1.109   .     S
C91    H326    1.112   .     S
C92    N127    1.424   .     S
C92    C94     1.393   .     A
C93    N128    1.424   .     S
C93    C95     1.401   .     A
C94    H99     1.083   .     S
C94    C714    1.392   1_554 S
C95    H110    1.085   .     S
C95    C715    1.393   .     S
C96    C237    1.367   .     S
C96    N339    1.433   .     S
C97    C586    1.367   1_545 S
C97    N550    1.430   1_545 S
C98    O137    1.300   .     A
H100   N126    1.029   .     S
H101   N127    1.030   .     S
H105   N128    1.031   .     S
H108   C299    1.111   .     S
H109   N339    1.031   .     S
H112   C300    1.111   .     S
H114   N550    1.030   1_545 S
H116   C511    1.112   1_545 S
H122   C145    1.084   .     S
H124   N125    1.026   .     S
N125   N126    1.288   .     D
N125   Zn140   2.026   .     S
N126   Zn139   2.026   .     S
N129   C516    1.433   1_545 S
N129   H529    1.031   1_545 S
N130   C307    1.430   .     S
N130   H324    1.030   .     S
O131   Zn139   1.961   .     S
O131   C141    1.279   .     S
O132   Zn140   1.961   .     S
O133   Zn140   1.990   .     S
O134   Zn139   1.990   .     S
O135   Zn139   1.959   .     S
O135   C168    1.296   .     S
O136   Zn140   1.959   .     S
O137   Zn140   1.930   .     S
O138   Zn139   1.930   .     S
C141   O203    1.295   .     A
C141   C166    1.417   .     S
C142   C144    1.458   .     S
C142   O208    1.304   .     A
C142   O66     1.294   1_655 S
C143   C149    1.392   .     A
C143   C168    1.454   .     S
C144   C148    1.404   .     A
C144   C150    1.383   .     A
C145   C154    1.402   .     A
C146   C155    1.401   .     A
C146   H193    1.084   .     S
C146   C148    1.396   .     A
C147   H191    1.083   .     S
C147   C3      1.401   1_655 S
C147   C5      1.392   1_655 S
C148   H50     1.075   1_655 S
C149   C151    1.393   .     A
C149   H189    1.080   .     S
C150   H188    1.083   .     S
C150   C153    1.396   .     A
C151   C156    1.415   .     A
C151   C154    1.419   .     A
C152   O204    1.300   .     A
C152   C167    1.422   .     S
C152   O62     1.276   1_655 S
C153   C157    1.406   .     A
C153   C155    1.410   .     A
C154   C794    1.392   .     S
C155   C795    1.393   1_554 S
C156   C163    1.428   .     A
C156   C787    1.405   .     S
C157   C162    1.418   .     A
C157   C786    1.405   1_554 S
C158   N197    1.456   .     S
C158   H174    1.107   .     S
C158   H173    1.113   .     S
C158   H172    1.108   .     S
C159   N198    1.452   .     S
C159   H177    1.112   .     S
C159   H176    1.109   .     S
C159   H598    1.111   1_545 S
C160   N199    1.444   .     S
C160   H181    1.108   .     S
C160   H183    1.110   .     S
C160   H602    1.111   1_545 S
C161   N200    1.447   .     S
C161   H187    1.112   .     S
C161   H185    1.109   .     S
C161   H396    1.112   .     S
C162   N197    1.424   .     S
C162   C164    1.393   .     A
C163   N198    1.424   .     S
C163   C165    1.401   .     A
C164   H169    1.083   .     S
C164   C784    1.392   1_554 S
C165   H180    1.085   .     S
C165   C785    1.393   .     S
C166   C307    1.367   .     S
C166   N409    1.433   .     S
C167   C446    1.367   1_645 S
C167   N620    1.430   1_545 S
C168   O207    1.300   .     A
H170   N196    1.029   .     S
H171   N197    1.030   .     S
H175   N198    1.031   .     S
H178   C369    1.111   .     S
H179   N409    1.031   .     S
H182   C370    1.111   .     S
H184   N620    1.030   1_545 S
H186   C581    1.112   1_545 S
H192   C5      1.084   1_655 S
H194   N195    1.026   .     S
N195   N196    1.288   .     D
N195   Zn210   2.026   .     S
N196   Zn209   2.026   .     S
N199   C586    1.433   1_545 S
N199   H599    1.031   1_545 S
N200   C377    1.430   .     S
N200   H394    1.030   .     S
O201   Zn209   1.961   .     S
O201   C1      1.279   1_655 S
O202   Zn210   1.961   .     S
O203   Zn210   1.990   .     S
O204   Zn209   1.990   .     S
O205   Zn209   1.959   .     S
O205   C28     1.296   1_655 S
O206   Zn210   1.959   .     S
O207   Zn210   1.930   .     S
O208   Zn209   1.930   .     S
C211   O273    1.295   .     A
C211   C236    1.417   .     S
C211   O411    1.279   1_455 S
C212   C214    1.458   .     S
C212   O278    1.304   .     A
C212   O346    1.294   .     S
C213   C219    1.392   .     A
C213   C238    1.454   .     S
C213   C357    1.401   1_455 S
C214   C218    1.404   .     A
C214   C220    1.383   .     A
C215   C224    1.402   .     A
C215   C357    1.392   1_455 S
C215   H402    1.084   1_455 S
C216   C225    1.401   .     A
C216   H263    1.084   .     S
C216   C218    1.396   .     A
C217   H261    1.083   .     S
C217   C283    1.401   .     S
C217   C285    1.392   .     S
C218   H330    1.075   .     S
C219   C221    1.393   .     A
C219   H259    1.080   .     S
C220   H258    1.083   .     S
C220   C223    1.396   .     A
C221   C226    1.415   .     A
C221   C224    1.419   .     A
C222   O274    1.300   .     A
C222   C237    1.422   .     S
C222   O342    1.276   .     S
C223   C227    1.406   .     A
C223   C225    1.410   .     A
C224   C864    1.392   .     S
C225   C865    1.393   1_554 S
C226   C233    1.428   .     A
C226   C857    1.405   .     S
C227   C232    1.418   .     A
C227   C856    1.405   1_554 S
C228   N267    1.456   .     S
C228   H244    1.107   .     S
C228   H243    1.113   .     S
C228   H242    1.108   .     S
C229   N268    1.452   .     S
C229   H247    1.112   .     S
C229   H246    1.109   .     S
C230   N269    1.444   .     S
C230   H251    1.108   .     S
C230   H253    1.110   .     S
C231   N270    1.447   .     S
C231   H257    1.112   .     S
C231   H255    1.109   .     S
C231   H466    1.112   .     S
C232   N267    1.424   .     S
C232   C234    1.393   .     A
C233   N268    1.424   .     S
C233   C235    1.401   .     A
C234   H239    1.083   .     S
C234   C854    1.392   1_554 S
C235   H250    1.085   .     S
C235   C855    1.393   .     S
C236   C587    1.367   1_455 S
C236   N479    1.433   .     S
C238   O277    1.300   .     A
C238   O415    1.296   1_455 S
H240   N266    1.029   .     S
H241   N267    1.030   .     S
H245   N268    1.031   .     S
H248   C439    1.111   .     S
H249   N479    1.031   .     S
H252   C440    1.111   .     S
H260   C358    1.075   1_455 S
H262   C285    1.084   .     S
H264   N265    1.026   .     S
N265   N266    1.288   .     D
N265   Zn280   2.026   .     S
N266   Zn279   2.026   .     S
N270   C447    1.430   .     S
N270   H464    1.030   .     S
O271   Zn279   1.961   .     S
O271   C281    1.279   .     S
O272   Zn280   1.961   .     S
O272   C362    1.276   1_455 S
O273   Zn280   1.990   .     S
O274   Zn279   1.990   .     S
O275   Zn279   1.959   .     S
O275   C308    1.296   .     S
O276   Zn280   1.959   .     S
O276   C352    1.294   1_455 S
O277   Zn280   1.930   .     S
O278   Zn279   1.930   .     S
C281   O343    1.295   .     A
C281   C306    1.417   .     S
C282   C284    1.458   .     S
C282   O348    1.304   .     A
C282   O416    1.294   .     S
C283   C289    1.392   .     A
C283   C308    1.454   .     S
C284   C288    1.404   .     A
C284   C290    1.383   .     A
C285   C294    1.402   .     A
C286   C295    1.401   .     A
C286   H333    1.084   .     S
C286   C288    1.396   .     A
C287   H331    1.083   .     S
C287   C353    1.401   .     S
C287   C355    1.392   .     S
C288   H400    1.075   .     S
C289   C291    1.393   .     A
C289   H329    1.080   .     S
C290   H328    1.083   .     S
C290   C293    1.396   .     A
C291   C296    1.415   .     A
C291   C294    1.419   .     A
C292   O344    1.300   .     A
C292   C307    1.422   .     S
C292   O412    1.276   .     S
C293   C297    1.406   .     A
C293   C295    1.410   .     A
C294   C934    1.392   .     S
C295   C935    1.393   1_554 S
C296   C303    1.428   .     A
C296   C927    1.405   .     S
C297   C302    1.418   .     A
C297   C926    1.405   1_554 S
C298   N337    1.456   .     S
C298   H314    1.107   .     S
C298   H313    1.113   .     S
C298   H312    1.108   .     S
C299   N338    1.452   .     S
C299   H317    1.112   .     S
C299   H316    1.109   .     S
C300   N339    1.444   .     S
C300   H321    1.108   .     S
C300   H323    1.110   .     S
C301   N340    1.447   .     S
C301   H327    1.112   .     S
C301   H325    1.109   .     S
C301   H536    1.112   .     S
C302   N337    1.424   .     S
C302   C304    1.393   .     A
C303   N338    1.424   .     S
C303   C305    1.401   .     A
C304   H309    1.083   .     S
C304   C924    1.392   1_554 S
C305   H320    1.085   .     S
C305   C925    1.393   .     S
C306   C447    1.367   .     S
C306   N549    1.433   .     S
C308   O347    1.300   .     A
H310   N336    1.029   .     S
H311   N337    1.030   .     S
H315   N338    1.031   .     S
H318   C509    1.111   .     S
H319   N549    1.031   .     S
H322   C510    1.111   .     S
H332   C355    1.084   .     S
H334   N335    1.026   .     S
N335   N336    1.288   .     D
N335   Zn350   2.026   .     S
N336   Zn349   2.026   .     S
N340   C517    1.430   .     S
N340   H534    1.030   .     S
O341   Zn349   1.961   .     S
O341   C351    1.279   .     S
O342   Zn350   1.961   .     S
O343   Zn350   1.990   .     S
O344   Zn349   1.990   .     S
O345   Zn349   1.959   .     S
O345   C378    1.296   .     S
O346   Zn350   1.959   .     S
O347   Zn350   1.930   .     S
O348   Zn349   1.930   .     S
C351   O413    1.295   .     A
C351   C376    1.417   .     S
C352   C354    1.458   .     S
C352   O418    1.304   .     A
C352   O276    1.294   1_655 S
C353   C359    1.392   .     A
C353   C378    1.454   .     S
C354   C358    1.404   .     A
C354   C360    1.383   .     A
C355   C364    1.402   .     A
C356   C365    1.401   .     A
C356   H403    1.084   .     S
C356   C358    1.396   .     A
C357   H401    1.083   .     S
C357   C213    1.401   1_655 S
C357   C215    1.392   1_655 S
C358   H260    1.075   1_655 S
C359   C361    1.393   .     A
C359   H399    1.080   .     S
C360   H398    1.083   .     S
C360   C363    1.396   .     A
C361   C366    1.415   .     A
C361   C364    1.419   .     A
C362   O414    1.300   .     A
C362   C377    1.422   .     S
C362   O272    1.276   1_655 S
C363   C367    1.406   .     A
C363   C365    1.410   .     A
C364   C1004   1.392   .     S
C365   C1005   1.393   1_554 S
C366   C373    1.428   .     A
C366   C997    1.405   .     S
C367   C372    1.418   .     A
C367   C996    1.405   1_554 S
C368   N407    1.456   .     S
C368   H384    1.107   .     S
C368   H383    1.113   .     S
C368   H382    1.108   .     S
C369   N408    1.452   .     S
C369   H387    1.112   .     S
C369   H386    1.109   .     S
C370   N409    1.444   .     S
C370   H391    1.108   .     S
C370   H393    1.110   .     S
C371   N410    1.447   .     S
C371   H397    1.112   .     S
C371   H395    1.109   .     S
C371   H606    1.112   .     S
C372   N407    1.424   .     S
C372   C374    1.393   .     A
C373   N408    1.424   .     S
C373   C375    1.401   .     A
C374   H379    1.083   .     S
C374   C994    1.392   1_554 S
C375   H390    1.085   .     S
C375   C995    1.393   .     S
C376   C517    1.367   .     S
C376   N619    1.433   .     S
C377   C26     1.367   1_655 S
C378   O417    1.300   .     A
H380   N406    1.029   .     S
H381   N407    1.030   .     S
H385   N408    1.031   .     S
H388   C579    1.111   .     S
H389   N619    1.031   .     S
H392   C580    1.111   .     S
H402   C215    1.084   1_655 S
H404   N405    1.026   .     S
N405   N406    1.288   .     D
N405   Zn420   2.026   .     S
N406   Zn419   2.026   .     S
N410   C587    1.430   .     S
N410   H604    1.030   .     S
O411   Zn419   1.961   .     S
O411   C211    1.279   1_655 S
O412   Zn420   1.961   .     S
O413   Zn420   1.990   .     S
O414   Zn419   1.990   .     S
O415   Zn419   1.959   .     S
O415   C238    1.296   1_655 S
O416   Zn420   1.959   .     S
O417   Zn420   1.930   .     S
O418   Zn419   1.930   .     S
C421   O483    1.295   .     A
C421   C446    1.417   .     S
C421   O621    1.279   1_455 S
C422   C424    1.458   .     S
C422   O488    1.304   .     A
C422   O556    1.294   .     S
C423   C429    1.392   .     A
C423   C448    1.454   .     S
C423   C567    1.401   1_455 S
C424   C428    1.404   .     A
C424   C430    1.383   .     A
C425   C434    1.402   .     A
C425   C567    1.392   1_455 S
C425   H612    1.084   1_455 S
C426   C435    1.401   .     A
C426   H473    1.084   .     S
C426   C428    1.396   .     A
C427   H471    1.083   .     S
C427   C493    1.401   .     S
C427   C495    1.392   .     S
C428   H540    1.075   .     S
C429   C431    1.393   .     A
C429   H469    1.080   .     S
C430   H468    1.083   .     S
C430   C433    1.396   .     A
C431   C436    1.415   .     A
C431   C434    1.419   .     A
C432   O484    1.300   .     A
C432   C447    1.422   .     S
C432   O552    1.276   .     S
C433   C437    1.406   .     A
C433   C435    1.410   .     A
C434   C1074   1.392   .     S
C435   C1075   1.393   1_554 S
C436   C443    1.428   .     A
C436   C1067   1.405   .     S
C437   C442    1.418   .     A
C437   C1066   1.405   1_554 S
C438   N477    1.456   .     S
C438   H454    1.107   .     S
C438   H453    1.113   .     S
C438   H452    1.108   .     S
C439   N478    1.452   .     S
C439   H457    1.112   .     S
C439   H456    1.109   .     S
C440   N479    1.444   .     S
C440   H461    1.108   .     S
C440   H463    1.110   .     S
C441   N480    1.447   .     S
C441   H467    1.112   .     S
C441   H465    1.109   .     S
C441   H46     1.112   1_565 S
C442   N477    1.424   .     S
C442   C444    1.393   .     A
C443   N478    1.424   .     S
C443   C445    1.401   .     A
C444   H449    1.083   .     S
C444   C1064   1.392   1_554 S
C445   H460    1.085   .     S
C445   C1065   1.393   .     S
C446   C167    1.367   1_465 S
C446   N59     1.433   1_565 S
C448   O487    1.300   .     A
C448   O625    1.296   1_455 S
H450   N476    1.029   .     S
H451   N477    1.030   .     S
H455   N478    1.031   .     S
H458   C19     1.111   1_565 S
H459   N59     1.031   1_565 S
H462   C20     1.111   1_565 S
H470   C568    1.075   1_455 S
H472   C495    1.084   .     S
H474   N475    1.026   .     S
N475   N476    1.288   .     D
N475   Zn490   2.026   .     S
N476   Zn489   2.026   .     S
N480   C27     1.430   1_565 S
N480   H44     1.030   1_565 S
O481   Zn489   1.961   .     S
O481   C491    1.279   .     S
O482   Zn490   1.961   .     S
O482   C572    1.276   1_455 S
O483   Zn490   1.990   .     S
O484   Zn489   1.990   .     S
O485   Zn489   1.959   .     S
O485   C518    1.296   .     S
O486   Zn490   1.959   .     S
O486   C562    1.294   1_455 S
O487   Zn490   1.930   .     S
O488   Zn489   1.930   .     S
C491   O553    1.295   .     A
C491   C516    1.417   .     S
C492   C494    1.458   .     S
C492   O558    1.304   .     A
C492   O626    1.294   .     S
C493   C499    1.392   .     A
C493   C518    1.454   .     S
C494   C498    1.404   .     A
C494   C500    1.383   .     A
C495   C504    1.402   .     A
C496   C505    1.401   .     A
C496   H543    1.084   .     S
C496   C498    1.396   .     A
C497   H541    1.083   .     S
C497   C563    1.401   .     S
C497   C565    1.392   .     S
C498   H610    1.075   .     S
C499   C501    1.393   .     A
C499   H539    1.080   .     S
C500   H538    1.083   .     S
C500   C503    1.396   .     A
C501   C506    1.415   .     A
C501   C504    1.419   .     A
C502   O554    1.300   .     A
C502   C517    1.422   .     S
C502   O622    1.276   .     S
C503   C507    1.406   .     A
C503   C505    1.410   .     A
C504   C1144   1.392   .     S
C505   C1145   1.393   1_554 S
C506   C513    1.428   .     A
C506   C1137   1.405   .     S
C507   C512    1.418   .     A
C507   C1136   1.405   1_554 S
C508   N547    1.456   .     S
C508   H524    1.107   .     S
C508   H523    1.113   .     S
C508   H522    1.108   .     S
C509   N548    1.452   .     S
C509   H527    1.112   .     S
C509   H526    1.109   .     S
C510   N549    1.444   .     S
C510   H531    1.108   .     S
C510   H533    1.110   .     S
C511   N550    1.447   .     S
C511   H537    1.112   .     S
C511   H535    1.109   .     S
C511   H116    1.112   1_565 S
C512   N547    1.424   .     S
C512   C514    1.393   .     A
C513   N548    1.424   .     S
C513   C515    1.401   .     A
C514   H519    1.083   .     S
C514   C1134   1.392   1_554 S
C515   H530    1.085   .     S
C515   C1135   1.393   .     S
C516   C27     1.367   1_565 S
C516   N129    1.433   1_565 S
C518   O557    1.300   .     A
H520   N546    1.029   .     S
H521   N547    1.030   .     S
H525   N548    1.031   .     S
H528   C89     1.111   1_565 S
H529   N129    1.031   1_565 S
H532   C90     1.111   1_565 S
H542   C565    1.084   .     S
H544   N545    1.026   .     S
N545   N546    1.288   .     D
N545   Zn560   2.026   .     S
N546   Zn559   2.026   .     S
N550   C97     1.430   1_565 S
N550   H114    1.030   1_565 S
O551   Zn559   1.961   .     S
O551   C561    1.279   .     S
O552   Zn560   1.961   .     S
O553   Zn560   1.990   .     S
O554   Zn559   1.990   .     S
O555   Zn559   1.959   .     S
O555   C588    1.296   .     S
O556   Zn560   1.959   .     S
O557   Zn560   1.930   .     S
O558   Zn559   1.930   .     S
C561   O623    1.295   .     A
C561   C586    1.417   .     S
C562   C564    1.458   .     S
C562   O628    1.304   .     A
C562   O486    1.294   1_655 S
C563   C569    1.392   .     A
C563   C588    1.454   .     S
C564   C568    1.404   .     A
C564   C570    1.383   .     A
C565   C574    1.402   .     A
C566   C575    1.401   .     A
C566   H613    1.084   .     S
C566   C568    1.396   .     A
C567   H611    1.083   .     S
C567   C423    1.401   1_655 S
C567   C425    1.392   1_655 S
C568   H470    1.075   1_655 S
C569   C571    1.393   .     A
C569   H609    1.080   .     S
C570   H608    1.083   .     S
C570   C573    1.396   .     A
C571   C576    1.415   .     A
C571   C574    1.419   .     A
C572   O624    1.300   .     A
C572   C587    1.422   .     S
C572   O482    1.276   1_655 S
C573   C577    1.406   .     A
C573   C575    1.410   .     A
C574   C1214   1.392   .     S
C575   C1215   1.393   1_554 S
C576   C583    1.428   .     A
C576   C1207   1.405   .     S
C577   C582    1.418   .     A
C577   C1206   1.405   1_554 S
C578   N617    1.456   .     S
C578   H594    1.107   .     S
C578   H593    1.113   .     S
C578   H592    1.108   .     S
C579   N618    1.452   .     S
C579   H597    1.112   .     S
C579   H596    1.109   .     S
C580   N619    1.444   .     S
C580   H601    1.108   .     S
C580   H603    1.110   .     S
C581   N620    1.447   .     S
C581   H607    1.112   .     S
C581   H605    1.109   .     S
C581   H186    1.112   1_565 S
C582   N617    1.424   .     S
C582   C584    1.393   .     A
C583   N618    1.424   .     S
C583   C585    1.401   .     A
C584   H589    1.083   .     S
C584   C1204   1.392   1_554 S
C585   H600    1.085   .     S
C585   C1205   1.393   .     S
C586   C97     1.367   1_565 S
C586   N199    1.433   1_565 S
C587   C236    1.367   1_655 S
C588   O627    1.300   .     A
H590   N616    1.029   .     S
H591   N617    1.030   .     S
H595   N618    1.031   .     S
H598   C159    1.111   1_565 S
H599   N199    1.031   1_565 S
H602   C160    1.111   1_565 S
H612   C425    1.084   1_655 S
H614   N615    1.026   .     S
N615   N616    1.288   .     D
N615   Zn630   2.026   .     S
N616   Zn629   2.026   .     S
N620   C167    1.430   1_565 S
N620   H184    1.030   1_565 S
O621   Zn629   1.961   .     S
O621   C421    1.279   1_655 S
O622   Zn630   1.961   .     S
O623   Zn630   1.990   .     S
O624   Zn629   1.990   .     S
O625   Zn629   1.959   .     S
O625   C448    1.296   1_655 S
O626   Zn630   1.959   .     S
O627   Zn630   1.930   .     S
O628   Zn629   1.930   .     S
C631   O693    1.295   .     A
C631   C656    1.417   .     S
C631   O831    1.279   1_455 S
C632   C634    1.458   .     S
C632   O698    1.304   .     A
C632   O766    1.294   .     S
C633   C639    1.392   .     A
C633   C658    1.454   .     S
C633   C777    1.401   1_455 S
C634   C638    1.404   .     A
C634   C640    1.383   .     A
C635   C644    1.402   .     A
C635   C777    1.392   1_455 S
C635   H822    1.084   1_455 S
C636   C645    1.401   .     A
C636   H683    1.084   .     S
C636   C638    1.396   .     A
C637   H681    1.083   .     S
C637   C703    1.401   .     S
C637   C705    1.392   .     S
C638   H750    1.075   .     S
C639   C641    1.393   .     A
C639   H679    1.080   .     S
C640   H678    1.083   .     S
C640   C643    1.396   .     A
C641   C646    1.415   .     A
C641   C644    1.419   .     A
C642   O694    1.300   .     A
C642   C657    1.422   .     S
C642   O762    1.276   .     S
C643   C647    1.406   .     A
C643   C645    1.410   .     A
C644   C24     1.392   1_556 S
C646   C653    1.428   .     A
C646   C17     1.405   1_556 S
C647   C652    1.418   .     A
C648   N687    1.456   .     S
C648   H664    1.107   .     S
C648   H663    1.113   .     S
C648   H662    1.108   .     S
C649   N688    1.452   .     S
C649   H667    1.112   .     S
C649   H666    1.109   .     S
C649   H1088   1.111   1_545 S
C650   N689    1.444   .     S
C650   H671    1.108   .     S
C650   H673    1.110   .     S
C650   H1092   1.111   1_545 S
C651   N690    1.447   .     S
C651   H677    1.112   .     S
C651   H675    1.109   .     S
C651   H886    1.112   .     S
C652   N687    1.424   .     S
C652   C654    1.393   .     A
C653   N688    1.424   .     S
C653   C655    1.401   .     A
C654   H659    1.083   .     S
C655   H670    1.085   .     S
C655   C15     1.393   1_556 S
C656   C1007   1.367   1_455 S
C656   N899    1.433   .     S
C657   C1146   1.367   1_545 S
C657   N1110   1.430   1_545 S
C658   O697    1.300   .     A
C658   O835    1.296   1_455 S
H660   N686    1.029   .     S
H661   N687    1.030   .     S
H665   N688    1.031   .     S
H668   C859    1.111   .     S
H669   N899    1.031   .     S
H672   C860    1.111   .     S
H674   N1110   1.030   1_545 S
H676   C1071   1.112   1_545 S
H680   C778    1.075   1_455 S
H682   C705    1.084   .     S
H684   N685    1.026   .     S
N685   N686    1.288   .     D
N685   Zn700   2.026   .     S
N686   Zn699   2.026   .     S
N689   C1076   1.433   1_545 S
N689   H1089   1.031   1_545 S
N690   C867    1.430   .     S
N690   H884    1.030   .     S
O691   Zn699   1.961   .     S
O691   C701    1.279   .     S
O692   Zn700   1.961   .     S
O692   C782    1.276   1_455 S
O693   Zn700   1.990   .     S
O694   Zn699   1.990   .     S
O695   Zn699   1.959   .     S
O695   C728    1.296   .     S
O696   Zn700   1.959   .     S
O696   C772    1.294   1_455 S
O697   Zn700   1.930   .     S
O698   Zn699   1.930   .     S
C701   O763    1.295   .     A
C701   C726    1.417   .     S
C702   C704    1.458   .     S
C702   O768    1.304   .     A
C702   O836    1.294   .     S
C703   C709    1.392   .     A
C703   C728    1.454   .     S
C704   C708    1.404   .     A
C704   C710    1.383   .     A
C705   C714    1.402   .     A
C706   C715    1.401   .     A
C706   H753    1.084   .     S
C706   C708    1.396   .     A
C707   H751    1.083   .     S
C707   C773    1.401   .     S
C707   C775    1.392   .     S
C708   H820    1.075   .     S
C709   C711    1.393   .     A
C709   H749    1.080   .     S
C710   H748    1.083   .     S
C710   C713    1.396   .     A
C711   C716    1.415   .     A
C711   C714    1.419   .     A
C712   O764    1.300   .     A
C712   C727    1.422   .     S
C712   O832    1.276   .     S
C713   C717    1.406   .     A
C713   C715    1.410   .     A
C714   C94     1.392   1_556 S
C716   C723    1.428   .     A
C716   C87     1.405   1_556 S
C717   C722    1.418   .     A
C718   N757    1.456   .     S
C718   H734    1.107   .     S
C718   H733    1.113   .     S
C718   H732    1.108   .     S
C719   N758    1.452   .     S
C719   H737    1.112   .     S
C719   H736    1.109   .     S
C719   H1158   1.111   1_545 S
C720   N759    1.444   .     S
C720   H741    1.108   .     S
C720   H743    1.110   .     S
C720   H1162   1.111   1_545 S
C721   N760    1.447   .     S
C721   H747    1.112   .     S
C721   H745    1.109   .     S
C721   H956    1.112   .     S
C722   N757    1.424   .     S
C722   C724    1.393   .     A
C723   N758    1.424   .     S
C723   C725    1.401   .     A
C724   H729    1.083   .     S
C725   H740    1.085   .     S
C725   C85     1.393   1_556 S
C726   C867    1.367   .     S
C726   N969    1.433   .     S
C727   C1216   1.367   1_545 S
C727   N1180   1.430   1_545 S
C728   O767    1.300   .     A
H730   N756    1.029   .     S
H731   N757    1.030   .     S
H735   N758    1.031   .     S
H738   C929    1.111   .     S
H739   N969    1.031   .     S
H742   C930    1.111   .     S
H744   N1180   1.030   1_545 S
H746   C1141   1.112   1_545 S
H752   C775    1.084   .     S
H754   N755    1.026   .     S
N755   N756    1.288   .     D
N755   Zn770   2.026   .     S
N756   Zn769   2.026   .     S
N759   C1146   1.433   1_545 S
N759   H1159   1.031   1_545 S
N760   C937    1.430   .     S
N760   H954    1.030   .     S
O761   Zn769   1.961   .     S
O761   C771    1.279   .     S
O762   Zn770   1.961   .     S
O763   Zn770   1.990   .     S
O764   Zn769   1.990   .     S
O765   Zn769   1.959   .     S
O765   C798    1.296   .     S
O766   Zn770   1.959   .     S
O767   Zn770   1.930   .     S
O768   Zn769   1.930   .     S
C771   O833    1.295   .     A
C771   C796    1.417   .     S
C772   C774    1.458   .     S
C772   O838    1.304   .     A
C772   O696    1.294   1_655 S
C773   C779    1.392   .     A
C773   C798    1.454   .     S
C774   C778    1.404   .     A
C774   C780    1.383   .     A
C775   C784    1.402   .     A
C776   C785    1.401   .     A
C776   H823    1.084   .     S
C776   C778    1.396   .     A
C777   H821    1.083   .     S
C777   C633    1.401   1_655 S
C777   C635    1.392   1_655 S
C778   H680    1.075   1_655 S
C779   C781    1.393   .     A
C779   H819    1.080   .     S
C780   H818    1.083   .     S
C780   C783    1.396   .     A
C781   C786    1.415   .     A
C781   C784    1.419   .     A
C782   O834    1.300   .     A
C782   C797    1.422   .     S
C782   O692    1.276   1_655 S
C783   C787    1.406   .     A
C783   C785    1.410   .     A
C784   C164    1.392   1_556 S
C786   C793    1.428   .     A
C786   C157    1.405   1_556 S
C787   C792    1.418   .     A
C788   N827    1.456   .     S
C788   H804    1.107   .     S
C788   H803    1.113   .     S
C788   H802    1.108   .     S
C789   N828    1.452   .     S
C789   H807    1.112   .     S
C789   H806    1.109   .     S
C789   H1228   1.111   1_545 S
C790   N829    1.444   .     S
C790   H811    1.108   .     S
C790   H813    1.110   .     S
C790   H1232   1.111   1_545 S
C791   N830    1.447   .     S
C791   H817    1.112   .     S
C791   H815    1.109   .     S
C791   H1026   1.112   .     S
C792   N827    1.424   .     S
C792   C794    1.393   .     A
C793   N828    1.424   .     S
C793   C795    1.401   .     A
C794   H799    1.083   .     S
C795   H810    1.085   .     S
C795   C155    1.393   1_556 S
C796   C937    1.367   .     S
C796   N1039   1.433   .     S
C797   C1076   1.367   1_645 S
C797   N1250   1.430   1_545 S
C798   O837    1.300   .     A
H800   N826    1.029   .     S
H801   N827    1.030   .     S
H805   N828    1.031   .     S
H808   C999    1.111   .     S
H809   N1039   1.031   .     S
H812   C1000   1.111   .     S
H814   N1250   1.030   1_545 S
H816   C1211   1.112   1_545 S
H822   C635    1.084   1_655 S
H824   N825    1.026   .     S
N825   N826    1.288   .     D
N825   Zn840   2.026   .     S
N826   Zn839   2.026   .     S
N829   C1216   1.433   1_545 S
N829   H1229   1.031   1_545 S
N830   C1007   1.430   .     S
N830   H1024   1.030   .     S
O831   Zn839   1.961   .     S
O831   C631    1.279   1_655 S
O832   Zn840   1.961   .     S
O833   Zn840   1.990   .     S
O834   Zn839   1.990   .     S
O835   Zn839   1.959   .     S
O835   C658    1.296   1_655 S
O836   Zn840   1.959   .     S
O837   Zn840   1.930   .     S
O838   Zn839   1.930   .     S
C841   O903    1.295   .     A
C841   C866    1.417   .     S
C841   O1041   1.279   1_455 S
C842   C844    1.458   .     S
C842   O908    1.304   .     A
C842   O976    1.294   .     S
C843   C849    1.392   .     A
C843   C868    1.454   .     S
C843   C987    1.401   1_455 S
C844   C848    1.404   .     A
C844   C850    1.383   .     A
C845   C854    1.402   .     A
C845   C987    1.392   1_455 S
C845   H1032   1.084   1_455 S
C846   C855    1.401   .     A
C846   H893    1.084   .     S
C846   C848    1.396   .     A
C847   H891    1.083   .     S
C847   C913    1.401   .     S
C847   C915    1.392   .     S
C848   H960    1.075   .     S
C849   C851    1.393   .     A
C849   H889    1.080   .     S
C850   H888    1.083   .     S
C850   C853    1.396   .     A
C851   C856    1.415   .     A
C851   C854    1.419   .     A
C852   O904    1.300   .     A
C852   C867    1.422   .     S
C852   O972    1.276   .     S
C853   C857    1.406   .     A
C853   C855    1.410   .     A
C854   C234    1.392   1_556 S
C856   C863    1.428   .     A
C856   C227    1.405   1_556 S
C857   C862    1.418   .     A
C858   N897    1.456   .     S
C858   H874    1.107   .     S
C858   H873    1.113   .     S
C858   H872    1.108   .     S
C859   N898    1.452   .     S
C859   H877    1.112   .     S
C859   H876    1.109   .     S
C860   N899    1.444   .     S
C860   H881    1.108   .     S
C860   H883    1.110   .     S
C861   N900    1.447   .     S
C861   H887    1.112   .     S
C861   H885    1.109   .     S
C861   H1096   1.112   .     S
C862   N897    1.424   .     S
C862   C864    1.393   .     A
C863   N898    1.424   .     S
C863   C865    1.401   .     A
C864   H869    1.083   .     S
C865   H880    1.085   .     S
C865   C225    1.393   1_556 S
C866   C1217   1.367   1_455 S
C866   N1109   1.433   .     S
C868   O907    1.300   .     A
C868   O1045   1.296   1_455 S
H870   N896    1.029   .     S
H871   N897    1.030   .     S
H875   N898    1.031   .     S
H878   C1069   1.111   .     S
H879   N1109   1.031   .     S
H882   C1070   1.111   .     S
H890   C988    1.075   1_455 S
H892   C915    1.084   .     S
H894   N895    1.026   .     S
N895   N896    1.288   .     D
N895   Zn910   2.026   .     S
N896   Zn909   2.026   .     S
N900   C1077   1.430   .     S
N900   H1094   1.030   .     S
O901   Zn909   1.961   .     S
O901   C911    1.279   .     S
O902   Zn910   1.961   .     S
O902   C992    1.276   1_455 S
O903   Zn910   1.990   .     S
O904   Zn909   1.990   .     S
O905   Zn909   1.959   .     S
O905   C938    1.296   .     S
O906   Zn910   1.959   .     S
O906   C982    1.294   1_455 S
O907   Zn910   1.930   .     S
O908   Zn909   1.930   .     S
C911   O973    1.295   .     A
C911   C936    1.417   .     S
C912   C914    1.458   .     S
C912   O978    1.304   .     A
C912   O1046   1.294   .     S
C913   C919    1.392   .     A
C913   C938    1.454   .     S
C914   C918    1.404   .     A
C914   C920    1.383   .     A
C915   C924    1.402   .     A
C916   C925    1.401   .     A
C916   H963    1.084   .     S
C916   C918    1.396   .     A
C917   H961    1.083   .     S
C917   C983    1.401   .     S
C917   C985    1.392   .     S
C918   H1030   1.075   .     S
C919   C921    1.393   .     A
C919   H959    1.080   .     S
C920   H958    1.083   .     S
C920   C923    1.396   .     A
C921   C926    1.415   .     A
C921   C924    1.419   .     A
C922   O974    1.300   .     A
C922   C937    1.422   .     S
C922   O1042   1.276   .     S
C923   C927    1.406   .     A
C923   C925    1.410   .     A
C924   C304    1.392   1_556 S
C926   C933    1.428   .     A
C926   C297    1.405   1_556 S
C927   C932    1.418   .     A
C928   N967    1.456   .     S
C928   H944    1.107   .     S
C928   H943    1.113   .     S
C928   H942    1.108   .     S
C929   N968    1.452   .     S
C929   H947    1.112   .     S
C929   H946    1.109   .     S
C930   N969    1.444   .     S
C930   H951    1.108   .     S
C930   H953    1.110   .     S
C931   N970    1.447   .     S
C931   H957    1.112   .     S
C931   H955    1.109   .     S
C931   H1166   1.112   .     S
C932   N967    1.424   .     S
C932   C934    1.393   .     A
C933   N968    1.424   .     S
C933   C935    1.401   .     A
C934   H939    1.083   .     S
C935   H950    1.085   .     S
C935   C295    1.393   1_556 S
C936   C1077   1.367   .     S
C936   N1179   1.433   .     S
C938   O977    1.300   .     A
H940   N966    1.029   .     S
H941   N967    1.030   .     S
H945   N968    1.031   .     S
H948   C1139   1.111   .     S
H949   N1179   1.031   .     S
H952   C1140   1.111   .     S
H962   C985    1.084   .     S
H964   N965    1.026   .     S
N965   N966    1.288   .     D
N965   Zn980   2.026   .     S
N966   Zn979   2.026   .     S
N970   C1147   1.430   .     S
N970   H1164   1.030   .     S
O971   Zn979   1.961   .     S
O971   C981    1.279   .     S
O972   Zn980   1.961   .     S
O973   Zn980   1.990   .     S
O974   Zn979   1.990   .     S
O975   Zn979   1.959   .     S
O975   C1008   1.296   .     S
O976   Zn980   1.959   .     S
O977   Zn980   1.930   .     S
O978   Zn979   1.930   .     S
C981   O1043   1.295   .     A
C981   C1006   1.417   .     S
C982   C984    1.458   .     S
C982   O1048   1.304   .     A
C982   O906    1.294   1_655 S
C983   C989    1.392   .     A
C983   C1008   1.454   .     S
C984   C988    1.404   .     A
C984   C990    1.383   .     A
C985   C994    1.402   .     A
C986   C995    1.401   .     A
C986   H1033   1.084   .     S
C986   C988    1.396   .     A
C987   H1031   1.083   .     S
C987   C843    1.401   1_655 S
C987   C845    1.392   1_655 S
C988   H890    1.075   1_655 S
C989   C991    1.393   .     A
C989   H1029   1.080   .     S
C990   H1028   1.083   .     S
C990   C993    1.396   .     A
C991   C996    1.415   .     A
C991   C994    1.419   .     A
C992   O1044   1.300   .     A
C992   C1007   1.422   .     S
C992   O902    1.276   1_655 S
C993   C997    1.406   .     A
C993   C995    1.410   .     A
C994   C374    1.392   1_556 S
C996   C1003   1.428   .     A
C996   C367    1.405   1_556 S
C997   C1002   1.418   .     A
C998   N1037   1.456   .     S
C998   H1014   1.107   .     S
C998   H1013   1.113   .     S
C998   H1012   1.108   .     S
C999   N1038   1.452   .     S
C999   H1017   1.112   .     S
C999   H1016   1.109   .     S
C1000  N1039   1.444   .     S
C1000  H1021   1.108   .     S
C1000  H1023   1.110   .     S
C1001  N1040   1.447   .     S
C1001  H1027   1.112   .     S
C1001  H1025   1.109   .     S
C1001  H1236   1.112   .     S
C1002  N1037   1.424   .     S
C1002  C1004   1.393   .     A
C1003  N1038   1.424   .     S
C1003  C1005   1.401   .     A
C1004  H1009   1.083   .     S
C1005  H1020   1.085   .     S
C1005  C365    1.393   1_556 S
C1006  C1147   1.367   .     S
C1006  N1249   1.433   .     S
C1007  C656    1.367   1_655 S
C1008  O1047   1.300   .     A
H1010  N1036   1.029   .     S
H1011  N1037   1.030   .     S
H1015  N1038   1.031   .     S
H1018  C1209   1.111   .     S
H1019  N1249   1.031   .     S
H1022  C1210   1.111   .     S
H1032  C845    1.084   1_655 S
H1034  N1035   1.026   .     S
N1035  N1036   1.288   .     D
N1035  Zn1050  2.026   .     S
N1036  Zn1049  2.026   .     S
N1040  C1217   1.430   .     S
N1040  H1234   1.030   .     S
O1041  Zn1049  1.961   .     S
O1041  C841    1.279   1_655 S
O1042  Zn1050  1.961   .     S
O1043  Zn1050  1.990   .     S
O1044  Zn1049  1.990   .     S
O1045  Zn1049  1.959   .     S
O1045  C868    1.296   1_655 S
O1046  Zn1050  1.959   .     S
O1047  Zn1050  1.930   .     S
O1048  Zn1049  1.930   .     S
C1051  O1113   1.295   .     A
C1051  C1076   1.417   .     S
C1051  O1251   1.279   1_455 S
C1052  C1054   1.458   .     S
C1052  O1118   1.304   .     A
C1052  O1186   1.294   .     S
C1053  C1059   1.392   .     A
C1053  C1078   1.454   .     S
C1053  C1197   1.401   1_455 S
C1054  C1058   1.404   .     A
C1054  C1060   1.383   .     A
C1055  C1064   1.402   .     A
C1055  C1197   1.392   1_455 S
C1055  H1242   1.084   1_455 S
C1056  C1065   1.401   .     A
C1056  H1103   1.084   .     S
C1056  C1058   1.396   .     A
C1057  H1101   1.083   .     S
C1057  C1123   1.401   .     S
C1057  C1125   1.392   .     S
C1058  H1170   1.075   .     S
C1059  C1061   1.393   .     A
C1059  H1099   1.080   .     S
C1060  H1098   1.083   .     S
C1060  C1063   1.396   .     A
C1061  C1066   1.415   .     A
C1061  C1064   1.419   .     A
C1062  O1114   1.300   .     A
C1062  C1077   1.422   .     S
C1062  O1182   1.276   .     S
C1063  C1067   1.406   .     A
C1063  C1065   1.410   .     A
C1064  C444    1.392   1_556 S
C1066  C1073   1.428   .     A
C1066  C437    1.405   1_556 S
C1067  C1072   1.418   .     A
C1068  N1107   1.456   .     S
C1068  H1084   1.107   .     S
C1068  H1083   1.113   .     S
C1068  H1082   1.108   .     S
C1069  N1108   1.452   .     S
C1069  H1087   1.112   .     S
C1069  H1086   1.109   .     S
C1070  N1109   1.444   .     S
C1070  H1091   1.108   .     S
C1070  H1093   1.110   .     S
C1071  N1110   1.447   .     S
C1071  H1097   1.112   .     S
C1071  H1095   1.109   .     S
C1071  H676    1.112   1_565 S
C1072  N1107   1.424   .     S
C1072  C1074   1.393   .     A
C1073  N1108   1.424   .     S
C1073  C1075   1.401   .     A
C1074  H1079   1.083   .     S
C1075  H1090   1.085   .     S
C1075  C435    1.393   1_556 S
C1076  C797    1.367   1_465 S
C1076  N689    1.433   1_565 S
C1078  O1117   1.300   .     A
C1078  O1255   1.296   1_455 S
H1080  N1106   1.029   .     S
H1081  N1107   1.030   .     S
H1085  N1108   1.031   .     S
H1088  C649    1.111   1_565 S
H1089  N689    1.031   1_565 S
H1092  C650    1.111   1_565 S
H1100  C1198   1.075   1_455 S
H1102  C1125   1.084   .     S
H1104  N1105   1.026   .     S
N1105  N1106   1.288   .     D
N1105  Zn1120  2.026   .     S
N1106  Zn1119  2.026   .     S
N1110  C657    1.430   1_565 S
N1110  H674    1.030   1_565 S
O1111  Zn1119  1.961   .     S
O1111  C1121   1.279   .     S
O1112  Zn1120  1.961   .     S
O1112  C1202   1.276   1_455 S
O1113  Zn1120  1.990   .     S
O1114  Zn1119  1.990   .     S
O1115  Zn1119  1.959   .     S
O1115  C1148   1.296   .     S
O1116  Zn1120  1.959   .     S
O1116  C1192   1.294   1_455 S
O1117  Zn1120  1.930   .     S
O1118  Zn1119  1.930   .     S
C1121  O1183   1.295   .     A
C1121  C1146   1.417   .     S
C1122  C1124   1.458   .     S
C1122  O1188   1.304   .     A
C1122  O1256   1.294   .     S
C1123  C1129   1.392   .     A
C1123  C1148   1.454   .     S
C1124  C1128   1.404   .     A
C1124  C1130   1.383   .     A
C1125  C1134   1.402   .     A
C1126  C1135   1.401   .     A
C1126  H1173   1.084   .     S
C1126  C1128   1.396   .     A
C1127  H1171   1.083   .     S
C1127  C1193   1.401   .     S
C1127  C1195   1.392   .     S
C1128  H1240   1.075   .     S
C1129  C1131   1.393   .     A
C1129  H1169   1.080   .     S
C1130  H1168   1.083   .     S
C1130  C1133   1.396   .     A
C1131  C1136   1.415   .     A
C1131  C1134   1.419   .     A
C1132  O1184   1.300   .     A
C1132  C1147   1.422   .     S
C1132  O1252   1.276   .     S
C1133  C1137   1.406   .     A
C1133  C1135   1.410   .     A
C1134  C514    1.392   1_556 S
C1136  C1143   1.428   .     A
C1136  C507    1.405   1_556 S
C1137  C1142   1.418   .     A
C1138  N1177   1.456   .     S
C1138  H1154   1.107   .     S
C1138  H1153   1.113   .     S
C1138  H1152   1.108   .     S
C1139  N1178   1.452   .     S
C1139  H1157   1.112   .     S
C1139  H1156   1.109   .     S
C1140  N1179   1.444   .     S
C1140  H1161   1.108   .     S
C1140  H1163   1.110   .     S
C1141  N1180   1.447   .     S
C1141  H1167   1.112   .     S
C1141  H1165   1.109   .     S
C1141  H746    1.112   1_565 S
C1142  N1177   1.424   .     S
C1142  C1144   1.393   .     A
C1143  N1178   1.424   .     S
C1143  C1145   1.401   .     A
C1144  H1149   1.083   .     S
C1145  H1160   1.085   .     S
C1145  C505    1.393   1_556 S
C1146  C657    1.367   1_565 S
C1146  N759    1.433   1_565 S
C1148  O1187   1.300   .     A
H1150  N1176   1.029   .     S
H1151  N1177   1.030   .     S
H1155  N1178   1.031   .     S
H1158  C719    1.111   1_565 S
H1159  N759    1.031   1_565 S
H1162  C720    1.111   1_565 S
H1172  C1195   1.084   .     S
H1174  N1175   1.026   .     S
N1175  N1176   1.288   .     D
N1175  Zn1190  2.026   .     S
N1176  Zn1189  2.026   .     S
N1180  C727    1.430   1_565 S
N1180  H744    1.030   1_565 S
O1181  Zn1189  1.961   .     S
O1181  C1191   1.279   .     S
O1182  Zn1190  1.961   .     S
O1183  Zn1190  1.990   .     S
O1184  Zn1189  1.990   .     S
O1185  Zn1189  1.959   .     S
O1185  C1218   1.296   .     S
O1186  Zn1190  1.959   .     S
O1187  Zn1190  1.930   .     S
O1188  Zn1189  1.930   .     S
C1191  O1253   1.295   .     A
C1191  C1216   1.417   .     S
C1192  C1194   1.458   .     S
C1192  O1258   1.304   .     A
C1192  O1116   1.294   1_655 S
C1193  C1199   1.392   .     A
C1193  C1218   1.454   .     S
C1194  C1198   1.404   .     A
C1194  C1200   1.383   .     A
C1195  C1204   1.402   .     A
C1196  C1205   1.401   .     A
C1196  H1243   1.084   .     S
C1196  C1198   1.396   .     A
C1197  H1241   1.083   .     S
C1197  C1053   1.401   1_655 S
C1197  C1055   1.392   1_655 S
C1198  H1100   1.075   1_655 S
C1199  C1201   1.393   .     A
C1199  H1239   1.080   .     S
C1200  H1238   1.083   .     S
C1200  C1203   1.396   .     A
C1201  C1206   1.415   .     A
C1201  C1204   1.419   .     A
C1202  O1254   1.300   .     A
C1202  C1217   1.422   .     S
C1202  O1112   1.276   1_655 S
C1203  C1207   1.406   .     A
C1203  C1205   1.410   .     A
C1204  C584    1.392   1_556 S
C1206  C1213   1.428   .     A
C1206  C577    1.405   1_556 S
C1207  C1212   1.418   .     A
C1208  N1247   1.456   .     S
C1208  H1224   1.107   .     S
C1208  H1223   1.113   .     S
C1208  H1222   1.108   .     S
C1209  N1248   1.452   .     S
C1209  H1227   1.112   .     S
C1209  H1226   1.109   .     S
C1210  N1249   1.444   .     S
C1210  H1231   1.108   .     S
C1210  H1233   1.110   .     S
C1211  N1250   1.447   .     S
C1211  H1237   1.112   .     S
C1211  H1235   1.109   .     S
C1211  H816    1.112   1_565 S
C1212  N1247   1.424   .     S
C1212  C1214   1.393   .     A
C1213  N1248   1.424   .     S
C1213  C1215   1.401   .     A
C1214  H1219   1.083   .     S
C1215  H1230   1.085   .     S
C1215  C575    1.393   1_556 S
C1216  C727    1.367   1_565 S
C1216  N829    1.433   1_565 S
C1217  C866    1.367   1_655 S
C1218  O1257   1.300   .     A
H1220  N1246   1.029   .     S
H1221  N1247   1.030   .     S
H1225  N1248   1.031   .     S
H1228  C789    1.111   1_565 S
H1229  N829    1.031   1_565 S
H1232  C790    1.111   1_565 S
H1242  C1055   1.084   1_655 S
H1244  N1245   1.026   .     S
N1245  N1246   1.288   .     D
N1245  Zn1260  2.026   .     S
N1246  Zn1259  2.026   .     S
N1250  C797    1.430   1_565 S
N1250  H814    1.030   1_565 S
O1251  Zn1259  1.961   .     S
O1251  C1051   1.279   1_655 S
O1252  Zn1260  1.961   .     S
O1253  Zn1260  1.990   .     S
O1254  Zn1259  1.990   .     S
O1255  Zn1259  1.959   .     S
O1255  C1078   1.296   1_655 S
O1256  Zn1260  1.959   .     S
O1257  Zn1260  1.930   .     S
O1258  Zn1259  1.930   .     S
