data_str_m3_o1_o10_pcu_sym.107
_audit_creation_date              2020-01-03
_audit_creation_method            'Materials Studio'
_symmetry_space_group_name_H-M    'P1'
_symmetry_Int_Tables_number       1
_symmetry_cell_setting            triclinic
loop_
_symmetry_equiv_pos_as_xyz
  x,y,z
_cell_length_a                    25.7730
_cell_length_b                    32.0096
_cell_length_c                    29.5690
_cell_angle_alpha                 89.8238
_cell_angle_beta                  98.6307
_cell_angle_gamma                 90.1988
loop_
_atom_site_label
_atom_site_type_symbol
_atom_site_fract_x
_atom_site_fract_y
_atom_site_fract_z
_atom_site_U_iso_or_equiv
_atom_site_adp_type
_atom_site_occupancy
C1     C     0.16762   0.08675   0.16687   0.00000  Uiso   1.00
C2     C     0.16571   0.24658   0.16647   0.00000  Uiso   1.00
C3     C     0.06704   0.16667   0.15470   0.00000  Uiso   1.00
C4     C     0.26629   0.16666   0.17864   0.00000  Uiso   1.00
C5     C     0.01200   0.16676   0.14826   0.00000  Uiso   1.00
C6     C     0.32133   0.16658   0.18507   0.00000  Uiso   1.00
C7     C     0.13452   0.02233   0.13264   0.00000  Uiso   1.00
C8     C     0.19881   0.31100   0.20070   0.00000  Uiso   1.00
C9     C     0.13261   0.31275   0.13198   0.00000  Uiso   1.00
C10    C     0.20073   0.02058   0.20135   0.00000  Uiso   1.00
C11    C     0.16521   0.29073   0.16622   0.00000  Uiso   1.00
C12    C     0.16813   0.04260   0.16712   0.00000  Uiso   1.00
C13    C     0.19901   0.19290   0.02809   0.00000  Uiso   1.00
C14    C     0.13432   0.14043   0.30524   0.00000  Uiso   1.00
C15    C     0.19899   0.19289   0.31350   0.00000  Uiso   1.00
C16    C     0.13434   0.14044   0.01984   0.00000  Uiso   1.00
H17    H     0.10917   0.04006   0.10688   0.00000  Uiso   1.00
H18    H     0.22417   0.29328   0.22645   0.00000  Uiso   1.00
H19    H     0.22489   0.21388   0.04953   0.00000  Uiso   1.00
H20    H     0.10844   0.11945   0.28380   0.00000  Uiso   1.00
H21    H     0.22486   0.21387   0.29867   0.00000  Uiso   1.00
H22    H     0.10848   0.11946   0.03466   0.00000  Uiso   1.00
N23    N     0.16665   0.16666   0.28573   0.00000  Uiso   1.00
N24    N     0.16668   0.16668   0.04760   0.00000  Uiso   1.00
O25    O     0.16666   0.10558   0.20487   0.00000  Uiso   1.00
O26    O     0.16667   0.22775   0.12846   0.00000  Uiso   1.00
O27    O     0.16666   0.10559   0.12843   0.00000  Uiso   1.00
O28    O     0.16667   0.22774   0.20490   0.00000  Uiso   1.00
O29    O     0.09058   0.16666   0.19595   0.00000  Uiso   1.00
O30    O     0.24275   0.16667   0.13739   0.00000  Uiso   1.00
O31    O     0.09058   0.16667   0.11950   0.00000  Uiso   1.00
O32    O     0.24275   0.16666   0.21383   0.00000  Uiso   1.00
Zn33   Zn    0.16667   0.16666   0.21771   0.00000  Uiso   1.00
Zn34   Zn    0.16667   0.16667   0.11563   0.00000  Uiso   1.00
H35    H     0.32472   0.16699   0.11334   0.00000  Uiso   1.00
H36    H     0.00862   0.16634   0.21999   0.00000  Uiso   1.00
C37    C     0.09580   0.29228   0.09720   0.00000  Uiso   1.00
N38    N     0.06635   0.27589   0.06941   0.00000  Uiso   1.00
C39    C     0.23754   0.04105   0.23613   0.00000  Uiso   1.00
N40    N     0.26698   0.05745   0.26393   0.00000  Uiso   1.00
C41    C     0.50095   0.08675   0.16687   0.00000  Uiso   1.00
C42    C     0.49905   0.24658   0.16647   0.00000  Uiso   1.00
C43    C     0.40038   0.16667   0.15470   0.00000  Uiso   1.00
C44    C     0.59962   0.16666   0.17864   0.00000  Uiso   1.00
C45    C     0.34534   0.16676   0.14826   0.00000  Uiso   1.00
C46    C     0.65467   0.16658   0.18507   0.00000  Uiso   1.00
C47    C     0.46785   0.02233   0.13264   0.00000  Uiso   1.00
C48    C     0.53215   0.31100   0.20070   0.00000  Uiso   1.00
C49    C     0.46594   0.31275   0.13198   0.00000  Uiso   1.00
C50    C     0.53406   0.02058   0.20135   0.00000  Uiso   1.00
C51    C     0.49854   0.29073   0.16622   0.00000  Uiso   1.00
C52    C     0.50146   0.04260   0.16712   0.00000  Uiso   1.00
C53    C     0.53234   0.19290   0.02809   0.00000  Uiso   1.00
C54    C     0.46766   0.14043   0.30524   0.00000  Uiso   1.00
C55    C     0.53233   0.19289   0.31350   0.00000  Uiso   1.00
C56    C     0.46767   0.14044   0.01984   0.00000  Uiso   1.00
H57    H     0.44250   0.04006   0.10688   0.00000  Uiso   1.00
H58    H     0.55750   0.29328   0.22645   0.00000  Uiso   1.00
H59    H     0.55823   0.21388   0.04953   0.00000  Uiso   1.00
H60    H     0.44177   0.11945   0.28380   0.00000  Uiso   1.00
H61    H     0.55819   0.21387   0.29867   0.00000  Uiso   1.00
H62    H     0.44181   0.11946   0.03466   0.00000  Uiso   1.00
N63    N     0.49999   0.16666   0.28573   0.00000  Uiso   1.00
N64    N     0.50001   0.16668   0.04760   0.00000  Uiso   1.00
O65    O     0.50000   0.10558   0.20487   0.00000  Uiso   1.00
O66    O     0.50000   0.22775   0.12846   0.00000  Uiso   1.00
O67    O     0.50000   0.10559   0.12843   0.00000  Uiso   1.00
O68    O     0.50000   0.22774   0.20490   0.00000  Uiso   1.00
O69    O     0.42392   0.16666   0.19595   0.00000  Uiso   1.00
O70    O     0.57608   0.16667   0.13739   0.00000  Uiso   1.00
O71    O     0.42392   0.16667   0.11950   0.00000  Uiso   1.00
O72    O     0.57608   0.16666   0.21383   0.00000  Uiso   1.00
Zn73   Zn    0.50000   0.16666   0.21771   0.00000  Uiso   1.00
Zn74   Zn    0.50000   0.16667   0.11563   0.00000  Uiso   1.00
H75    H     0.65805   0.16699   0.11334   0.00000  Uiso   1.00
H76    H     0.34195   0.16634   0.21999   0.00000  Uiso   1.00
C77    C     0.42913   0.29228   0.09720   0.00000  Uiso   1.00
N78    N     0.39969   0.27589   0.06941   0.00000  Uiso   1.00
C79    C     0.57087   0.04105   0.23613   0.00000  Uiso   1.00
N80    N     0.60031   0.05745   0.26393   0.00000  Uiso   1.00
C81    C     0.83429   0.08675   0.16687   0.00000  Uiso   1.00
C82    C     0.83238   0.24658   0.16647   0.00000  Uiso   1.00
C83    C     0.73371   0.16667   0.15470   0.00000  Uiso   1.00
C84    C     0.93296   0.16666   0.17864   0.00000  Uiso   1.00
C85    C     0.67867   0.16676   0.14826   0.00000  Uiso   1.00
C86    C     0.98800   0.16658   0.18507   0.00000  Uiso   1.00
C87    C     0.80119   0.02233   0.13264   0.00000  Uiso   1.00
C88    C     0.86548   0.31100   0.20070   0.00000  Uiso   1.00
C89    C     0.79927   0.31275   0.13198   0.00000  Uiso   1.00
C90    C     0.86739   0.02058   0.20135   0.00000  Uiso   1.00
C91    C     0.83187   0.29073   0.16622   0.00000  Uiso   1.00
C92    C     0.83479   0.04260   0.16712   0.00000  Uiso   1.00
C93    C     0.86568   0.19290   0.02809   0.00000  Uiso   1.00
C94    C     0.80099   0.14043   0.30524   0.00000  Uiso   1.00
C95    C     0.86566   0.19289   0.31350   0.00000  Uiso   1.00
C96    C     0.80101   0.14044   0.01984   0.00000  Uiso   1.00
H97    H     0.77583   0.04006   0.10688   0.00000  Uiso   1.00
H98    H     0.89083   0.29328   0.22645   0.00000  Uiso   1.00
H99    H     0.89156   0.21388   0.04953   0.00000  Uiso   1.00
H100   H     0.77511   0.11945   0.28380   0.00000  Uiso   1.00
H101   H     0.89152   0.21387   0.29867   0.00000  Uiso   1.00
H102   H     0.77514   0.11946   0.03466   0.00000  Uiso   1.00
N103   N     0.83332   0.16666   0.28573   0.00000  Uiso   1.00
N104   N     0.83335   0.16668   0.04760   0.00000  Uiso   1.00
O105   O     0.83333   0.10558   0.20487   0.00000  Uiso   1.00
O106   O     0.83334   0.22775   0.12846   0.00000  Uiso   1.00
O107   O     0.83333   0.10559   0.12843   0.00000  Uiso   1.00
O108   O     0.83334   0.22774   0.20490   0.00000  Uiso   1.00
O109   O     0.75725   0.16666   0.19595   0.00000  Uiso   1.00
O110   O     0.90942   0.16667   0.13739   0.00000  Uiso   1.00
O111   O     0.75725   0.16667   0.11950   0.00000  Uiso   1.00
O112   O     0.90942   0.16666   0.21383   0.00000  Uiso   1.00
Zn113  Zn    0.83333   0.16666   0.21771   0.00000  Uiso   1.00
Zn114  Zn    0.83333   0.16667   0.11563   0.00000  Uiso   1.00
H115   H     0.99138   0.16699   0.11334   0.00000  Uiso   1.00
H116   H     0.67528   0.16634   0.21999   0.00000  Uiso   1.00
C117   C     0.76246   0.29228   0.09720   0.00000  Uiso   1.00
N118   N     0.73302   0.27589   0.06941   0.00000  Uiso   1.00
C119   C     0.90420   0.04105   0.23613   0.00000  Uiso   1.00
N120   N     0.93365   0.05745   0.26393   0.00000  Uiso   1.00
C121   C     0.16762   0.42009   0.16687   0.00000  Uiso   1.00
C122   C     0.16571   0.57991   0.16647   0.00000  Uiso   1.00
C123   C     0.06704   0.50001   0.15470   0.00000  Uiso   1.00
C124   C     0.26629   0.49999   0.17864   0.00000  Uiso   1.00
C125   C     0.01200   0.50009   0.14826   0.00000  Uiso   1.00
C126   C     0.32133   0.49991   0.18507   0.00000  Uiso   1.00
C127   C     0.13452   0.35566   0.13264   0.00000  Uiso   1.00
C128   C     0.19881   0.64434   0.20070   0.00000  Uiso   1.00
C129   C     0.13261   0.64608   0.13198   0.00000  Uiso   1.00
C130   C     0.20073   0.35391   0.20135   0.00000  Uiso   1.00
C131   C     0.16521   0.62406   0.16622   0.00000  Uiso   1.00
C132   C     0.16813   0.37594   0.16712   0.00000  Uiso   1.00
C133   C     0.19901   0.52623   0.02809   0.00000  Uiso   1.00
C134   C     0.13432   0.47377   0.30524   0.00000  Uiso   1.00
C135   C     0.19899   0.52622   0.31350   0.00000  Uiso   1.00
C136   C     0.13434   0.47378   0.01984   0.00000  Uiso   1.00
H137   H     0.10917   0.37339   0.10688   0.00000  Uiso   1.00
H138   H     0.22417   0.62661   0.22645   0.00000  Uiso   1.00
H139   H     0.22489   0.54721   0.04953   0.00000  Uiso   1.00
H140   H     0.10844   0.45279   0.28380   0.00000  Uiso   1.00
H141   H     0.22486   0.54720   0.29867   0.00000  Uiso   1.00
H142   H     0.10848   0.45280   0.03466   0.00000  Uiso   1.00
N143   N     0.16665   0.49999   0.28573   0.00000  Uiso   1.00
N144   N     0.16668   0.50001   0.04760   0.00000  Uiso   1.00
O145   O     0.16666   0.43892   0.20487   0.00000  Uiso   1.00
O146   O     0.16667   0.56108   0.12846   0.00000  Uiso   1.00
O147   O     0.16666   0.43893   0.12843   0.00000  Uiso   1.00
O148   O     0.16667   0.56107   0.20490   0.00000  Uiso   1.00
O149   O     0.09058   0.50000   0.19595   0.00000  Uiso   1.00
O150   O     0.24275   0.50000   0.13739   0.00000  Uiso   1.00
O151   O     0.09058   0.50000   0.11950   0.00000  Uiso   1.00
O152   O     0.24275   0.50000   0.21383   0.00000  Uiso   1.00
Zn153  Zn    0.16667   0.49999   0.21771   0.00000  Uiso   1.00
Zn154  Zn    0.16667   0.50001   0.11563   0.00000  Uiso   1.00
H155   H     0.32472   0.50032   0.11334   0.00000  Uiso   1.00
H156   H     0.00862   0.49968   0.21999   0.00000  Uiso   1.00
C157   C     0.09580   0.62561   0.09720   0.00000  Uiso   1.00
N158   N     0.06635   0.60922   0.06941   0.00000  Uiso   1.00
C159   C     0.23754   0.37439   0.23613   0.00000  Uiso   1.00
N160   N     0.26698   0.39078   0.26393   0.00000  Uiso   1.00
C161   C     0.50095   0.42009   0.16687   0.00000  Uiso   1.00
C162   C     0.49905   0.57991   0.16647   0.00000  Uiso   1.00
C163   C     0.40038   0.50001   0.15470   0.00000  Uiso   1.00
C164   C     0.59962   0.49999   0.17864   0.00000  Uiso   1.00
C165   C     0.34534   0.50009   0.14826   0.00000  Uiso   1.00
C166   C     0.65467   0.49991   0.18507   0.00000  Uiso   1.00
C167   C     0.46785   0.35566   0.13264   0.00000  Uiso   1.00
C168   C     0.53215   0.64434   0.20070   0.00000  Uiso   1.00
C169   C     0.46594   0.64608   0.13198   0.00000  Uiso   1.00
C170   C     0.53406   0.35391   0.20135   0.00000  Uiso   1.00
C171   C     0.49854   0.62406   0.16622   0.00000  Uiso   1.00
C172   C     0.50146   0.37594   0.16712   0.00000  Uiso   1.00
C173   C     0.53234   0.52623   0.02809   0.00000  Uiso   1.00
C174   C     0.46766   0.47377   0.30524   0.00000  Uiso   1.00
C175   C     0.53233   0.52622   0.31350   0.00000  Uiso   1.00
C176   C     0.46767   0.47378   0.01984   0.00000  Uiso   1.00
H177   H     0.44250   0.37339   0.10688   0.00000  Uiso   1.00
H178   H     0.55750   0.62661   0.22645   0.00000  Uiso   1.00
H179   H     0.55823   0.54721   0.04953   0.00000  Uiso   1.00
H180   H     0.44177   0.45279   0.28380   0.00000  Uiso   1.00
H181   H     0.55819   0.54720   0.29867   0.00000  Uiso   1.00
H182   H     0.44181   0.45280   0.03466   0.00000  Uiso   1.00
N183   N     0.49999   0.49999   0.28573   0.00000  Uiso   1.00
N184   N     0.50001   0.50001   0.04760   0.00000  Uiso   1.00
O185   O     0.50000   0.43892   0.20487   0.00000  Uiso   1.00
O186   O     0.50000   0.56108   0.12846   0.00000  Uiso   1.00
O187   O     0.50000   0.43893   0.12843   0.00000  Uiso   1.00
O188   O     0.50000   0.56107   0.20490   0.00000  Uiso   1.00
O189   O     0.42392   0.50000   0.19595   0.00000  Uiso   1.00
O190   O     0.57608   0.50000   0.13739   0.00000  Uiso   1.00
O191   O     0.42392   0.50000   0.11950   0.00000  Uiso   1.00
O192   O     0.57608   0.50000   0.21383   0.00000  Uiso   1.00
Zn193  Zn    0.50000   0.49999   0.21771   0.00000  Uiso   1.00
Zn194  Zn    0.50000   0.50001   0.11563   0.00000  Uiso   1.00
H195   H     0.65805   0.50032   0.11334   0.00000  Uiso   1.00
H196   H     0.34195   0.49968   0.21999   0.00000  Uiso   1.00
C197   C     0.42913   0.62561   0.09720   0.00000  Uiso   1.00
N198   N     0.39969   0.60922   0.06941   0.00000  Uiso   1.00
C199   C     0.57087   0.37439   0.23613   0.00000  Uiso   1.00
N200   N     0.60031   0.39078   0.26393   0.00000  Uiso   1.00
C201   C     0.83429   0.42009   0.16687   0.00000  Uiso   1.00
C202   C     0.83238   0.57991   0.16647   0.00000  Uiso   1.00
C203   C     0.73371   0.50001   0.15470   0.00000  Uiso   1.00
C204   C     0.93296   0.49999   0.17864   0.00000  Uiso   1.00
C205   C     0.67867   0.50009   0.14826   0.00000  Uiso   1.00
C206   C     0.98800   0.49991   0.18507   0.00000  Uiso   1.00
C207   C     0.80119   0.35566   0.13264   0.00000  Uiso   1.00
C208   C     0.86548   0.64434   0.20070   0.00000  Uiso   1.00
C209   C     0.79927   0.64608   0.13198   0.00000  Uiso   1.00
C210   C     0.86739   0.35391   0.20135   0.00000  Uiso   1.00
C211   C     0.83187   0.62406   0.16622   0.00000  Uiso   1.00
C212   C     0.83479   0.37594   0.16712   0.00000  Uiso   1.00
C213   C     0.86568   0.52623   0.02809   0.00000  Uiso   1.00
C214   C     0.80099   0.47377   0.30524   0.00000  Uiso   1.00
C215   C     0.86566   0.52622   0.31350   0.00000  Uiso   1.00
C216   C     0.80101   0.47378   0.01984   0.00000  Uiso   1.00
H217   H     0.77583   0.37339   0.10688   0.00000  Uiso   1.00
H218   H     0.89083   0.62661   0.22645   0.00000  Uiso   1.00
H219   H     0.89156   0.54721   0.04953   0.00000  Uiso   1.00
H220   H     0.77511   0.45279   0.28380   0.00000  Uiso   1.00
H221   H     0.89152   0.54720   0.29867   0.00000  Uiso   1.00
H222   H     0.77514   0.45280   0.03466   0.00000  Uiso   1.00
N223   N     0.83332   0.49999   0.28573   0.00000  Uiso   1.00
N224   N     0.83335   0.50001   0.04760   0.00000  Uiso   1.00
O225   O     0.83333   0.43892   0.20487   0.00000  Uiso   1.00
O226   O     0.83334   0.56108   0.12846   0.00000  Uiso   1.00
O227   O     0.83333   0.43893   0.12843   0.00000  Uiso   1.00
O228   O     0.83334   0.56107   0.20490   0.00000  Uiso   1.00
O229   O     0.75725   0.50000   0.19595   0.00000  Uiso   1.00
O230   O     0.90942   0.50000   0.13739   0.00000  Uiso   1.00
O231   O     0.75725   0.50000   0.11950   0.00000  Uiso   1.00
O232   O     0.90942   0.50000   0.21383   0.00000  Uiso   1.00
Zn233  Zn    0.83333   0.49999   0.21771   0.00000  Uiso   1.00
Zn234  Zn    0.83333   0.50001   0.11563   0.00000  Uiso   1.00
H235   H     0.99138   0.50032   0.11334   0.00000  Uiso   1.00
H236   H     0.67528   0.49968   0.21999   0.00000  Uiso   1.00
C237   C     0.76246   0.62561   0.09720   0.00000  Uiso   1.00
N238   N     0.73302   0.60922   0.06941   0.00000  Uiso   1.00
C239   C     0.90420   0.37439   0.23613   0.00000  Uiso   1.00
N240   N     0.93365   0.39078   0.26393   0.00000  Uiso   1.00
C241   C     0.16762   0.75342   0.16687   0.00000  Uiso   1.00
C242   C     0.16571   0.91324   0.16647   0.00000  Uiso   1.00
C243   C     0.06704   0.83334   0.15470   0.00000  Uiso   1.00
C244   C     0.26629   0.83333   0.17864   0.00000  Uiso   1.00
C245   C     0.01200   0.83342   0.14826   0.00000  Uiso   1.00
C246   C     0.32133   0.83324   0.18507   0.00000  Uiso   1.00
C247   C     0.13452   0.68900   0.13264   0.00000  Uiso   1.00
C248   C     0.19881   0.97767   0.20070   0.00000  Uiso   1.00
C249   C     0.13261   0.97942   0.13198   0.00000  Uiso   1.00
C250   C     0.20073   0.68725   0.20135   0.00000  Uiso   1.00
C251   C     0.16521   0.95740   0.16622   0.00000  Uiso   1.00
C252   C     0.16813   0.70927   0.16712   0.00000  Uiso   1.00
C253   C     0.19901   0.85957   0.02809   0.00000  Uiso   1.00
C254   C     0.13432   0.80710   0.30524   0.00000  Uiso   1.00
C255   C     0.19899   0.85955   0.31350   0.00000  Uiso   1.00
C256   C     0.13434   0.80711   0.01984   0.00000  Uiso   1.00
H257   H     0.10917   0.70672   0.10688   0.00000  Uiso   1.00
H258   H     0.22417   0.95994   0.22645   0.00000  Uiso   1.00
H259   H     0.22489   0.88055   0.04953   0.00000  Uiso   1.00
H260   H     0.10844   0.78612   0.28380   0.00000  Uiso   1.00
H261   H     0.22486   0.88054   0.29867   0.00000  Uiso   1.00
H262   H     0.10848   0.78613   0.03466   0.00000  Uiso   1.00
N263   N     0.16665   0.83332   0.28573   0.00000  Uiso   1.00
N264   N     0.16668   0.83334   0.04760   0.00000  Uiso   1.00
O265   O     0.16666   0.77225   0.20487   0.00000  Uiso   1.00
O266   O     0.16667   0.89442   0.12846   0.00000  Uiso   1.00
O267   O     0.16666   0.77226   0.12843   0.00000  Uiso   1.00
O268   O     0.16667   0.89441   0.20490   0.00000  Uiso   1.00
O269   O     0.09058   0.83333   0.19595   0.00000  Uiso   1.00
O270   O     0.24275   0.83334   0.13739   0.00000  Uiso   1.00
O271   O     0.09058   0.83334   0.11950   0.00000  Uiso   1.00
O272   O     0.24275   0.83333   0.21383   0.00000  Uiso   1.00
Zn273  Zn    0.16667   0.83333   0.21771   0.00000  Uiso   1.00
Zn274  Zn    0.16667   0.83334   0.11563   0.00000  Uiso   1.00
H275   H     0.32472   0.83366   0.11334   0.00000  Uiso   1.00
H276   H     0.00862   0.83301   0.21999   0.00000  Uiso   1.00
C277   C     0.09580   0.95895   0.09720   0.00000  Uiso   1.00
N278   N     0.06635   0.94255   0.06941   0.00000  Uiso   1.00
C279   C     0.23754   0.70772   0.23613   0.00000  Uiso   1.00
N280   N     0.26698   0.72411   0.26393   0.00000  Uiso   1.00
C281   C     0.50095   0.75342   0.16687   0.00000  Uiso   1.00
C282   C     0.49905   0.91324   0.16647   0.00000  Uiso   1.00
C283   C     0.40038   0.83334   0.15470   0.00000  Uiso   1.00
C284   C     0.59962   0.83333   0.17864   0.00000  Uiso   1.00
C285   C     0.34534   0.83342   0.14826   0.00000  Uiso   1.00
C286   C     0.65467   0.83324   0.18507   0.00000  Uiso   1.00
C287   C     0.46785   0.68900   0.13264   0.00000  Uiso   1.00
C288   C     0.53215   0.97767   0.20070   0.00000  Uiso   1.00
C289   C     0.46594   0.97942   0.13198   0.00000  Uiso   1.00
C290   C     0.53406   0.68725   0.20135   0.00000  Uiso   1.00
C291   C     0.49854   0.95740   0.16622   0.00000  Uiso   1.00
C292   C     0.50146   0.70927   0.16712   0.00000  Uiso   1.00
C293   C     0.53234   0.85957   0.02809   0.00000  Uiso   1.00
C294   C     0.46766   0.80710   0.30524   0.00000  Uiso   1.00
C295   C     0.53233   0.85955   0.31350   0.00000  Uiso   1.00
C296   C     0.46767   0.80711   0.01984   0.00000  Uiso   1.00
H297   H     0.44250   0.70672   0.10688   0.00000  Uiso   1.00
H298   H     0.55750   0.95994   0.22645   0.00000  Uiso   1.00
H299   H     0.55823   0.88055   0.04953   0.00000  Uiso   1.00
H300   H     0.44177   0.78612   0.28380   0.00000  Uiso   1.00
H301   H     0.55819   0.88054   0.29867   0.00000  Uiso   1.00
H302   H     0.44181   0.78613   0.03466   0.00000  Uiso   1.00
N303   N     0.49999   0.83332   0.28573   0.00000  Uiso   1.00
N304   N     0.50001   0.83334   0.04760   0.00000  Uiso   1.00
O305   O     0.50000   0.77225   0.20487   0.00000  Uiso   1.00
O306   O     0.50000   0.89442   0.12846   0.00000  Uiso   1.00
O307   O     0.50000   0.77226   0.12843   0.00000  Uiso   1.00
O308   O     0.50000   0.89441   0.20490   0.00000  Uiso   1.00
O309   O     0.42392   0.83333   0.19595   0.00000  Uiso   1.00
O310   O     0.57608   0.83334   0.13739   0.00000  Uiso   1.00
O311   O     0.42392   0.83334   0.11950   0.00000  Uiso   1.00
O312   O     0.57608   0.83333   0.21383   0.00000  Uiso   1.00
Zn313  Zn    0.50000   0.83333   0.21771   0.00000  Uiso   1.00
Zn314  Zn    0.50000   0.83334   0.11563   0.00000  Uiso   1.00
H315   H     0.65805   0.83366   0.11334   0.00000  Uiso   1.00
H316   H     0.34195   0.83301   0.21999   0.00000  Uiso   1.00
C317   C     0.42913   0.95895   0.09720   0.00000  Uiso   1.00
N318   N     0.39969   0.94255   0.06941   0.00000  Uiso   1.00
C319   C     0.57087   0.70772   0.23613   0.00000  Uiso   1.00
N320   N     0.60031   0.72411   0.26393   0.00000  Uiso   1.00
C321   C     0.83429   0.75342   0.16687   0.00000  Uiso   1.00
C322   C     0.83238   0.91324   0.16647   0.00000  Uiso   1.00
C323   C     0.73371   0.83334   0.15470   0.00000  Uiso   1.00
C324   C     0.93296   0.83333   0.17864   0.00000  Uiso   1.00
C325   C     0.67867   0.83342   0.14826   0.00000  Uiso   1.00
C326   C     0.98800   0.83324   0.18507   0.00000  Uiso   1.00
C327   C     0.80119   0.68900   0.13264   0.00000  Uiso   1.00
C328   C     0.86548   0.97767   0.20070   0.00000  Uiso   1.00
C329   C     0.79927   0.97942   0.13198   0.00000  Uiso   1.00
C330   C     0.86739   0.68725   0.20135   0.00000  Uiso   1.00
C331   C     0.83187   0.95740   0.16622   0.00000  Uiso   1.00
C332   C     0.83479   0.70927   0.16712   0.00000  Uiso   1.00
C333   C     0.86568   0.85957   0.02809   0.00000  Uiso   1.00
C334   C     0.80099   0.80710   0.30524   0.00000  Uiso   1.00
C335   C     0.86566   0.85955   0.31350   0.00000  Uiso   1.00
C336   C     0.80101   0.80711   0.01984   0.00000  Uiso   1.00
H337   H     0.77583   0.70672   0.10688   0.00000  Uiso   1.00
H338   H     0.89083   0.95994   0.22645   0.00000  Uiso   1.00
H339   H     0.89156   0.88055   0.04953   0.00000  Uiso   1.00
H340   H     0.77511   0.78612   0.28380   0.00000  Uiso   1.00
H341   H     0.89152   0.88054   0.29867   0.00000  Uiso   1.00
H342   H     0.77514   0.78613   0.03466   0.00000  Uiso   1.00
N343   N     0.83332   0.83332   0.28573   0.00000  Uiso   1.00
N344   N     0.83335   0.83334   0.04760   0.00000  Uiso   1.00
O345   O     0.83333   0.77225   0.20487   0.00000  Uiso   1.00
O346   O     0.83334   0.89442   0.12846   0.00000  Uiso   1.00
O347   O     0.83333   0.77226   0.12843   0.00000  Uiso   1.00
O348   O     0.83334   0.89441   0.20490   0.00000  Uiso   1.00
O349   O     0.75725   0.83333   0.19595   0.00000  Uiso   1.00
O350   O     0.90942   0.83334   0.13739   0.00000  Uiso   1.00
O351   O     0.75725   0.83334   0.11950   0.00000  Uiso   1.00
O352   O     0.90942   0.83333   0.21383   0.00000  Uiso   1.00
Zn353  Zn    0.83333   0.83333   0.21771   0.00000  Uiso   1.00
Zn354  Zn    0.83333   0.83334   0.11563   0.00000  Uiso   1.00
H355   H     0.99138   0.83366   0.11334   0.00000  Uiso   1.00
H356   H     0.67528   0.83301   0.21999   0.00000  Uiso   1.00
C357   C     0.76246   0.95895   0.09720   0.00000  Uiso   1.00
N358   N     0.73302   0.94255   0.06941   0.00000  Uiso   1.00
C359   C     0.90420   0.70772   0.23613   0.00000  Uiso   1.00
N360   N     0.93365   0.72411   0.26393   0.00000  Uiso   1.00
C361   C     0.16762   0.08675   0.50020   0.00000  Uiso   1.00
C362   C     0.16571   0.24658   0.49980   0.00000  Uiso   1.00
C363   C     0.06704   0.16667   0.48803   0.00000  Uiso   1.00
C364   C     0.26629   0.16666   0.51197   0.00000  Uiso   1.00
C365   C     0.01200   0.16676   0.48159   0.00000  Uiso   1.00
C366   C     0.32133   0.16658   0.51841   0.00000  Uiso   1.00
C367   C     0.13452   0.02233   0.46597   0.00000  Uiso   1.00
C368   C     0.19881   0.31100   0.53403   0.00000  Uiso   1.00
C369   C     0.13261   0.31275   0.46532   0.00000  Uiso   1.00
C370   C     0.20073   0.02058   0.53468   0.00000  Uiso   1.00
C371   C     0.16521   0.29073   0.49955   0.00000  Uiso   1.00
C372   C     0.16813   0.04260   0.50045   0.00000  Uiso   1.00
C373   C     0.19901   0.19290   0.36143   0.00000  Uiso   1.00
C374   C     0.13432   0.14043   0.63857   0.00000  Uiso   1.00
C375   C     0.19899   0.19289   0.64683   0.00000  Uiso   1.00
C376   C     0.13434   0.14044   0.35317   0.00000  Uiso   1.00
H377   H     0.10917   0.04006   0.44022   0.00000  Uiso   1.00
H378   H     0.22417   0.29328   0.55978   0.00000  Uiso   1.00
H379   H     0.22489   0.21388   0.38286   0.00000  Uiso   1.00
H380   H     0.10844   0.11945   0.61714   0.00000  Uiso   1.00
H381   H     0.22486   0.21387   0.63200   0.00000  Uiso   1.00
H382   H     0.10848   0.11946   0.36800   0.00000  Uiso   1.00
N383   N     0.16665   0.16666   0.61907   0.00000  Uiso   1.00
N384   N     0.16668   0.16668   0.38093   0.00000  Uiso   1.00
O385   O     0.16666   0.10558   0.53821   0.00000  Uiso   1.00
O386   O     0.16667   0.22775   0.46179   0.00000  Uiso   1.00
O387   O     0.16666   0.10559   0.46176   0.00000  Uiso   1.00
O388   O     0.16667   0.22774   0.53824   0.00000  Uiso   1.00
O389   O     0.09058   0.16666   0.52928   0.00000  Uiso   1.00
O390   O     0.24275   0.16667   0.47072   0.00000  Uiso   1.00
O391   O     0.09058   0.16667   0.45284   0.00000  Uiso   1.00
O392   O     0.24275   0.16666   0.54716   0.00000  Uiso   1.00
Zn393  Zn    0.16667   0.16666   0.55104   0.00000  Uiso   1.00
Zn394  Zn    0.16667   0.16667   0.44896   0.00000  Uiso   1.00
H395   H     0.32472   0.16699   0.44667   0.00000  Uiso   1.00
H396   H     0.00862   0.16634   0.55333   0.00000  Uiso   1.00
C397   C     0.09580   0.29228   0.43054   0.00000  Uiso   1.00
N398   N     0.06635   0.27589   0.40274   0.00000  Uiso   1.00
C399   C     0.23754   0.04105   0.56946   0.00000  Uiso   1.00
N400   N     0.26698   0.05745   0.59726   0.00000  Uiso   1.00
C401   C     0.50095   0.08675   0.50020   0.00000  Uiso   1.00
C402   C     0.49905   0.24658   0.49980   0.00000  Uiso   1.00
C403   C     0.40038   0.16667   0.48803   0.00000  Uiso   1.00
C404   C     0.59962   0.16666   0.51197   0.00000  Uiso   1.00
C405   C     0.34534   0.16676   0.48159   0.00000  Uiso   1.00
C406   C     0.65467   0.16658   0.51841   0.00000  Uiso   1.00
C407   C     0.46785   0.02233   0.46597   0.00000  Uiso   1.00
C408   C     0.53215   0.31100   0.53403   0.00000  Uiso   1.00
C409   C     0.46594   0.31275   0.46532   0.00000  Uiso   1.00
C410   C     0.53406   0.02058   0.53468   0.00000  Uiso   1.00
C411   C     0.49854   0.29073   0.49955   0.00000  Uiso   1.00
C412   C     0.50146   0.04260   0.50045   0.00000  Uiso   1.00
C413   C     0.53234   0.19290   0.36143   0.00000  Uiso   1.00
C414   C     0.46766   0.14043   0.63857   0.00000  Uiso   1.00
C415   C     0.53233   0.19289   0.64683   0.00000  Uiso   1.00
C416   C     0.46767   0.14044   0.35317   0.00000  Uiso   1.00
H417   H     0.44250   0.04006   0.44022   0.00000  Uiso   1.00
H418   H     0.55750   0.29328   0.55978   0.00000  Uiso   1.00
H419   H     0.55823   0.21388   0.38286   0.00000  Uiso   1.00
H420   H     0.44177   0.11945   0.61714   0.00000  Uiso   1.00
H421   H     0.55819   0.21387   0.63200   0.00000  Uiso   1.00
H422   H     0.44181   0.11946   0.36800   0.00000  Uiso   1.00
N423   N     0.49999   0.16666   0.61907   0.00000  Uiso   1.00
N424   N     0.50001   0.16668   0.38093   0.00000  Uiso   1.00
O425   O     0.50000   0.10558   0.53821   0.00000  Uiso   1.00
O426   O     0.50000   0.22775   0.46179   0.00000  Uiso   1.00
O427   O     0.50000   0.10559   0.46176   0.00000  Uiso   1.00
O428   O     0.50000   0.22774   0.53824   0.00000  Uiso   1.00
O429   O     0.42392   0.16666   0.52928   0.00000  Uiso   1.00
O430   O     0.57608   0.16667   0.47072   0.00000  Uiso   1.00
O431   O     0.42392   0.16667   0.45284   0.00000  Uiso   1.00
O432   O     0.57608   0.16666   0.54716   0.00000  Uiso   1.00
Zn433  Zn    0.50000   0.16666   0.55104   0.00000  Uiso   1.00
Zn434  Zn    0.50000   0.16667   0.44896   0.00000  Uiso   1.00
H435   H     0.65805   0.16699   0.44667   0.00000  Uiso   1.00
H436   H     0.34195   0.16634   0.55333   0.00000  Uiso   1.00
C437   C     0.42913   0.29228   0.43054   0.00000  Uiso   1.00
N438   N     0.39969   0.27589   0.40274   0.00000  Uiso   1.00
C439   C     0.57087   0.04105   0.56946   0.00000  Uiso   1.00
N440   N     0.60031   0.05745   0.59726   0.00000  Uiso   1.00
C441   C     0.83429   0.08675   0.50020   0.00000  Uiso   1.00
C442   C     0.83238   0.24658   0.49980   0.00000  Uiso   1.00
C443   C     0.73371   0.16667   0.48803   0.00000  Uiso   1.00
C444   C     0.93296   0.16666   0.51197   0.00000  Uiso   1.00
C445   C     0.67867   0.16676   0.48159   0.00000  Uiso   1.00
C446   C     0.98800   0.16658   0.51841   0.00000  Uiso   1.00
C447   C     0.80119   0.02233   0.46597   0.00000  Uiso   1.00
C448   C     0.86548   0.31100   0.53403   0.00000  Uiso   1.00
C449   C     0.79927   0.31275   0.46532   0.00000  Uiso   1.00
C450   C     0.86739   0.02058   0.53468   0.00000  Uiso   1.00
C451   C     0.83187   0.29073   0.49955   0.00000  Uiso   1.00
C452   C     0.83479   0.04260   0.50045   0.00000  Uiso   1.00
C453   C     0.86568   0.19290   0.36143   0.00000  Uiso   1.00
C454   C     0.80099   0.14043   0.63857   0.00000  Uiso   1.00
C455   C     0.86566   0.19289   0.64683   0.00000  Uiso   1.00
C456   C     0.80101   0.14044   0.35317   0.00000  Uiso   1.00
H457   H     0.77583   0.04006   0.44022   0.00000  Uiso   1.00
H458   H     0.89083   0.29328   0.55978   0.00000  Uiso   1.00
H459   H     0.89156   0.21388   0.38286   0.00000  Uiso   1.00
H460   H     0.77511   0.11945   0.61714   0.00000  Uiso   1.00
H461   H     0.89152   0.21387   0.63200   0.00000  Uiso   1.00
H462   H     0.77514   0.11946   0.36800   0.00000  Uiso   1.00
N463   N     0.83332   0.16666   0.61907   0.00000  Uiso   1.00
N464   N     0.83335   0.16668   0.38093   0.00000  Uiso   1.00
O465   O     0.83333   0.10558   0.53821   0.00000  Uiso   1.00
O466   O     0.83334   0.22775   0.46179   0.00000  Uiso   1.00
O467   O     0.83333   0.10559   0.46176   0.00000  Uiso   1.00
O468   O     0.83334   0.22774   0.53824   0.00000  Uiso   1.00
O469   O     0.75725   0.16666   0.52928   0.00000  Uiso   1.00
O470   O     0.90942   0.16667   0.47072   0.00000  Uiso   1.00
O471   O     0.75725   0.16667   0.45284   0.00000  Uiso   1.00
O472   O     0.90942   0.16666   0.54716   0.00000  Uiso   1.00
Zn473  Zn    0.83333   0.16666   0.55104   0.00000  Uiso   1.00
Zn474  Zn    0.83333   0.16667   0.44896   0.00000  Uiso   1.00
H475   H     0.99138   0.16699   0.44667   0.00000  Uiso   1.00
H476   H     0.67528   0.16634   0.55333   0.00000  Uiso   1.00
C477   C     0.76246   0.29228   0.43054   0.00000  Uiso   1.00
N478   N     0.73302   0.27589   0.40274   0.00000  Uiso   1.00
C479   C     0.90420   0.04105   0.56946   0.00000  Uiso   1.00
N480   N     0.93365   0.05745   0.59726   0.00000  Uiso   1.00
C481   C     0.16762   0.42009   0.50020   0.00000  Uiso   1.00
C482   C     0.16571   0.57991   0.49980   0.00000  Uiso   1.00
C483   C     0.06704   0.50001   0.48803   0.00000  Uiso   1.00
C484   C     0.26629   0.49999   0.51197   0.00000  Uiso   1.00
C485   C     0.01200   0.50009   0.48159   0.00000  Uiso   1.00
C486   C     0.32133   0.49991   0.51841   0.00000  Uiso   1.00
C487   C     0.13452   0.35566   0.46597   0.00000  Uiso   1.00
C488   C     0.19881   0.64434   0.53403   0.00000  Uiso   1.00
C489   C     0.13261   0.64608   0.46532   0.00000  Uiso   1.00
C490   C     0.20073   0.35391   0.53468   0.00000  Uiso   1.00
C491   C     0.16521   0.62406   0.49955   0.00000  Uiso   1.00
C492   C     0.16813   0.37594   0.50045   0.00000  Uiso   1.00
C493   C     0.19901   0.52623   0.36143   0.00000  Uiso   1.00
C494   C     0.13432   0.47377   0.63857   0.00000  Uiso   1.00
C495   C     0.19899   0.52622   0.64683   0.00000  Uiso   1.00
C496   C     0.13434   0.47378   0.35317   0.00000  Uiso   1.00
H497   H     0.10917   0.37339   0.44022   0.00000  Uiso   1.00
H498   H     0.22417   0.62661   0.55978   0.00000  Uiso   1.00
H499   H     0.22489   0.54721   0.38286   0.00000  Uiso   1.00
H500   H     0.10844   0.45279   0.61714   0.00000  Uiso   1.00
H501   H     0.22486   0.54720   0.63200   0.00000  Uiso   1.00
H502   H     0.10848   0.45280   0.36800   0.00000  Uiso   1.00
N503   N     0.16665   0.49999   0.61907   0.00000  Uiso   1.00
N504   N     0.16668   0.50001   0.38093   0.00000  Uiso   1.00
O505   O     0.16666   0.43892   0.53821   0.00000  Uiso   1.00
O506   O     0.16667   0.56108   0.46179   0.00000  Uiso   1.00
O507   O     0.16666   0.43893   0.46176   0.00000  Uiso   1.00
O508   O     0.16667   0.56107   0.53824   0.00000  Uiso   1.00
O509   O     0.09058   0.50000   0.52928   0.00000  Uiso   1.00
O510   O     0.24275   0.50000   0.47072   0.00000  Uiso   1.00
O511   O     0.09058   0.50000   0.45284   0.00000  Uiso   1.00
O512   O     0.24275   0.50000   0.54716   0.00000  Uiso   1.00
Zn513  Zn    0.16667   0.49999   0.55104   0.00000  Uiso   1.00
Zn514  Zn    0.16667   0.50001   0.44896   0.00000  Uiso   1.00
H515   H     0.32472   0.50032   0.44667   0.00000  Uiso   1.00
H516   H     0.00862   0.49968   0.55333   0.00000  Uiso   1.00
C517   C     0.09580   0.62561   0.43054   0.00000  Uiso   1.00
N518   N     0.06635   0.60922   0.40274   0.00000  Uiso   1.00
C519   C     0.23754   0.37439   0.56946   0.00000  Uiso   1.00
N520   N     0.26698   0.39078   0.59726   0.00000  Uiso   1.00
C521   C     0.50095   0.42009   0.50020   0.00000  Uiso   1.00
C522   C     0.49905   0.57991   0.49980   0.00000  Uiso   1.00
C523   C     0.40038   0.50001   0.48803   0.00000  Uiso   1.00
C524   C     0.59962   0.49999   0.51197   0.00000  Uiso   1.00
C525   C     0.34534   0.50009   0.48159   0.00000  Uiso   1.00
C526   C     0.65467   0.49991   0.51841   0.00000  Uiso   1.00
C527   C     0.46785   0.35566   0.46597   0.00000  Uiso   1.00
C528   C     0.53215   0.64434   0.53403   0.00000  Uiso   1.00
C529   C     0.46594   0.64608   0.46532   0.00000  Uiso   1.00
C530   C     0.53406   0.35391   0.53468   0.00000  Uiso   1.00
C531   C     0.49854   0.62406   0.49955   0.00000  Uiso   1.00
C532   C     0.50146   0.37594   0.50045   0.00000  Uiso   1.00
C533   C     0.53234   0.52623   0.36143   0.00000  Uiso   1.00
C534   C     0.46766   0.47377   0.63857   0.00000  Uiso   1.00
C535   C     0.53233   0.52622   0.64683   0.00000  Uiso   1.00
C536   C     0.46767   0.47378   0.35317   0.00000  Uiso   1.00
H537   H     0.44250   0.37339   0.44022   0.00000  Uiso   1.00
H538   H     0.55750   0.62661   0.55978   0.00000  Uiso   1.00
H539   H     0.55823   0.54721   0.38286   0.00000  Uiso   1.00
H540   H     0.44177   0.45279   0.61714   0.00000  Uiso   1.00
H541   H     0.55819   0.54720   0.63200   0.00000  Uiso   1.00
H542   H     0.44181   0.45280   0.36800   0.00000  Uiso   1.00
N543   N     0.49999   0.49999   0.61907   0.00000  Uiso   1.00
N544   N     0.50001   0.50001   0.38093   0.00000  Uiso   1.00
O545   O     0.50000   0.43892   0.53821   0.00000  Uiso   1.00
O546   O     0.50000   0.56108   0.46179   0.00000  Uiso   1.00
O547   O     0.50000   0.43893   0.46176   0.00000  Uiso   1.00
O548   O     0.50000   0.56107   0.53824   0.00000  Uiso   1.00
O549   O     0.42392   0.50000   0.52928   0.00000  Uiso   1.00
O550   O     0.57608   0.50000   0.47072   0.00000  Uiso   1.00
O551   O     0.42392   0.50000   0.45284   0.00000  Uiso   1.00
O552   O     0.57608   0.50000   0.54716   0.00000  Uiso   1.00
Zn553  Zn    0.50000   0.49999   0.55104   0.00000  Uiso   1.00
Zn554  Zn    0.50000   0.50001   0.44896   0.00000  Uiso   1.00
H555   H     0.65805   0.50032   0.44667   0.00000  Uiso   1.00
H556   H     0.34195   0.49968   0.55333   0.00000  Uiso   1.00
C557   C     0.42913   0.62561   0.43054   0.00000  Uiso   1.00
N558   N     0.39969   0.60922   0.40274   0.00000  Uiso   1.00
C559   C     0.57087   0.37439   0.56946   0.00000  Uiso   1.00
N560   N     0.60031   0.39078   0.59726   0.00000  Uiso   1.00
C561   C     0.83429   0.42009   0.50020   0.00000  Uiso   1.00
C562   C     0.83238   0.57991   0.49980   0.00000  Uiso   1.00
C563   C     0.73371   0.50001   0.48803   0.00000  Uiso   1.00
C564   C     0.93296   0.49999   0.51197   0.00000  Uiso   1.00
C565   C     0.67867   0.50009   0.48159   0.00000  Uiso   1.00
C566   C     0.98800   0.49991   0.51841   0.00000  Uiso   1.00
C567   C     0.80119   0.35566   0.46597   0.00000  Uiso   1.00
C568   C     0.86548   0.64434   0.53403   0.00000  Uiso   1.00
C569   C     0.79927   0.64608   0.46532   0.00000  Uiso   1.00
C570   C     0.86739   0.35391   0.53468   0.00000  Uiso   1.00
C571   C     0.83187   0.62406   0.49955   0.00000  Uiso   1.00
C572   C     0.83479   0.37594   0.50045   0.00000  Uiso   1.00
C573   C     0.86568   0.52623   0.36143   0.00000  Uiso   1.00
C574   C     0.80099   0.47377   0.63857   0.00000  Uiso   1.00
C575   C     0.86566   0.52622   0.64683   0.00000  Uiso   1.00
C576   C     0.80101   0.47378   0.35317   0.00000  Uiso   1.00
H577   H     0.77583   0.37339   0.44022   0.00000  Uiso   1.00
H578   H     0.89083   0.62661   0.55978   0.00000  Uiso   1.00
H579   H     0.89156   0.54721   0.38286   0.00000  Uiso   1.00
H580   H     0.77511   0.45279   0.61714   0.00000  Uiso   1.00
H581   H     0.89152   0.54720   0.63200   0.00000  Uiso   1.00
H582   H     0.77514   0.45280   0.36800   0.00000  Uiso   1.00
N583   N     0.83332   0.49999   0.61907   0.00000  Uiso   1.00
N584   N     0.83335   0.50001   0.38093   0.00000  Uiso   1.00
O585   O     0.83333   0.43892   0.53821   0.00000  Uiso   1.00
O586   O     0.83334   0.56108   0.46179   0.00000  Uiso   1.00
O587   O     0.83333   0.43893   0.46176   0.00000  Uiso   1.00
O588   O     0.83334   0.56107   0.53824   0.00000  Uiso   1.00
O589   O     0.75725   0.50000   0.52928   0.00000  Uiso   1.00
O590   O     0.90942   0.50000   0.47072   0.00000  Uiso   1.00
O591   O     0.75725   0.50000   0.45284   0.00000  Uiso   1.00
O592   O     0.90942   0.50000   0.54716   0.00000  Uiso   1.00
Zn593  Zn    0.83333   0.49999   0.55104   0.00000  Uiso   1.00
Zn594  Zn    0.83333   0.50001   0.44896   0.00000  Uiso   1.00
H595   H     0.99138   0.50032   0.44667   0.00000  Uiso   1.00
H596   H     0.67528   0.49968   0.55333   0.00000  Uiso   1.00
C597   C     0.76246   0.62561   0.43054   0.00000  Uiso   1.00
N598   N     0.73302   0.60922   0.40274   0.00000  Uiso   1.00
C599   C     0.90420   0.37439   0.56946   0.00000  Uiso   1.00
N600   N     0.93365   0.39078   0.59726   0.00000  Uiso   1.00
C601   C     0.16762   0.75342   0.50020   0.00000  Uiso   1.00
C602   C     0.16571   0.91324   0.49980   0.00000  Uiso   1.00
C603   C     0.06704   0.83334   0.48803   0.00000  Uiso   1.00
C604   C     0.26629   0.83333   0.51197   0.00000  Uiso   1.00
C605   C     0.01200   0.83342   0.48159   0.00000  Uiso   1.00
C606   C     0.32133   0.83324   0.51841   0.00000  Uiso   1.00
C607   C     0.13452   0.68900   0.46597   0.00000  Uiso   1.00
C608   C     0.19881   0.97767   0.53403   0.00000  Uiso   1.00
C609   C     0.13261   0.97942   0.46532   0.00000  Uiso   1.00
C610   C     0.20073   0.68725   0.53468   0.00000  Uiso   1.00
C611   C     0.16521   0.95740   0.49955   0.00000  Uiso   1.00
C612   C     0.16813   0.70927   0.50045   0.00000  Uiso   1.00
C613   C     0.19901   0.85957   0.36143   0.00000  Uiso   1.00
C614   C     0.13432   0.80710   0.63857   0.00000  Uiso   1.00
C615   C     0.19899   0.85955   0.64683   0.00000  Uiso   1.00
C616   C     0.13434   0.80711   0.35317   0.00000  Uiso   1.00
H617   H     0.10917   0.70672   0.44022   0.00000  Uiso   1.00
H618   H     0.22417   0.95994   0.55978   0.00000  Uiso   1.00
H619   H     0.22489   0.88055   0.38286   0.00000  Uiso   1.00
H620   H     0.10844   0.78612   0.61714   0.00000  Uiso   1.00
H621   H     0.22486   0.88054   0.63200   0.00000  Uiso   1.00
H622   H     0.10848   0.78613   0.36800   0.00000  Uiso   1.00
N623   N     0.16665   0.83332   0.61907   0.00000  Uiso   1.00
N624   N     0.16668   0.83334   0.38093   0.00000  Uiso   1.00
O625   O     0.16666   0.77225   0.53821   0.00000  Uiso   1.00
O626   O     0.16667   0.89442   0.46179   0.00000  Uiso   1.00
O627   O     0.16666   0.77226   0.46176   0.00000  Uiso   1.00
O628   O     0.16667   0.89441   0.53824   0.00000  Uiso   1.00
O629   O     0.09058   0.83333   0.52928   0.00000  Uiso   1.00
O630   O     0.24275   0.83334   0.47072   0.00000  Uiso   1.00
O631   O     0.09058   0.83334   0.45284   0.00000  Uiso   1.00
O632   O     0.24275   0.83333   0.54716   0.00000  Uiso   1.00
Zn633  Zn    0.16667   0.83333   0.55104   0.00000  Uiso   1.00
Zn634  Zn    0.16667   0.83334   0.44896   0.00000  Uiso   1.00
H635   H     0.32472   0.83366   0.44667   0.00000  Uiso   1.00
H636   H     0.00862   0.83301   0.55333   0.00000  Uiso   1.00
C637   C     0.09580   0.95895   0.43054   0.00000  Uiso   1.00
N638   N     0.06635   0.94255   0.40274   0.00000  Uiso   1.00
C639   C     0.23754   0.70772   0.56946   0.00000  Uiso   1.00
N640   N     0.26698   0.72411   0.59726   0.00000  Uiso   1.00
C641   C     0.50095   0.75342   0.50020   0.00000  Uiso   1.00
C642   C     0.49905   0.91324   0.49980   0.00000  Uiso   1.00
C643   C     0.40038   0.83334   0.48803   0.00000  Uiso   1.00
C644   C     0.59962   0.83333   0.51197   0.00000  Uiso   1.00
C645   C     0.34534   0.83342   0.48159   0.00000  Uiso   1.00
C646   C     0.65467   0.83324   0.51841   0.00000  Uiso   1.00
C647   C     0.46785   0.68900   0.46597   0.00000  Uiso   1.00
C648   C     0.53215   0.97767   0.53403   0.00000  Uiso   1.00
C649   C     0.46594   0.97942   0.46532   0.00000  Uiso   1.00
C650   C     0.53406   0.68725   0.53468   0.00000  Uiso   1.00
C651   C     0.49854   0.95740   0.49955   0.00000  Uiso   1.00
C652   C     0.50146   0.70927   0.50045   0.00000  Uiso   1.00
C653   C     0.53234   0.85957   0.36143   0.00000  Uiso   1.00
C654   C     0.46766   0.80710   0.63857   0.00000  Uiso   1.00
C655   C     0.53233   0.85955   0.64683   0.00000  Uiso   1.00
C656   C     0.46767   0.80711   0.35317   0.00000  Uiso   1.00
H657   H     0.44250   0.70672   0.44022   0.00000  Uiso   1.00
H658   H     0.55750   0.95994   0.55978   0.00000  Uiso   1.00
H659   H     0.55823   0.88055   0.38286   0.00000  Uiso   1.00
H660   H     0.44177   0.78612   0.61714   0.00000  Uiso   1.00
H661   H     0.55819   0.88054   0.63200   0.00000  Uiso   1.00
H662   H     0.44181   0.78613   0.36800   0.00000  Uiso   1.00
N663   N     0.49999   0.83332   0.61907   0.00000  Uiso   1.00
N664   N     0.50001   0.83334   0.38093   0.00000  Uiso   1.00
O665   O     0.50000   0.77225   0.53821   0.00000  Uiso   1.00
O666   O     0.50000   0.89442   0.46179   0.00000  Uiso   1.00
O667   O     0.50000   0.77226   0.46176   0.00000  Uiso   1.00
O668   O     0.50000   0.89441   0.53824   0.00000  Uiso   1.00
O669   O     0.42392   0.83333   0.52928   0.00000  Uiso   1.00
O670   O     0.57608   0.83334   0.47072   0.00000  Uiso   1.00
O671   O     0.42392   0.83334   0.45284   0.00000  Uiso   1.00
O672   O     0.57608   0.83333   0.54716   0.00000  Uiso   1.00
Zn673  Zn    0.50000   0.83333   0.55104   0.00000  Uiso   1.00
Zn674  Zn    0.50000   0.83334   0.44896   0.00000  Uiso   1.00
H675   H     0.65805   0.83366   0.44667   0.00000  Uiso   1.00
H676   H     0.34195   0.83301   0.55333   0.00000  Uiso   1.00
C677   C     0.42913   0.95895   0.43054   0.00000  Uiso   1.00
N678   N     0.39969   0.94255   0.40274   0.00000  Uiso   1.00
C679   C     0.57087   0.70772   0.56946   0.00000  Uiso   1.00
N680   N     0.60031   0.72411   0.59726   0.00000  Uiso   1.00
C681   C     0.83429   0.75342   0.50020   0.00000  Uiso   1.00
C682   C     0.83238   0.91324   0.49980   0.00000  Uiso   1.00
C683   C     0.73371   0.83334   0.48803   0.00000  Uiso   1.00
C684   C     0.93296   0.83333   0.51197   0.00000  Uiso   1.00
C685   C     0.67867   0.83342   0.48159   0.00000  Uiso   1.00
C686   C     0.98800   0.83324   0.51841   0.00000  Uiso   1.00
C687   C     0.80119   0.68900   0.46597   0.00000  Uiso   1.00
C688   C     0.86548   0.97767   0.53403   0.00000  Uiso   1.00
C689   C     0.79927   0.97942   0.46532   0.00000  Uiso   1.00
C690   C     0.86739   0.68725   0.53468   0.00000  Uiso   1.00
C691   C     0.83187   0.95740   0.49955   0.00000  Uiso   1.00
C692   C     0.83479   0.70927   0.50045   0.00000  Uiso   1.00
C693   C     0.86568   0.85957   0.36143   0.00000  Uiso   1.00
C694   C     0.80099   0.80710   0.63857   0.00000  Uiso   1.00
C695   C     0.86566   0.85955   0.64683   0.00000  Uiso   1.00
C696   C     0.80101   0.80711   0.35317   0.00000  Uiso   1.00
H697   H     0.77583   0.70672   0.44022   0.00000  Uiso   1.00
H698   H     0.89083   0.95994   0.55978   0.00000  Uiso   1.00
H699   H     0.89156   0.88055   0.38286   0.00000  Uiso   1.00
H700   H     0.77511   0.78612   0.61714   0.00000  Uiso   1.00
H701   H     0.89152   0.88054   0.63200   0.00000  Uiso   1.00
H702   H     0.77514   0.78613   0.36800   0.00000  Uiso   1.00
N703   N     0.83332   0.83332   0.61907   0.00000  Uiso   1.00
N704   N     0.83335   0.83334   0.38093   0.00000  Uiso   1.00
O705   O     0.83333   0.77225   0.53821   0.00000  Uiso   1.00
O706   O     0.83334   0.89442   0.46179   0.00000  Uiso   1.00
O707   O     0.83333   0.77226   0.46176   0.00000  Uiso   1.00
O708   O     0.83334   0.89441   0.53824   0.00000  Uiso   1.00
O709   O     0.75725   0.83333   0.52928   0.00000  Uiso   1.00
O710   O     0.90942   0.83334   0.47072   0.00000  Uiso   1.00
O711   O     0.75725   0.83334   0.45284   0.00000  Uiso   1.00
O712   O     0.90942   0.83333   0.54716   0.00000  Uiso   1.00
Zn713  Zn    0.83333   0.83333   0.55104   0.00000  Uiso   1.00
Zn714  Zn    0.83333   0.83334   0.44896   0.00000  Uiso   1.00
H715   H     0.99138   0.83366   0.44667   0.00000  Uiso   1.00
H716   H     0.67528   0.83301   0.55333   0.00000  Uiso   1.00
C717   C     0.76246   0.95895   0.43054   0.00000  Uiso   1.00
N718   N     0.73302   0.94255   0.40274   0.00000  Uiso   1.00
C719   C     0.90420   0.70772   0.56946   0.00000  Uiso   1.00
N720   N     0.93365   0.72411   0.59726   0.00000  Uiso   1.00
C721   C     0.16762   0.08675   0.83353   0.00000  Uiso   1.00
C722   C     0.16571   0.24658   0.83313   0.00000  Uiso   1.00
C723   C     0.06704   0.16667   0.82136   0.00000  Uiso   1.00
C724   C     0.26629   0.16666   0.84530   0.00000  Uiso   1.00
C725   C     0.01200   0.16676   0.81493   0.00000  Uiso   1.00
C726   C     0.32133   0.16658   0.85174   0.00000  Uiso   1.00
C727   C     0.13452   0.02233   0.79930   0.00000  Uiso   1.00
C728   C     0.19881   0.31100   0.86736   0.00000  Uiso   1.00
C729   C     0.13261   0.31275   0.79865   0.00000  Uiso   1.00
C730   C     0.20073   0.02058   0.86802   0.00000  Uiso   1.00
C731   C     0.16521   0.29073   0.83288   0.00000  Uiso   1.00
C732   C     0.16813   0.04260   0.83378   0.00000  Uiso   1.00
C733   C     0.19901   0.19290   0.69476   0.00000  Uiso   1.00
C734   C     0.13432   0.14043   0.97190   0.00000  Uiso   1.00
C735   C     0.19899   0.19289   0.98016   0.00000  Uiso   1.00
C736   C     0.13434   0.14044   0.68650   0.00000  Uiso   1.00
H737   H     0.10917   0.04006   0.77355   0.00000  Uiso   1.00
H738   H     0.22417   0.29328   0.89312   0.00000  Uiso   1.00
H739   H     0.22489   0.21388   0.71620   0.00000  Uiso   1.00
H740   H     0.10844   0.11945   0.95047   0.00000  Uiso   1.00
H741   H     0.22486   0.21387   0.96534   0.00000  Uiso   1.00
H742   H     0.10848   0.11946   0.70133   0.00000  Uiso   1.00
N743   N     0.16665   0.16666   0.95240   0.00000  Uiso   1.00
N744   N     0.16668   0.16668   0.71427   0.00000  Uiso   1.00
O745   O     0.16666   0.10558   0.87154   0.00000  Uiso   1.00
O746   O     0.16667   0.22775   0.79513   0.00000  Uiso   1.00
O747   O     0.16666   0.10559   0.79510   0.00000  Uiso   1.00
O748   O     0.16667   0.22774   0.87157   0.00000  Uiso   1.00
O749   O     0.09058   0.16666   0.86261   0.00000  Uiso   1.00
O750   O     0.24275   0.16667   0.80405   0.00000  Uiso   1.00
O751   O     0.09058   0.16667   0.78617   0.00000  Uiso   1.00
O752   O     0.24275   0.16666   0.88050   0.00000  Uiso   1.00
Zn753  Zn    0.16667   0.16666   0.88437   0.00000  Uiso   1.00
Zn754  Zn    0.16667   0.16667   0.78229   0.00000  Uiso   1.00
H755   H     0.32472   0.16699   0.78001   0.00000  Uiso   1.00
H756   H     0.00862   0.16634   0.88666   0.00000  Uiso   1.00
C757   C     0.09580   0.29228   0.76387   0.00000  Uiso   1.00
N758   N     0.06635   0.27589   0.73607   0.00000  Uiso   1.00
C759   C     0.23754   0.04105   0.90280   0.00000  Uiso   1.00
N760   N     0.26698   0.05745   0.93059   0.00000  Uiso   1.00
C761   C     0.50095   0.08675   0.83353   0.00000  Uiso   1.00
C762   C     0.49905   0.24658   0.83313   0.00000  Uiso   1.00
C763   C     0.40038   0.16667   0.82136   0.00000  Uiso   1.00
C764   C     0.59962   0.16666   0.84530   0.00000  Uiso   1.00
C765   C     0.34534   0.16676   0.81493   0.00000  Uiso   1.00
C766   C     0.65467   0.16658   0.85174   0.00000  Uiso   1.00
C767   C     0.46785   0.02233   0.79930   0.00000  Uiso   1.00
C768   C     0.53215   0.31100   0.86736   0.00000  Uiso   1.00
C769   C     0.46594   0.31275   0.79865   0.00000  Uiso   1.00
C770   C     0.53406   0.02058   0.86802   0.00000  Uiso   1.00
C771   C     0.49854   0.29073   0.83288   0.00000  Uiso   1.00
C772   C     0.50146   0.04260   0.83378   0.00000  Uiso   1.00
C773   C     0.53234   0.19290   0.69476   0.00000  Uiso   1.00
C774   C     0.46766   0.14043   0.97190   0.00000  Uiso   1.00
C775   C     0.53233   0.19289   0.98016   0.00000  Uiso   1.00
C776   C     0.46767   0.14044   0.68650   0.00000  Uiso   1.00
H777   H     0.44250   0.04006   0.77355   0.00000  Uiso   1.00
H778   H     0.55750   0.29328   0.89312   0.00000  Uiso   1.00
H779   H     0.55823   0.21388   0.71620   0.00000  Uiso   1.00
H780   H     0.44177   0.11945   0.95047   0.00000  Uiso   1.00
H781   H     0.55819   0.21387   0.96534   0.00000  Uiso   1.00
H782   H     0.44181   0.11946   0.70133   0.00000  Uiso   1.00
N783   N     0.49999   0.16666   0.95240   0.00000  Uiso   1.00
N784   N     0.50001   0.16668   0.71427   0.00000  Uiso   1.00
O785   O     0.50000   0.10558   0.87154   0.00000  Uiso   1.00
O786   O     0.50000   0.22775   0.79513   0.00000  Uiso   1.00
O787   O     0.50000   0.10559   0.79510   0.00000  Uiso   1.00
O788   O     0.50000   0.22774   0.87157   0.00000  Uiso   1.00
O789   O     0.42392   0.16666   0.86261   0.00000  Uiso   1.00
O790   O     0.57608   0.16667   0.80405   0.00000  Uiso   1.00
O791   O     0.42392   0.16667   0.78617   0.00000  Uiso   1.00
O792   O     0.57608   0.16666   0.88050   0.00000  Uiso   1.00
Zn793  Zn    0.50000   0.16666   0.88437   0.00000  Uiso   1.00
Zn794  Zn    0.50000   0.16667   0.78229   0.00000  Uiso   1.00
H795   H     0.65805   0.16699   0.78001   0.00000  Uiso   1.00
H796   H     0.34195   0.16634   0.88666   0.00000  Uiso   1.00
C797   C     0.42913   0.29228   0.76387   0.00000  Uiso   1.00
N798   N     0.39969   0.27589   0.73607   0.00000  Uiso   1.00
C799   C     0.57087   0.04105   0.90280   0.00000  Uiso   1.00
N800   N     0.60031   0.05745   0.93059   0.00000  Uiso   1.00
C801   C     0.83429   0.08675   0.83353   0.00000  Uiso   1.00
C802   C     0.83238   0.24658   0.83313   0.00000  Uiso   1.00
C803   C     0.73371   0.16667   0.82136   0.00000  Uiso   1.00
C804   C     0.93296   0.16666   0.84530   0.00000  Uiso   1.00
C805   C     0.67867   0.16676   0.81493   0.00000  Uiso   1.00
C806   C     0.98800   0.16658   0.85174   0.00000  Uiso   1.00
C807   C     0.80119   0.02233   0.79930   0.00000  Uiso   1.00
C808   C     0.86548   0.31100   0.86736   0.00000  Uiso   1.00
C809   C     0.79927   0.31275   0.79865   0.00000  Uiso   1.00
C810   C     0.86739   0.02058   0.86802   0.00000  Uiso   1.00
C811   C     0.83187   0.29073   0.83288   0.00000  Uiso   1.00
C812   C     0.83479   0.04260   0.83378   0.00000  Uiso   1.00
C813   C     0.86568   0.19290   0.69476   0.00000  Uiso   1.00
C814   C     0.80099   0.14043   0.97190   0.00000  Uiso   1.00
C815   C     0.86566   0.19289   0.98016   0.00000  Uiso   1.00
C816   C     0.80101   0.14044   0.68650   0.00000  Uiso   1.00
H817   H     0.77583   0.04006   0.77355   0.00000  Uiso   1.00
H818   H     0.89083   0.29328   0.89312   0.00000  Uiso   1.00
H819   H     0.89156   0.21388   0.71620   0.00000  Uiso   1.00
H820   H     0.77511   0.11945   0.95047   0.00000  Uiso   1.00
H821   H     0.89152   0.21387   0.96534   0.00000  Uiso   1.00
H822   H     0.77514   0.11946   0.70133   0.00000  Uiso   1.00
N823   N     0.83332   0.16666   0.95240   0.00000  Uiso   1.00
N824   N     0.83335   0.16668   0.71427   0.00000  Uiso   1.00
O825   O     0.83333   0.10558   0.87154   0.00000  Uiso   1.00
O826   O     0.83334   0.22775   0.79513   0.00000  Uiso   1.00
O827   O     0.83333   0.10559   0.79510   0.00000  Uiso   1.00
O828   O     0.83334   0.22774   0.87157   0.00000  Uiso   1.00
O829   O     0.75725   0.16666   0.86261   0.00000  Uiso   1.00
O830   O     0.90942   0.16667   0.80405   0.00000  Uiso   1.00
O831   O     0.75725   0.16667   0.78617   0.00000  Uiso   1.00
O832   O     0.90942   0.16666   0.88050   0.00000  Uiso   1.00
Zn833  Zn    0.83333   0.16666   0.88437   0.00000  Uiso   1.00
Zn834  Zn    0.83333   0.16667   0.78229   0.00000  Uiso   1.00
H835   H     0.99138   0.16699   0.78001   0.00000  Uiso   1.00
H836   H     0.67528   0.16634   0.88666   0.00000  Uiso   1.00
C837   C     0.76246   0.29228   0.76387   0.00000  Uiso   1.00
N838   N     0.73302   0.27589   0.73607   0.00000  Uiso   1.00
C839   C     0.90420   0.04105   0.90280   0.00000  Uiso   1.00
N840   N     0.93365   0.05745   0.93059   0.00000  Uiso   1.00
C841   C     0.16762   0.42009   0.83353   0.00000  Uiso   1.00
C842   C     0.16571   0.57991   0.83313   0.00000  Uiso   1.00
C843   C     0.06704   0.50001   0.82136   0.00000  Uiso   1.00
C844   C     0.26629   0.49999   0.84530   0.00000  Uiso   1.00
C845   C     0.01200   0.50009   0.81493   0.00000  Uiso   1.00
C846   C     0.32133   0.49991   0.85174   0.00000  Uiso   1.00
C847   C     0.13452   0.35566   0.79930   0.00000  Uiso   1.00
C848   C     0.19881   0.64434   0.86736   0.00000  Uiso   1.00
C849   C     0.13261   0.64608   0.79865   0.00000  Uiso   1.00
C850   C     0.20073   0.35391   0.86802   0.00000  Uiso   1.00
C851   C     0.16521   0.62406   0.83288   0.00000  Uiso   1.00
C852   C     0.16813   0.37594   0.83378   0.00000  Uiso   1.00
C853   C     0.19901   0.52623   0.69476   0.00000  Uiso   1.00
C854   C     0.13432   0.47377   0.97190   0.00000  Uiso   1.00
C855   C     0.19899   0.52622   0.98016   0.00000  Uiso   1.00
C856   C     0.13434   0.47378   0.68650   0.00000  Uiso   1.00
H857   H     0.10917   0.37339   0.77355   0.00000  Uiso   1.00
H858   H     0.22417   0.62661   0.89312   0.00000  Uiso   1.00
H859   H     0.22489   0.54721   0.71620   0.00000  Uiso   1.00
H860   H     0.10844   0.45279   0.95047   0.00000  Uiso   1.00
H861   H     0.22486   0.54720   0.96534   0.00000  Uiso   1.00
H862   H     0.10848   0.45280   0.70133   0.00000  Uiso   1.00
N863   N     0.16665   0.49999   0.95240   0.00000  Uiso   1.00
N864   N     0.16668   0.50001   0.71427   0.00000  Uiso   1.00
O865   O     0.16666   0.43892   0.87154   0.00000  Uiso   1.00
O866   O     0.16667   0.56108   0.79513   0.00000  Uiso   1.00
O867   O     0.16666   0.43893   0.79510   0.00000  Uiso   1.00
O868   O     0.16667   0.56107   0.87157   0.00000  Uiso   1.00
O869   O     0.09058   0.50000   0.86261   0.00000  Uiso   1.00
O870   O     0.24275   0.50000   0.80405   0.00000  Uiso   1.00
O871   O     0.09058   0.50000   0.78617   0.00000  Uiso   1.00
O872   O     0.24275   0.50000   0.88050   0.00000  Uiso   1.00
Zn873  Zn    0.16667   0.49999   0.88437   0.00000  Uiso   1.00
Zn874  Zn    0.16667   0.50001   0.78229   0.00000  Uiso   1.00
H875   H     0.32472   0.50032   0.78001   0.00000  Uiso   1.00
H876   H     0.00862   0.49968   0.88666   0.00000  Uiso   1.00
C877   C     0.09580   0.62561   0.76387   0.00000  Uiso   1.00
N878   N     0.06635   0.60922   0.73607   0.00000  Uiso   1.00
C879   C     0.23754   0.37439   0.90280   0.00000  Uiso   1.00
N880   N     0.26698   0.39078   0.93059   0.00000  Uiso   1.00
C881   C     0.50095   0.42009   0.83353   0.00000  Uiso   1.00
C882   C     0.49905   0.57991   0.83313   0.00000  Uiso   1.00
C883   C     0.40038   0.50001   0.82136   0.00000  Uiso   1.00
C884   C     0.59962   0.49999   0.84530   0.00000  Uiso   1.00
C885   C     0.34534   0.50009   0.81493   0.00000  Uiso   1.00
C886   C     0.65467   0.49991   0.85174   0.00000  Uiso   1.00
C887   C     0.46785   0.35566   0.79930   0.00000  Uiso   1.00
C888   C     0.53215   0.64434   0.86736   0.00000  Uiso   1.00
C889   C     0.46594   0.64608   0.79865   0.00000  Uiso   1.00
C890   C     0.53406   0.35391   0.86802   0.00000  Uiso   1.00
C891   C     0.49854   0.62406   0.83288   0.00000  Uiso   1.00
C892   C     0.50146   0.37594   0.83378   0.00000  Uiso   1.00
C893   C     0.53234   0.52623   0.69476   0.00000  Uiso   1.00
C894   C     0.46766   0.47377   0.97190   0.00000  Uiso   1.00
C895   C     0.53233   0.52622   0.98016   0.00000  Uiso   1.00
C896   C     0.46767   0.47378   0.68650   0.00000  Uiso   1.00
H897   H     0.44250   0.37339   0.77355   0.00000  Uiso   1.00
H898   H     0.55750   0.62661   0.89312   0.00000  Uiso   1.00
H899   H     0.55823   0.54721   0.71620   0.00000  Uiso   1.00
H900   H     0.44177   0.45279   0.95047   0.00000  Uiso   1.00
H901   H     0.55819   0.54720   0.96534   0.00000  Uiso   1.00
H902   H     0.44181   0.45280   0.70133   0.00000  Uiso   1.00
N903   N     0.49999   0.49999   0.95240   0.00000  Uiso   1.00
N904   N     0.50001   0.50001   0.71427   0.00000  Uiso   1.00
O905   O     0.50000   0.43892   0.87154   0.00000  Uiso   1.00
O906   O     0.50000   0.56108   0.79513   0.00000  Uiso   1.00
O907   O     0.50000   0.43893   0.79510   0.00000  Uiso   1.00
O908   O     0.50000   0.56107   0.87157   0.00000  Uiso   1.00
O909   O     0.42392   0.50000   0.86261   0.00000  Uiso   1.00
O910   O     0.57608   0.50000   0.80405   0.00000  Uiso   1.00
O911   O     0.42392   0.50000   0.78617   0.00000  Uiso   1.00
O912   O     0.57608   0.50000   0.88050   0.00000  Uiso   1.00
Zn913  Zn    0.50000   0.49999   0.88437   0.00000  Uiso   1.00
Zn914  Zn    0.50000   0.50001   0.78229   0.00000  Uiso   1.00
H915   H     0.65805   0.50032   0.78001   0.00000  Uiso   1.00
H916   H     0.34195   0.49968   0.88666   0.00000  Uiso   1.00
C917   C     0.42913   0.62561   0.76387   0.00000  Uiso   1.00
N918   N     0.39969   0.60922   0.73607   0.00000  Uiso   1.00
C919   C     0.57087   0.37439   0.90280   0.00000  Uiso   1.00
N920   N     0.60031   0.39078   0.93059   0.00000  Uiso   1.00
C921   C     0.83429   0.42009   0.83353   0.00000  Uiso   1.00
C922   C     0.83238   0.57991   0.83313   0.00000  Uiso   1.00
C923   C     0.73371   0.50001   0.82136   0.00000  Uiso   1.00
C924   C     0.93296   0.49999   0.84530   0.00000  Uiso   1.00
C925   C     0.67867   0.50009   0.81493   0.00000  Uiso   1.00
C926   C     0.98800   0.49991   0.85174   0.00000  Uiso   1.00
C927   C     0.80119   0.35566   0.79930   0.00000  Uiso   1.00
C928   C     0.86548   0.64434   0.86736   0.00000  Uiso   1.00
C929   C     0.79927   0.64608   0.79865   0.00000  Uiso   1.00
C930   C     0.86739   0.35391   0.86802   0.00000  Uiso   1.00
C931   C     0.83187   0.62406   0.83288   0.00000  Uiso   1.00
C932   C     0.83479   0.37594   0.83378   0.00000  Uiso   1.00
C933   C     0.86568   0.52623   0.69476   0.00000  Uiso   1.00
C934   C     0.80099   0.47377   0.97190   0.00000  Uiso   1.00
C935   C     0.86566   0.52622   0.98016   0.00000  Uiso   1.00
C936   C     0.80101   0.47378   0.68650   0.00000  Uiso   1.00
H937   H     0.77583   0.37339   0.77355   0.00000  Uiso   1.00
H938   H     0.89083   0.62661   0.89312   0.00000  Uiso   1.00
H939   H     0.89156   0.54721   0.71620   0.00000  Uiso   1.00
H940   H     0.77511   0.45279   0.95047   0.00000  Uiso   1.00
H941   H     0.89152   0.54720   0.96534   0.00000  Uiso   1.00
H942   H     0.77514   0.45280   0.70133   0.00000  Uiso   1.00
N943   N     0.83332   0.49999   0.95240   0.00000  Uiso   1.00
N944   N     0.83335   0.50001   0.71427   0.00000  Uiso   1.00
O945   O     0.83333   0.43892   0.87154   0.00000  Uiso   1.00
O946   O     0.83334   0.56108   0.79513   0.00000  Uiso   1.00
O947   O     0.83333   0.43893   0.79510   0.00000  Uiso   1.00
O948   O     0.83334   0.56107   0.87157   0.00000  Uiso   1.00
O949   O     0.75725   0.50000   0.86261   0.00000  Uiso   1.00
O950   O     0.90942   0.50000   0.80405   0.00000  Uiso   1.00
O951   O     0.75725   0.50000   0.78617   0.00000  Uiso   1.00
O952   O     0.90942   0.50000   0.88050   0.00000  Uiso   1.00
Zn953  Zn    0.83333   0.49999   0.88437   0.00000  Uiso   1.00
Zn954  Zn    0.83333   0.50001   0.78229   0.00000  Uiso   1.00
H955   H     0.99138   0.50032   0.78001   0.00000  Uiso   1.00
H956   H     0.67528   0.49968   0.88666   0.00000  Uiso   1.00
C957   C     0.76246   0.62561   0.76387   0.00000  Uiso   1.00
N958   N     0.73302   0.60922   0.73607   0.00000  Uiso   1.00
C959   C     0.90420   0.37439   0.90280   0.00000  Uiso   1.00
N960   N     0.93365   0.39078   0.93059   0.00000  Uiso   1.00
C961   C     0.16762   0.75342   0.83353   0.00000  Uiso   1.00
C962   C     0.16571   0.91324   0.83313   0.00000  Uiso   1.00
C963   C     0.06704   0.83334   0.82136   0.00000  Uiso   1.00
C964   C     0.26629   0.83333   0.84530   0.00000  Uiso   1.00
C965   C     0.01200   0.83342   0.81493   0.00000  Uiso   1.00
C966   C     0.32133   0.83324   0.85174   0.00000  Uiso   1.00
C967   C     0.13452   0.68900   0.79930   0.00000  Uiso   1.00
C968   C     0.19881   0.97767   0.86736   0.00000  Uiso   1.00
C969   C     0.13261   0.97942   0.79865   0.00000  Uiso   1.00
C970   C     0.20073   0.68725   0.86802   0.00000  Uiso   1.00
C971   C     0.16521   0.95740   0.83288   0.00000  Uiso   1.00
C972   C     0.16813   0.70927   0.83378   0.00000  Uiso   1.00
C973   C     0.19901   0.85957   0.69476   0.00000  Uiso   1.00
C974   C     0.13432   0.80710   0.97190   0.00000  Uiso   1.00
C975   C     0.19899   0.85955   0.98016   0.00000  Uiso   1.00
C976   C     0.13434   0.80711   0.68650   0.00000  Uiso   1.00
H977   H     0.10917   0.70672   0.77355   0.00000  Uiso   1.00
H978   H     0.22417   0.95994   0.89312   0.00000  Uiso   1.00
H979   H     0.22489   0.88055   0.71620   0.00000  Uiso   1.00
H980   H     0.10844   0.78612   0.95047   0.00000  Uiso   1.00
H981   H     0.22486   0.88054   0.96534   0.00000  Uiso   1.00
H982   H     0.10848   0.78613   0.70133   0.00000  Uiso   1.00
N983   N     0.16665   0.83332   0.95240   0.00000  Uiso   1.00
N984   N     0.16668   0.83334   0.71427   0.00000  Uiso   1.00
O985   O     0.16666   0.77225   0.87154   0.00000  Uiso   1.00
O986   O     0.16667   0.89442   0.79513   0.00000  Uiso   1.00
O987   O     0.16666   0.77226   0.79510   0.00000  Uiso   1.00
O988   O     0.16667   0.89441   0.87157   0.00000  Uiso   1.00
O989   O     0.09058   0.83333   0.86261   0.00000  Uiso   1.00
O990   O     0.24275   0.83334   0.80405   0.00000  Uiso   1.00
O991   O     0.09058   0.83334   0.78617   0.00000  Uiso   1.00
O992   O     0.24275   0.83333   0.88050   0.00000  Uiso   1.00
Zn993  Zn    0.16667   0.83333   0.88437   0.00000  Uiso   1.00
Zn994  Zn    0.16667   0.83334   0.78229   0.00000  Uiso   1.00
H995   H     0.32472   0.83366   0.78001   0.00000  Uiso   1.00
H996   H     0.00862   0.83301   0.88666   0.00000  Uiso   1.00
C997   C     0.09580   0.95895   0.76387   0.00000  Uiso   1.00
N998   N     0.06635   0.94255   0.73607   0.00000  Uiso   1.00
C999   C     0.23754   0.70772   0.90280   0.00000  Uiso   1.00
N1000  N     0.26698   0.72411   0.93059   0.00000  Uiso   1.00
C1001  C     0.50095   0.75342   0.83353   0.00000  Uiso   1.00
C1002  C     0.49905   0.91324   0.83313   0.00000  Uiso   1.00
C1003  C     0.40038   0.83334   0.82136   0.00000  Uiso   1.00
C1004  C     0.59962   0.83333   0.84530   0.00000  Uiso   1.00
C1005  C     0.34534   0.83342   0.81493   0.00000  Uiso   1.00
C1006  C     0.65467   0.83324   0.85174   0.00000  Uiso   1.00
C1007  C     0.46785   0.68900   0.79930   0.00000  Uiso   1.00
C1008  C     0.53215   0.97767   0.86736   0.00000  Uiso   1.00
C1009  C     0.46594   0.97942   0.79865   0.00000  Uiso   1.00
C1010  C     0.53406   0.68725   0.86802   0.00000  Uiso   1.00
C1011  C     0.49854   0.95740   0.83288   0.00000  Uiso   1.00
C1012  C     0.50146   0.70927   0.83378   0.00000  Uiso   1.00
C1013  C     0.53234   0.85957   0.69476   0.00000  Uiso   1.00
C1014  C     0.46766   0.80710   0.97190   0.00000  Uiso   1.00
C1015  C     0.53233   0.85955   0.98016   0.00000  Uiso   1.00
C1016  C     0.46767   0.80711   0.68650   0.00000  Uiso   1.00
H1017  H     0.44250   0.70672   0.77355   0.00000  Uiso   1.00
H1018  H     0.55750   0.95994   0.89312   0.00000  Uiso   1.00
H1019  H     0.55823   0.88055   0.71620   0.00000  Uiso   1.00
H1020  H     0.44177   0.78612   0.95047   0.00000  Uiso   1.00
H1021  H     0.55819   0.88054   0.96534   0.00000  Uiso   1.00
H1022  H     0.44181   0.78613   0.70133   0.00000  Uiso   1.00
N1023  N     0.49999   0.83332   0.95240   0.00000  Uiso   1.00
N1024  N     0.50001   0.83334   0.71427   0.00000  Uiso   1.00
O1025  O     0.50000   0.77225   0.87154   0.00000  Uiso   1.00
O1026  O     0.50000   0.89442   0.79513   0.00000  Uiso   1.00
O1027  O     0.50000   0.77226   0.79510   0.00000  Uiso   1.00
O1028  O     0.50000   0.89441   0.87157   0.00000  Uiso   1.00
O1029  O     0.42392   0.83333   0.86261   0.00000  Uiso   1.00
O1030  O     0.57608   0.83334   0.80405   0.00000  Uiso   1.00
O1031  O     0.42392   0.83334   0.78617   0.00000  Uiso   1.00
O1032  O     0.57608   0.83333   0.88050   0.00000  Uiso   1.00
Zn1033 Zn    0.50000   0.83333   0.88437   0.00000  Uiso   1.00
Zn1034 Zn    0.50000   0.83334   0.78229   0.00000  Uiso   1.00
H1035  H     0.65805   0.83366   0.78001   0.00000  Uiso   1.00
H1036  H     0.34195   0.83301   0.88666   0.00000  Uiso   1.00
C1037  C     0.42913   0.95895   0.76387   0.00000  Uiso   1.00
N1038  N     0.39969   0.94255   0.73607   0.00000  Uiso   1.00
C1039  C     0.57087   0.70772   0.90280   0.00000  Uiso   1.00
N1040  N     0.60031   0.72411   0.93059   0.00000  Uiso   1.00
C1041  C     0.83429   0.75342   0.83353   0.00000  Uiso   1.00
C1042  C     0.83238   0.91324   0.83313   0.00000  Uiso   1.00
C1043  C     0.73371   0.83334   0.82136   0.00000  Uiso   1.00
C1044  C     0.93296   0.83333   0.84530   0.00000  Uiso   1.00
C1045  C     0.67867   0.83342   0.81493   0.00000  Uiso   1.00
C1046  C     0.98800   0.83324   0.85174   0.00000  Uiso   1.00
C1047  C     0.80119   0.68900   0.79930   0.00000  Uiso   1.00
C1048  C     0.86548   0.97767   0.86736   0.00000  Uiso   1.00
C1049  C     0.79927   0.97942   0.79865   0.00000  Uiso   1.00
C1050  C     0.86739   0.68725   0.86802   0.00000  Uiso   1.00
C1051  C     0.83187   0.95740   0.83288   0.00000  Uiso   1.00
C1052  C     0.83479   0.70927   0.83378   0.00000  Uiso   1.00
C1053  C     0.86568   0.85957   0.69476   0.00000  Uiso   1.00
C1054  C     0.80099   0.80710   0.97190   0.00000  Uiso   1.00
C1055  C     0.86566   0.85955   0.98016   0.00000  Uiso   1.00
C1056  C     0.80101   0.80711   0.68650   0.00000  Uiso   1.00
H1057  H     0.77583   0.70672   0.77355   0.00000  Uiso   1.00
H1058  H     0.89083   0.95994   0.89312   0.00000  Uiso   1.00
H1059  H     0.89156   0.88055   0.71620   0.00000  Uiso   1.00
H1060  H     0.77511   0.78612   0.95047   0.00000  Uiso   1.00
H1061  H     0.89152   0.88054   0.96534   0.00000  Uiso   1.00
H1062  H     0.77514   0.78613   0.70133   0.00000  Uiso   1.00
N1063  N     0.83332   0.83332   0.95240   0.00000  Uiso   1.00
N1064  N     0.83335   0.83334   0.71427   0.00000  Uiso   1.00
O1065  O     0.83333   0.77225   0.87154   0.00000  Uiso   1.00
O1066  O     0.83334   0.89442   0.79513   0.00000  Uiso   1.00
O1067  O     0.83333   0.77226   0.79510   0.00000  Uiso   1.00
O1068  O     0.83334   0.89441   0.87157   0.00000  Uiso   1.00
O1069  O     0.75725   0.83333   0.86261   0.00000  Uiso   1.00
O1070  O     0.90942   0.83334   0.80405   0.00000  Uiso   1.00
O1071  O     0.75725   0.83334   0.78617   0.00000  Uiso   1.00
O1072  O     0.90942   0.83333   0.88050   0.00000  Uiso   1.00
Zn1073 Zn    0.83333   0.83333   0.88437   0.00000  Uiso   1.00
Zn1074 Zn    0.83333   0.83334   0.78229   0.00000  Uiso   1.00
H1075  H     0.99138   0.83366   0.78001   0.00000  Uiso   1.00
H1076  H     0.67528   0.83301   0.88666   0.00000  Uiso   1.00
C1077  C     0.76246   0.95895   0.76387   0.00000  Uiso   1.00
N1078  N     0.73302   0.94255   0.73607   0.00000  Uiso   1.00
C1079  C     0.90420   0.70772   0.90280   0.00000  Uiso   1.00
N1080  N     0.93365   0.72411   0.93059   0.00000  Uiso   1.00
loop_
_geom_bond_atom_site_label_1
_geom_bond_atom_site_label_2
_geom_bond_distance
_geom_bond_site_symmetry_2
_ccdc_geom_bond_type
C1     O25     1.280   .     A
C1     C12     1.413   .     S
C1     O27     1.282   .     A
C2     O28     1.282   .     A
C2     O26     1.280   .     A
C2     C11     1.413   .     S
C3     O31     1.281   .     A
C3     O29     1.278   .     A
C3     C5      1.403   .     S
C4     O32     1.281   .     A
C4     C6      1.403   .     S
C4     O30     1.278   .     A
C5     C86     1.330   1_455 S
C5     H115    1.088   1_455 S
C6     C45     1.330   .     S
C6     H76     1.088   .     S
C7     C12     1.395   .     A
C7     H17     1.086   .     S
C7     C249    1.374   1_545 S
C8     H18     1.086   .     S
C8     C11     1.395   .     A
C8     C130    1.374   .     S
C9     C11     1.404   .     A
C9     C37     1.447   .     S
C9     C127    1.374   .     S
C10    C12     1.404   .     A
C10    C39     1.447   .     S
C10    C248    1.374   1_545 S
C13    H19     1.082   .     S
C13    N24     1.367   .     A
C13    C735    1.417   1_554 S
C14    N23     1.367   .     A
C14    H20     1.082   .     S
C14    C376    1.417   .     S
C15    N23     1.367   .     A
C15    H21     1.082   .     S
C15    C373    1.417   .     S
C16    N24     1.367   .     A
C16    H22     1.082   .     S
C16    C734    1.417   1_554 S
N23    Zn33    2.012   .     S
N24    Zn34    2.012   .     S
O25    Zn33    1.993   .     S
O26    Zn34    1.993   .     S
O27    Zn34    1.990   .     S
O28    Zn33    1.990   .     S
O29    Zn33    1.970   .     S
O30    Zn34    1.970   .     S
O31    Zn34    1.981   .     S
O32    Zn33    1.981   .     S
H35    C45     1.088   .     S
H36    C86     1.088   1_455 S
C37    N38     1.157   .     T
C39    N40     1.157   .     T
C41    O65     1.280   .     A
C41    C52     1.413   .     S
C41    O67     1.282   .     A
C42    O68     1.282   .     A
C42    O66     1.280   .     A
C42    C51     1.413   .     S
C43    O71     1.281   .     A
C43    O69     1.278   .     A
C43    C45     1.403   .     S
C44    O72     1.281   .     A
C44    C46     1.403   .     S
C44    O70     1.278   .     A
C46    C85     1.330   .     S
C46    H116    1.088   .     S
C47    C52     1.395   .     A
C47    H57     1.086   .     S
C47    C289    1.374   1_545 S
C48    H58     1.086   .     S
C48    C51     1.395   .     A
C48    C170    1.374   .     S
C49    C51     1.404   .     A
C49    C77     1.447   .     S
C49    C167    1.374   .     S
C50    C52     1.404   .     A
C50    C79     1.447   .     S
C50    C288    1.374   1_545 S
C53    H59     1.082   .     S
C53    N64     1.367   .     A
C53    C775    1.417   1_554 S
C54    N63     1.367   .     A
C54    H60     1.082   .     S
C54    C416    1.417   .     S
C55    N63     1.367   .     A
C55    H61     1.082   .     S
C55    C413    1.417   .     S
C56    N64     1.367   .     A
C56    H62     1.082   .     S
C56    C774    1.417   1_554 S
N63    Zn73    2.012   .     S
N64    Zn74    2.012   .     S
O65    Zn73    1.993   .     S
O66    Zn74    1.993   .     S
O67    Zn74    1.990   .     S
O68    Zn73    1.990   .     S
O69    Zn73    1.970   .     S
O70    Zn74    1.970   .     S
O71    Zn74    1.981   .     S
O72    Zn73    1.981   .     S
H75    C85     1.088   .     S
C77    N78     1.157   .     T
C79    N80     1.157   .     T
C81    O105    1.280   .     A
C81    C92     1.413   .     S
C81    O107    1.282   .     A
C82    O108    1.282   .     A
C82    O106    1.280   .     A
C82    C91     1.413   .     S
C83    O111    1.281   .     A
C83    O109    1.278   .     A
C83    C85     1.403   .     S
C84    O112    1.281   .     A
C84    C86     1.403   .     S
C84    O110    1.278   .     A
C86    C5      1.330   1_655 S
C86    H36     1.088   1_655 S
C87    C92     1.395   .     A
C87    H97     1.086   .     S
C87    C329    1.374   1_545 S
C88    H98     1.086   .     S
C88    C91     1.395   .     A
C88    C210    1.374   .     S
C89    C91     1.404   .     A
C89    C117    1.447   .     S
C89    C207    1.374   .     S
C90    C92     1.404   .     A
C90    C119    1.447   .     S
C90    C328    1.374   1_545 S
C93    H99     1.082   .     S
C93    N104    1.367   .     A
C93    C815    1.417   1_554 S
C94    N103    1.367   .     A
C94    H100    1.082   .     S
C94    C456    1.417   .     S
C95    N103    1.367   .     A
C95    H101    1.082   .     S
C95    C453    1.417   .     S
C96    N104    1.367   .     A
C96    H102    1.082   .     S
C96    C814    1.417   1_554 S
N103   Zn113   2.012   .     S
N104   Zn114   2.012   .     S
O105   Zn113   1.993   .     S
O106   Zn114   1.993   .     S
O107   Zn114   1.990   .     S
O108   Zn113   1.990   .     S
O109   Zn113   1.970   .     S
O110   Zn114   1.970   .     S
O111   Zn114   1.981   .     S
O112   Zn113   1.981   .     S
H115   C5      1.088   1_655 S
C117   N118    1.157   .     T
C119   N120    1.157   .     T
C121   O145    1.280   .     A
C121   C132    1.413   .     S
C121   O147    1.282   .     A
C122   O148    1.282   .     A
C122   O146    1.280   .     A
C122   C131    1.413   .     S
C123   O151    1.281   .     A
C123   O149    1.278   .     A
C123   C125    1.403   .     S
C124   O152    1.281   .     A
C124   C126    1.403   .     S
C124   O150    1.278   .     A
C125   C206    1.330   1_455 S
C125   H235    1.088   1_455 S
C126   C165    1.330   .     S
C126   H196    1.088   .     S
C127   C132    1.395   .     A
C127   H137    1.086   .     S
C128   H138    1.086   .     S
C128   C131    1.395   .     A
C128   C250    1.374   .     S
C129   C131    1.404   .     A
C129   C157    1.447   .     S
C129   C247    1.374   .     S
C130   C132    1.404   .     A
C130   C159    1.447   .     S
C133   H139    1.082   .     S
C133   N144    1.367   .     A
C133   C855    1.417   1_554 S
C134   N143    1.367   .     A
C134   H140    1.082   .     S
C134   C496    1.417   .     S
C135   N143    1.367   .     A
C135   H141    1.082   .     S
C135   C493    1.417   .     S
C136   N144    1.367   .     A
C136   H142    1.082   .     S
C136   C854    1.417   1_554 S
N143   Zn153   2.012   .     S
N144   Zn154   2.012   .     S
O145   Zn153   1.993   .     S
O146   Zn154   1.993   .     S
O147   Zn154   1.990   .     S
O148   Zn153   1.990   .     S
O149   Zn153   1.970   .     S
O150   Zn154   1.970   .     S
O151   Zn154   1.981   .     S
O152   Zn153   1.981   .     S
H155   C165    1.088   .     S
H156   C206    1.088   1_455 S
C157   N158    1.157   .     T
C159   N160    1.157   .     T
C161   O185    1.280   .     A
C161   C172    1.413   .     S
C161   O187    1.282   .     A
C162   O188    1.282   .     A
C162   O186    1.280   .     A
C162   C171    1.413   .     S
C163   O191    1.281   .     A
C163   O189    1.278   .     A
C163   C165    1.403   .     S
C164   O192    1.281   .     A
C164   C166    1.403   .     S
C164   O190    1.278   .     A
C166   C205    1.330   .     S
C166   H236    1.088   .     S
C167   C172    1.395   .     A
C167   H177    1.086   .     S
C168   H178    1.086   .     S
C168   C171    1.395   .     A
C168   C290    1.374   .     S
C169   C171    1.404   .     A
C169   C197    1.447   .     S
C169   C287    1.374   .     S
C170   C172    1.404   .     A
C170   C199    1.447   .     S
C173   H179    1.082   .     S
C173   N184    1.367   .     A
C173   C895    1.417   1_554 S
C174   N183    1.367   .     A
C174   H180    1.082   .     S
C174   C536    1.417   .     S
C175   N183    1.367   .     A
C175   H181    1.082   .     S
C175   C533    1.417   .     S
C176   N184    1.367   .     A
C176   H182    1.082   .     S
C176   C894    1.417   1_554 S
N183   Zn193   2.012   .     S
N184   Zn194   2.012   .     S
O185   Zn193   1.993   .     S
O186   Zn194   1.993   .     S
O187   Zn194   1.990   .     S
O188   Zn193   1.990   .     S
O189   Zn193   1.970   .     S
O190   Zn194   1.970   .     S
O191   Zn194   1.981   .     S
O192   Zn193   1.981   .     S
H195   C205    1.088   .     S
C197   N198    1.157   .     T
C199   N200    1.157   .     T
C201   O225    1.280   .     A
C201   C212    1.413   .     S
C201   O227    1.282   .     A
C202   O228    1.282   .     A
C202   O226    1.280   .     A
C202   C211    1.413   .     S
C203   O231    1.281   .     A
C203   O229    1.278   .     A
C203   C205    1.403   .     S
C204   O232    1.281   .     A
C204   C206    1.403   .     S
C204   O230    1.278   .     A
C206   C125    1.330   1_655 S
C206   H156    1.088   1_655 S
C207   C212    1.395   .     A
C207   H217    1.086   .     S
C208   H218    1.086   .     S
C208   C211    1.395   .     A
C208   C330    1.374   .     S
C209   C211    1.404   .     A
C209   C237    1.447   .     S
C209   C327    1.374   .     S
C210   C212    1.404   .     A
C210   C239    1.447   .     S
C213   H219    1.082   .     S
C213   N224    1.367   .     A
C213   C935    1.417   1_554 S
C214   N223    1.367   .     A
C214   H220    1.082   .     S
C214   C576    1.417   .     S
C215   N223    1.367   .     A
C215   H221    1.082   .     S
C215   C573    1.417   .     S
C216   N224    1.367   .     A
C216   H222    1.082   .     S
C216   C934    1.417   1_554 S
N223   Zn233   2.012   .     S
N224   Zn234   2.012   .     S
O225   Zn233   1.993   .     S
O226   Zn234   1.993   .     S
O227   Zn234   1.990   .     S
O228   Zn233   1.990   .     S
O229   Zn233   1.970   .     S
O230   Zn234   1.970   .     S
O231   Zn234   1.981   .     S
O232   Zn233   1.981   .     S
H235   C125    1.088   1_655 S
C237   N238    1.157   .     T
C239   N240    1.157   .     T
C241   O265    1.280   .     A
C241   C252    1.413   .     S
C241   O267    1.282   .     A
C242   O268    1.282   .     A
C242   O266    1.280   .     A
C242   C251    1.413   .     S
C243   O271    1.281   .     A
C243   O269    1.278   .     A
C243   C245    1.403   .     S
C244   O272    1.281   .     A
C244   C246    1.403   .     S
C244   O270    1.278   .     A
C245   C326    1.330   1_455 S
C245   H355    1.088   1_455 S
C246   C285    1.330   .     S
C246   H316    1.088   .     S
C247   C252    1.395   .     A
C247   H257    1.086   .     S
C248   H258    1.086   .     S
C248   C251    1.395   .     A
C248   C10     1.374   1_565 S
C249   C251    1.404   .     A
C249   C277    1.447   .     S
C249   C7      1.374   1_565 S
C250   C252    1.404   .     A
C250   C279    1.447   .     S
C253   H259    1.082   .     S
C253   N264    1.367   .     A
C253   C975    1.417   1_554 S
C254   N263    1.367   .     A
C254   H260    1.082   .     S
C254   C616    1.417   .     S
C255   N263    1.367   .     A
C255   H261    1.082   .     S
C255   C613    1.417   .     S
C256   N264    1.367   .     A
C256   H262    1.082   .     S
C256   C974    1.417   1_554 S
N263   Zn273   2.012   .     S
N264   Zn274   2.012   .     S
O265   Zn273   1.993   .     S
O266   Zn274   1.993   .     S
O267   Zn274   1.990   .     S
O268   Zn273   1.990   .     S
O269   Zn273   1.970   .     S
O270   Zn274   1.970   .     S
O271   Zn274   1.981   .     S
O272   Zn273   1.981   .     S
H275   C285    1.088   .     S
H276   C326    1.088   1_455 S
C277   N278    1.157   .     T
C279   N280    1.157   .     T
C281   O305    1.280   .     A
C281   C292    1.413   .     S
C281   O307    1.282   .     A
C282   O308    1.282   .     A
C282   O306    1.280   .     A
C282   C291    1.413   .     S
C283   O311    1.281   .     A
C283   O309    1.278   .     A
C283   C285    1.403   .     S
C284   O312    1.281   .     A
C284   C286    1.403   .     S
C284   O310    1.278   .     A
C286   C325    1.330   .     S
C286   H356    1.088   .     S
C287   C292    1.395   .     A
C287   H297    1.086   .     S
C288   H298    1.086   .     S
C288   C291    1.395   .     A
C288   C50     1.374   1_565 S
C289   C291    1.404   .     A
C289   C317    1.447   .     S
C289   C47     1.374   1_565 S
C290   C292    1.404   .     A
C290   C319    1.447   .     S
C293   H299    1.082   .     S
C293   N304    1.367   .     A
C293   C1015   1.417   1_554 S
C294   N303    1.367   .     A
C294   H300    1.082   .     S
C294   C656    1.417   .     S
C295   N303    1.367   .     A
C295   H301    1.082   .     S
C295   C653    1.417   .     S
C296   N304    1.367   .     A
C296   H302    1.082   .     S
C296   C1014   1.417   1_554 S
N303   Zn313   2.012   .     S
N304   Zn314   2.012   .     S
O305   Zn313   1.993   .     S
O306   Zn314   1.993   .     S
O307   Zn314   1.990   .     S
O308   Zn313   1.990   .     S
O309   Zn313   1.970   .     S
O310   Zn314   1.970   .     S
O311   Zn314   1.981   .     S
O312   Zn313   1.981   .     S
H315   C325    1.088   .     S
C317   N318    1.157   .     T
C319   N320    1.157   .     T
C321   O345    1.280   .     A
C321   C332    1.413   .     S
C321   O347    1.282   .     A
C322   O348    1.282   .     A
C322   O346    1.280   .     A
C322   C331    1.413   .     S
C323   O351    1.281   .     A
C323   O349    1.278   .     A
C323   C325    1.403   .     S
C324   O352    1.281   .     A
C324   C326    1.403   .     S
C324   O350    1.278   .     A
C326   C245    1.330   1_655 S
C326   H276    1.088   1_655 S
C327   C332    1.395   .     A
C327   H337    1.086   .     S
C328   H338    1.086   .     S
C328   C331    1.395   .     A
C328   C90     1.374   1_565 S
C329   C331    1.404   .     A
C329   C357    1.447   .     S
C329   C87     1.374   1_565 S
C330   C332    1.404   .     A
C330   C359    1.447   .     S
C333   H339    1.082   .     S
C333   N344    1.367   .     A
C333   C1055   1.417   1_554 S
C334   N343    1.367   .     A
C334   H340    1.082   .     S
C334   C696    1.417   .     S
C335   N343    1.367   .     A
C335   H341    1.082   .     S
C335   C693    1.417   .     S
C336   N344    1.367   .     A
C336   H342    1.082   .     S
C336   C1054   1.417   1_554 S
N343   Zn353   2.012   .     S
N344   Zn354   2.012   .     S
O345   Zn353   1.993   .     S
O346   Zn354   1.993   .     S
O347   Zn354   1.990   .     S
O348   Zn353   1.990   .     S
O349   Zn353   1.970   .     S
O350   Zn354   1.970   .     S
O351   Zn354   1.981   .     S
O352   Zn353   1.981   .     S
H355   C245    1.088   1_655 S
C357   N358    1.157   .     T
C359   N360    1.157   .     T
C361   O385    1.280   .     A
C361   C372    1.413   .     S
C361   O387    1.282   .     A
C362   O388    1.282   .     A
C362   O386    1.280   .     A
C362   C371    1.413   .     S
C363   O391    1.281   .     A
C363   O389    1.278   .     A
C363   C365    1.403   .     S
C364   O392    1.281   .     A
C364   C366    1.403   .     S
C364   O390    1.278   .     A
C365   C446    1.330   1_455 S
C365   H475    1.088   1_455 S
C366   C405    1.330   .     S
C366   H436    1.088   .     S
C367   C372    1.395   .     A
C367   H377    1.086   .     S
C367   C609    1.374   1_545 S
C368   H378    1.086   .     S
C368   C371    1.395   .     A
C368   C490    1.374   .     S
C369   C371    1.404   .     A
C369   C397    1.447   .     S
C369   C487    1.374   .     S
C370   C372    1.404   .     A
C370   C399    1.447   .     S
C370   C608    1.374   1_545 S
C373   H379    1.082   .     S
C373   N384    1.367   .     A
C374   N383    1.367   .     A
C374   H380    1.082   .     S
C374   C736    1.417   .     S
C375   N383    1.367   .     A
C375   H381    1.082   .     S
C375   C733    1.417   .     S
C376   N384    1.367   .     A
C376   H382    1.082   .     S
N383   Zn393   2.012   .     S
N384   Zn394   2.012   .     S
O385   Zn393   1.993   .     S
O386   Zn394   1.993   .     S
O387   Zn394   1.990   .     S
O388   Zn393   1.990   .     S
O389   Zn393   1.970   .     S
O390   Zn394   1.970   .     S
O391   Zn394   1.981   .     S
O392   Zn393   1.981   .     S
H395   C405    1.088   .     S
H396   C446    1.088   1_455 S
C397   N398    1.157   .     T
C399   N400    1.157   .     T
C401   O425    1.280   .     A
C401   C412    1.413   .     S
C401   O427    1.282   .     A
C402   O428    1.282   .     A
C402   O426    1.280   .     A
C402   C411    1.413   .     S
C403   O431    1.281   .     A
C403   O429    1.278   .     A
C403   C405    1.403   .     S
C404   O432    1.281   .     A
C404   C406    1.403   .     S
C404   O430    1.278   .     A
C406   C445    1.330   .     S
C406   H476    1.088   .     S
C407   C412    1.395   .     A
C407   H417    1.086   .     S
C407   C649    1.374   1_545 S
C408   H418    1.086   .     S
C408   C411    1.395   .     A
C408   C530    1.374   .     S
C409   C411    1.404   .     A
C409   C437    1.447   .     S
C409   C527    1.374   .     S
C410   C412    1.404   .     A
C410   C439    1.447   .     S
C410   C648    1.374   1_545 S
C413   H419    1.082   .     S
C413   N424    1.367   .     A
C414   N423    1.367   .     A
C414   H420    1.082   .     S
C414   C776    1.417   .     S
C415   N423    1.367   .     A
C415   H421    1.082   .     S
C415   C773    1.417   .     S
C416   N424    1.367   .     A
C416   H422    1.082   .     S
N423   Zn433   2.012   .     S
N424   Zn434   2.012   .     S
O425   Zn433   1.993   .     S
O426   Zn434   1.993   .     S
O427   Zn434   1.990   .     S
O428   Zn433   1.990   .     S
O429   Zn433   1.970   .     S
O430   Zn434   1.970   .     S
O431   Zn434   1.981   .     S
O432   Zn433   1.981   .     S
H435   C445    1.088   .     S
C437   N438    1.157   .     T
C439   N440    1.157   .     T
C441   O465    1.280   .     A
C441   C452    1.413   .     S
C441   O467    1.282   .     A
C442   O468    1.282   .     A
C442   O466    1.280   .     A
C442   C451    1.413   .     S
C443   O471    1.281   .     A
C443   O469    1.278   .     A
C443   C445    1.403   .     S
C444   O472    1.281   .     A
C444   C446    1.403   .     S
C444   O470    1.278   .     A
C446   C365    1.330   1_655 S
C446   H396    1.088   1_655 S
C447   C452    1.395   .     A
C447   H457    1.086   .     S
C447   C689    1.374   1_545 S
C448   H458    1.086   .     S
C448   C451    1.395   .     A
C448   C570    1.374   .     S
C449   C451    1.404   .     A
C449   C477    1.447   .     S
C449   C567    1.374   .     S
C450   C452    1.404   .     A
C450   C479    1.447   .     S
C450   C688    1.374   1_545 S
C453   H459    1.082   .     S
C453   N464    1.367   .     A
C454   N463    1.367   .     A
C454   H460    1.082   .     S
C454   C816    1.417   .     S
C455   N463    1.367   .     A
C455   H461    1.082   .     S
C455   C813    1.417   .     S
C456   N464    1.367   .     A
C456   H462    1.082   .     S
N463   Zn473   2.012   .     S
N464   Zn474   2.012   .     S
O465   Zn473   1.993   .     S
O466   Zn474   1.993   .     S
O467   Zn474   1.990   .     S
O468   Zn473   1.990   .     S
O469   Zn473   1.970   .     S
O470   Zn474   1.970   .     S
O471   Zn474   1.981   .     S
O472   Zn473   1.981   .     S
H475   C365    1.088   1_655 S
C477   N478    1.157   .     T
C479   N480    1.157   .     T
C481   O505    1.280   .     A
C481   C492    1.413   .     S
C481   O507    1.282   .     A
C482   O508    1.282   .     A
C482   O506    1.280   .     A
C482   C491    1.413   .     S
C483   O511    1.281   .     A
C483   O509    1.278   .     A
C483   C485    1.403   .     S
C484   O512    1.281   .     A
C484   C486    1.403   .     S
C484   O510    1.278   .     A
C485   C566    1.330   1_455 S
C485   H595    1.088   1_455 S
C486   C525    1.330   .     S
C486   H556    1.088   .     S
C487   C492    1.395   .     A
C487   H497    1.086   .     S
C488   H498    1.086   .     S
C488   C491    1.395   .     A
C488   C610    1.374   .     S
C489   C491    1.404   .     A
C489   C517    1.447   .     S
C489   C607    1.374   .     S
C490   C492    1.404   .     A
C490   C519    1.447   .     S
C493   H499    1.082   .     S
C493   N504    1.367   .     A
C494   N503    1.367   .     A
C494   H500    1.082   .     S
C494   C856    1.417   .     S
C495   N503    1.367   .     A
C495   H501    1.082   .     S
C495   C853    1.417   .     S
C496   N504    1.367   .     A
C496   H502    1.082   .     S
N503   Zn513   2.012   .     S
N504   Zn514   2.012   .     S
O505   Zn513   1.993   .     S
O506   Zn514   1.993   .     S
O507   Zn514   1.990   .     S
O508   Zn513   1.990   .     S
O509   Zn513   1.970   .     S
O510   Zn514   1.970   .     S
O511   Zn514   1.981   .     S
O512   Zn513   1.981   .     S
H515   C525    1.088   .     S
H516   C566    1.088   1_455 S
C517   N518    1.157   .     T
C519   N520    1.157   .     T
C521   O545    1.280   .     A
C521   C532    1.413   .     S
C521   O547    1.282   .     A
C522   O548    1.282   .     A
C522   O546    1.280   .     A
C522   C531    1.413   .     S
C523   O551    1.281   .     A
C523   O549    1.278   .     A
C523   C525    1.403   .     S
C524   O552    1.281   .     A
C524   C526    1.403   .     S
C524   O550    1.278   .     A
C526   C565    1.330   .     S
C526   H596    1.088   .     S
C527   C532    1.395   .     A
C527   H537    1.086   .     S
C528   H538    1.086   .     S
C528   C531    1.395   .     A
C528   C650    1.374   .     S
C529   C531    1.404   .     A
C529   C557    1.447   .     S
C529   C647    1.374   .     S
C530   C532    1.404   .     A
C530   C559    1.447   .     S
C533   H539    1.082   .     S
C533   N544    1.367   .     A
C534   N543    1.367   .     A
C534   H540    1.082   .     S
C534   C896    1.417   .     S
C535   N543    1.367   .     A
C535   H541    1.082   .     S
C535   C893    1.417   .     S
C536   N544    1.367   .     A
C536   H542    1.082   .     S
N543   Zn553   2.012   .     S
N544   Zn554   2.012   .     S
O545   Zn553   1.993   .     S
O546   Zn554   1.993   .     S
O547   Zn554   1.990   .     S
O548   Zn553   1.990   .     S
O549   Zn553   1.970   .     S
O550   Zn554   1.970   .     S
O551   Zn554   1.981   .     S
O552   Zn553   1.981   .     S
H555   C565    1.088   .     S
C557   N558    1.157   .     T
C559   N560    1.157   .     T
C561   O585    1.280   .     A
C561   C572    1.413   .     S
C561   O587    1.282   .     A
C562   O588    1.282   .     A
C562   O586    1.280   .     A
C562   C571    1.413   .     S
C563   O591    1.281   .     A
C563   O589    1.278   .     A
C563   C565    1.403   .     S
C564   O592    1.281   .     A
C564   C566    1.403   .     S
C564   O590    1.278   .     A
C566   C485    1.330   1_655 S
C566   H516    1.088   1_655 S
C567   C572    1.395   .     A
C567   H577    1.086   .     S
C568   H578    1.086   .     S
C568   C571    1.395   .     A
C568   C690    1.374   .     S
C569   C571    1.404   .     A
C569   C597    1.447   .     S
C569   C687    1.374   .     S
C570   C572    1.404   .     A
C570   C599    1.447   .     S
C573   H579    1.082   .     S
C573   N584    1.367   .     A
C574   N583    1.367   .     A
C574   H580    1.082   .     S
C574   C936    1.417   .     S
C575   N583    1.367   .     A
C575   H581    1.082   .     S
C575   C933    1.417   .     S
C576   N584    1.367   .     A
C576   H582    1.082   .     S
N583   Zn593   2.012   .     S
N584   Zn594   2.012   .     S
O585   Zn593   1.993   .     S
O586   Zn594   1.993   .     S
O587   Zn594   1.990   .     S
O588   Zn593   1.990   .     S
O589   Zn593   1.970   .     S
O590   Zn594   1.970   .     S
O591   Zn594   1.981   .     S
O592   Zn593   1.981   .     S
H595   C485    1.088   1_655 S
C597   N598    1.157   .     T
C599   N600    1.157   .     T
C601   O625    1.280   .     A
C601   C612    1.413   .     S
C601   O627    1.282   .     A
C602   O628    1.282   .     A
C602   O626    1.280   .     A
C602   C611    1.413   .     S
C603   O631    1.281   .     A
C603   O629    1.278   .     A
C603   C605    1.403   .     S
C604   O632    1.281   .     A
C604   C606    1.403   .     S
C604   O630    1.278   .     A
C605   C686    1.330   1_455 S
C605   H715    1.088   1_455 S
C606   C645    1.330   .     S
C606   H676    1.088   .     S
C607   C612    1.395   .     A
C607   H617    1.086   .     S
C608   H618    1.086   .     S
C608   C611    1.395   .     A
C608   C370    1.374   1_565 S
C609   C611    1.404   .     A
C609   C637    1.447   .     S
C609   C367    1.374   1_565 S
C610   C612    1.404   .     A
C610   C639    1.447   .     S
C613   H619    1.082   .     S
C613   N624    1.367   .     A
C614   N623    1.367   .     A
C614   H620    1.082   .     S
C614   C976    1.417   .     S
C615   N623    1.367   .     A
C615   H621    1.082   .     S
C615   C973    1.417   .     S
C616   N624    1.367   .     A
C616   H622    1.082   .     S
N623   Zn633   2.012   .     S
N624   Zn634   2.012   .     S
O625   Zn633   1.993   .     S
O626   Zn634   1.993   .     S
O627   Zn634   1.990   .     S
O628   Zn633   1.990   .     S
O629   Zn633   1.970   .     S
O630   Zn634   1.970   .     S
O631   Zn634   1.981   .     S
O632   Zn633   1.981   .     S
H635   C645    1.088   .     S
H636   C686    1.088   1_455 S
C637   N638    1.157   .     T
C639   N640    1.157   .     T
C641   O665    1.280   .     A
C641   C652    1.413   .     S
C641   O667    1.282   .     A
C642   O668    1.282   .     A
C642   O666    1.280   .     A
C642   C651    1.413   .     S
C643   O671    1.281   .     A
C643   O669    1.278   .     A
C643   C645    1.403   .     S
C644   O672    1.281   .     A
C644   C646    1.403   .     S
C644   O670    1.278   .     A
C646   C685    1.330   .     S
C646   H716    1.088   .     S
C647   C652    1.395   .     A
C647   H657    1.086   .     S
C648   H658    1.086   .     S
C648   C651    1.395   .     A
C648   C410    1.374   1_565 S
C649   C651    1.404   .     A
C649   C677    1.447   .     S
C649   C407    1.374   1_565 S
C650   C652    1.404   .     A
C650   C679    1.447   .     S
C653   H659    1.082   .     S
C653   N664    1.367   .     A
C654   N663    1.367   .     A
C654   H660    1.082   .     S
C654   C1016   1.417   .     S
C655   N663    1.367   .     A
C655   H661    1.082   .     S
C655   C1013   1.417   .     S
C656   N664    1.367   .     A
C656   H662    1.082   .     S
N663   Zn673   2.012   .     S
N664   Zn674   2.012   .     S
O665   Zn673   1.993   .     S
O666   Zn674   1.993   .     S
O667   Zn674   1.990   .     S
O668   Zn673   1.990   .     S
O669   Zn673   1.970   .     S
O670   Zn674   1.970   .     S
O671   Zn674   1.981   .     S
O672   Zn673   1.981   .     S
H675   C685    1.088   .     S
C677   N678    1.157   .     T
C679   N680    1.157   .     T
C681   O705    1.280   .     A
C681   C692    1.413   .     S
C681   O707    1.282   .     A
C682   O708    1.282   .     A
C682   O706    1.280   .     A
C682   C691    1.413   .     S
C683   O711    1.281   .     A
C683   O709    1.278   .     A
C683   C685    1.403   .     S
C684   O712    1.281   .     A
C684   C686    1.403   .     S
C684   O710    1.278   .     A
C686   C605    1.330   1_655 S
C686   H636    1.088   1_655 S
C687   C692    1.395   .     A
C687   H697    1.086   .     S
C688   H698    1.086   .     S
C688   C691    1.395   .     A
C688   C450    1.374   1_565 S
C689   C691    1.404   .     A
C689   C717    1.447   .     S
C689   C447    1.374   1_565 S
C690   C692    1.404   .     A
C690   C719    1.447   .     S
C693   H699    1.082   .     S
C693   N704    1.367   .     A
C694   N703    1.367   .     A
C694   H700    1.082   .     S
C694   C1056   1.417   .     S
C695   N703    1.367   .     A
C695   H701    1.082   .     S
C695   C1053   1.417   .     S
C696   N704    1.367   .     A
C696   H702    1.082   .     S
N703   Zn713   2.012   .     S
N704   Zn714   2.012   .     S
O705   Zn713   1.993   .     S
O706   Zn714   1.993   .     S
O707   Zn714   1.990   .     S
O708   Zn713   1.990   .     S
O709   Zn713   1.970   .     S
O710   Zn714   1.970   .     S
O711   Zn714   1.981   .     S
O712   Zn713   1.981   .     S
H715   C605    1.088   1_655 S
C717   N718    1.157   .     T
C719   N720    1.157   .     T
C721   O745    1.280   .     A
C721   C732    1.413   .     S
C721   O747    1.282   .     A
C722   O748    1.282   .     A
C722   O746    1.280   .     A
C722   C731    1.413   .     S
C723   O751    1.281   .     A
C723   O749    1.278   .     A
C723   C725    1.403   .     S
C724   O752    1.281   .     A
C724   C726    1.403   .     S
C724   O750    1.278   .     A
C725   C806    1.330   1_455 S
C725   H835    1.088   1_455 S
C726   C765    1.330   .     S
C726   H796    1.088   .     S
C727   C732    1.395   .     A
C727   H737    1.086   .     S
C727   C969    1.374   1_545 S
C728   H738    1.086   .     S
C728   C731    1.395   .     A
C728   C850    1.374   .     S
C729   C731    1.404   .     A
C729   C757    1.447   .     S
C729   C847    1.374   .     S
C730   C732    1.404   .     A
C730   C759    1.447   .     S
C730   C968    1.374   1_545 S
C733   H739    1.082   .     S
C733   N744    1.367   .     A
C734   N743    1.367   .     A
C734   H740    1.082   .     S
C734   C16     1.417   1_556 S
C735   N743    1.367   .     A
C735   H741    1.082   .     S
C735   C13     1.417   1_556 S
C736   N744    1.367   .     A
C736   H742    1.082   .     S
N743   Zn753   2.012   .     S
N744   Zn754   2.012   .     S
O745   Zn753   1.993   .     S
O746   Zn754   1.993   .     S
O747   Zn754   1.990   .     S
O748   Zn753   1.990   .     S
O749   Zn753   1.970   .     S
O750   Zn754   1.970   .     S
O751   Zn754   1.981   .     S
O752   Zn753   1.981   .     S
H755   C765    1.088   .     S
H756   C806    1.088   1_455 S
C757   N758    1.157   .     T
C759   N760    1.157   .     T
C761   O785    1.280   .     A
C761   C772    1.413   .     S
C761   O787    1.282   .     A
C762   O788    1.282   .     A
C762   O786    1.280   .     A
C762   C771    1.413   .     S
C763   O791    1.281   .     A
C763   O789    1.278   .     A
C763   C765    1.403   .     S
C764   O792    1.281   .     A
C764   C766    1.403   .     S
C764   O790    1.278   .     A
C766   C805    1.330   .     S
C766   H836    1.088   .     S
C767   C772    1.395   .     A
C767   H777    1.086   .     S
C767   C1009   1.374   1_545 S
C768   H778    1.086   .     S
C768   C771    1.395   .     A
C768   C890    1.374   .     S
C769   C771    1.404   .     A
C769   C797    1.447   .     S
C769   C887    1.374   .     S
C770   C772    1.404   .     A
C770   C799    1.447   .     S
C770   C1008   1.374   1_545 S
C773   H779    1.082   .     S
C773   N784    1.367   .     A
C774   N783    1.367   .     A
C774   H780    1.082   .     S
C774   C56     1.417   1_556 S
C775   N783    1.367   .     A
C775   H781    1.082   .     S
C775   C53     1.417   1_556 S
C776   N784    1.367   .     A
C776   H782    1.082   .     S
N783   Zn793   2.012   .     S
N784   Zn794   2.012   .     S
O785   Zn793   1.993   .     S
O786   Zn794   1.993   .     S
O787   Zn794   1.990   .     S
O788   Zn793   1.990   .     S
O789   Zn793   1.970   .     S
O790   Zn794   1.970   .     S
O791   Zn794   1.981   .     S
O792   Zn793   1.981   .     S
H795   C805    1.088   .     S
C797   N798    1.157   .     T
C799   N800    1.157   .     T
C801   O825    1.280   .     A
C801   C812    1.413   .     S
C801   O827    1.282   .     A
C802   O828    1.282   .     A
C802   O826    1.280   .     A
C802   C811    1.413   .     S
C803   O831    1.281   .     A
C803   O829    1.278   .     A
C803   C805    1.403   .     S
C804   O832    1.281   .     A
C804   C806    1.403   .     S
C804   O830    1.278   .     A
C806   C725    1.330   1_655 S
C806   H756    1.088   1_655 S
C807   C812    1.395   .     A
C807   H817    1.086   .     S
C807   C1049   1.374   1_545 S
C808   H818    1.086   .     S
C808   C811    1.395   .     A
C808   C930    1.374   .     S
C809   C811    1.404   .     A
C809   C837    1.447   .     S
C809   C927    1.374   .     S
C810   C812    1.404   .     A
C810   C839    1.447   .     S
C810   C1048   1.374   1_545 S
C813   H819    1.082   .     S
C813   N824    1.367   .     A
C814   N823    1.367   .     A
C814   H820    1.082   .     S
C814   C96     1.417   1_556 S
C815   N823    1.367   .     A
C815   H821    1.082   .     S
C815   C93     1.417   1_556 S
C816   N824    1.367   .     A
C816   H822    1.082   .     S
N823   Zn833   2.012   .     S
N824   Zn834   2.012   .     S
O825   Zn833   1.993   .     S
O826   Zn834   1.993   .     S
O827   Zn834   1.990   .     S
O828   Zn833   1.990   .     S
O829   Zn833   1.970   .     S
O830   Zn834   1.970   .     S
O831   Zn834   1.981   .     S
O832   Zn833   1.981   .     S
H835   C725    1.088   1_655 S
C837   N838    1.157   .     T
C839   N840    1.157   .     T
C841   O865    1.280   .     A
C841   C852    1.413   .     S
C841   O867    1.282   .     A
C842   O868    1.282   .     A
C842   O866    1.280   .     A
C842   C851    1.413   .     S
C843   O871    1.281   .     A
C843   O869    1.278   .     A
C843   C845    1.403   .     S
C844   O872    1.281   .     A
C844   C846    1.403   .     S
C844   O870    1.278   .     A
C845   C926    1.330   1_455 S
C845   H955    1.088   1_455 S
C846   C885    1.330   .     S
C846   H916    1.088   .     S
C847   C852    1.395   .     A
C847   H857    1.086   .     S
C848   H858    1.086   .     S
C848   C851    1.395   .     A
C848   C970    1.374   .     S
C849   C851    1.404   .     A
C849   C877    1.447   .     S
C849   C967    1.374   .     S
C850   C852    1.404   .     A
C850   C879    1.447   .     S
C853   H859    1.082   .     S
C853   N864    1.367   .     A
C854   N863    1.367   .     A
C854   H860    1.082   .     S
C854   C136    1.417   1_556 S
C855   N863    1.367   .     A
C855   H861    1.082   .     S
C855   C133    1.417   1_556 S
C856   N864    1.367   .     A
C856   H862    1.082   .     S
N863   Zn873   2.012   .     S
N864   Zn874   2.012   .     S
O865   Zn873   1.993   .     S
O866   Zn874   1.993   .     S
O867   Zn874   1.990   .     S
O868   Zn873   1.990   .     S
O869   Zn873   1.970   .     S
O870   Zn874   1.970   .     S
O871   Zn874   1.981   .     S
O872   Zn873   1.981   .     S
H875   C885    1.088   .     S
H876   C926    1.088   1_455 S
C877   N878    1.157   .     T
C879   N880    1.157   .     T
C881   O905    1.280   .     A
C881   C892    1.413   .     S
C881   O907    1.282   .     A
C882   O908    1.282   .     A
C882   O906    1.280   .     A
C882   C891    1.413   .     S
C883   O911    1.281   .     A
C883   O909    1.278   .     A
C883   C885    1.403   .     S
C884   O912    1.281   .     A
C884   C886    1.403   .     S
C884   O910    1.278   .     A
C886   C925    1.330   .     S
C886   H956    1.088   .     S
C887   C892    1.395   .     A
C887   H897    1.086   .     S
C888   H898    1.086   .     S
C888   C891    1.395   .     A
C888   C1010   1.374   .     S
C889   C891    1.404   .     A
C889   C917    1.447   .     S
C889   C1007   1.374   .     S
C890   C892    1.404   .     A
C890   C919    1.447   .     S
C893   H899    1.082   .     S
C893   N904    1.367   .     A
C894   N903    1.367   .     A
C894   H900    1.082   .     S
C894   C176    1.417   1_556 S
C895   N903    1.367   .     A
C895   H901    1.082   .     S
C895   C173    1.417   1_556 S
C896   N904    1.367   .     A
C896   H902    1.082   .     S
N903   Zn913   2.012   .     S
N904   Zn914   2.012   .     S
O905   Zn913   1.993   .     S
O906   Zn914   1.993   .     S
O907   Zn914   1.990   .     S
O908   Zn913   1.990   .     S
O909   Zn913   1.970   .     S
O910   Zn914   1.970   .     S
O911   Zn914   1.981   .     S
O912   Zn913   1.981   .     S
H915   C925    1.088   .     S
C917   N918    1.157   .     T
C919   N920    1.157   .     T
C921   O945    1.280   .     A
C921   C932    1.413   .     S
C921   O947    1.282   .     A
C922   O948    1.282   .     A
C922   O946    1.280   .     A
C922   C931    1.413   .     S
C923   O951    1.281   .     A
C923   O949    1.278   .     A
C923   C925    1.403   .     S
C924   O952    1.281   .     A
C924   C926    1.403   .     S
C924   O950    1.278   .     A
C926   C845    1.330   1_655 S
C926   H876    1.088   1_655 S
C927   C932    1.395   .     A
C927   H937    1.086   .     S
C928   H938    1.086   .     S
C928   C931    1.395   .     A
C928   C1050   1.374   .     S
C929   C931    1.404   .     A
C929   C957    1.447   .     S
C929   C1047   1.374   .     S
C930   C932    1.404   .     A
C930   C959    1.447   .     S
C933   H939    1.082   .     S
C933   N944    1.367   .     A
C934   N943    1.367   .     A
C934   H940    1.082   .     S
C934   C216    1.417   1_556 S
C935   N943    1.367   .     A
C935   H941    1.082   .     S
C935   C213    1.417   1_556 S
C936   N944    1.367   .     A
C936   H942    1.082   .     S
N943   Zn953   2.012   .     S
N944   Zn954   2.012   .     S
O945   Zn953   1.993   .     S
O946   Zn954   1.993   .     S
O947   Zn954   1.990   .     S
O948   Zn953   1.990   .     S
O949   Zn953   1.970   .     S
O950   Zn954   1.970   .     S
O951   Zn954   1.981   .     S
O952   Zn953   1.981   .     S
H955   C845    1.088   1_655 S
C957   N958    1.157   .     T
C959   N960    1.157   .     T
C961   O985    1.280   .     A
C961   C972    1.413   .     S
C961   O987    1.282   .     A
C962   O988    1.282   .     A
C962   O986    1.280   .     A
C962   C971    1.413   .     S
C963   O991    1.281   .     A
C963   O989    1.278   .     A
C963   C965    1.403   .     S
C964   O992    1.281   .     A
C964   C966    1.403   .     S
C964   O990    1.278   .     A
C965   C1046   1.330   1_455 S
C965   H1075   1.088   1_455 S
C966   C1005   1.330   .     S
C966   H1036   1.088   .     S
C967   C972    1.395   .     A
C967   H977    1.086   .     S
C968   H978    1.086   .     S
C968   C971    1.395   .     A
C968   C730    1.374   1_565 S
C969   C971    1.404   .     A
C969   C997    1.447   .     S
C969   C727    1.374   1_565 S
C970   C972    1.404   .     A
C970   C999    1.447   .     S
C973   H979    1.082   .     S
C973   N984    1.367   .     A
C974   N983    1.367   .     A
C974   H980    1.082   .     S
C974   C256    1.417   1_556 S
C975   N983    1.367   .     A
C975   H981    1.082   .     S
C975   C253    1.417   1_556 S
C976   N984    1.367   .     A
C976   H982    1.082   .     S
N983   Zn993   2.012   .     S
N984   Zn994   2.012   .     S
O985   Zn993   1.993   .     S
O986   Zn994   1.993   .     S
O987   Zn994   1.990   .     S
O988   Zn993   1.990   .     S
O989   Zn993   1.970   .     S
O990   Zn994   1.970   .     S
O991   Zn994   1.981   .     S
O992   Zn993   1.981   .     S
H995   C1005   1.088   .     S
H996   C1046   1.088   1_455 S
C997   N998    1.157   .     T
C999   N1000   1.157   .     T
C1001  O1025   1.280   .     A
C1001  C1012   1.413   .     S
C1001  O1027   1.282   .     A
C1002  O1028   1.282   .     A
C1002  O1026   1.280   .     A
C1002  C1011   1.413   .     S
C1003  O1031   1.281   .     A
C1003  O1029   1.278   .     A
C1003  C1005   1.403   .     S
C1004  O1032   1.281   .     A
C1004  C1006   1.403   .     S
C1004  O1030   1.278   .     A
C1006  C1045   1.330   .     S
C1006  H1076   1.088   .     S
C1007  C1012   1.395   .     A
C1007  H1017   1.086   .     S
C1008  H1018   1.086   .     S
C1008  C1011   1.395   .     A
C1008  C770    1.374   1_565 S
C1009  C1011   1.404   .     A
C1009  C1037   1.447   .     S
C1009  C767    1.374   1_565 S
C1010  C1012   1.404   .     A
C1010  C1039   1.447   .     S
C1013  H1019   1.082   .     S
C1013  N1024   1.367   .     A
C1014  N1023   1.367   .     A
C1014  H1020   1.082   .     S
C1014  C296    1.417   1_556 S
C1015  N1023   1.367   .     A
C1015  H1021   1.082   .     S
C1015  C293    1.417   1_556 S
C1016  N1024   1.367   .     A
C1016  H1022   1.082   .     S
N1023  Zn1033  2.012   .     S
N1024  Zn1034  2.012   .     S
O1025  Zn1033  1.993   .     S
O1026  Zn1034  1.993   .     S
O1027  Zn1034  1.990   .     S
O1028  Zn1033  1.990   .     S
O1029  Zn1033  1.970   .     S
O1030  Zn1034  1.970   .     S
O1031  Zn1034  1.981   .     S
O1032  Zn1033  1.981   .     S
H1035  C1045   1.088   .     S
C1037  N1038   1.157   .     T
C1039  N1040   1.157   .     T
C1041  O1065   1.280   .     A
C1041  C1052   1.413   .     S
C1041  O1067   1.282   .     A
C1042  O1068   1.282   .     A
C1042  O1066   1.280   .     A
C1042  C1051   1.413   .     S
C1043  O1071   1.281   .     A
C1043  O1069   1.278   .     A
C1043  C1045   1.403   .     S
C1044  O1072   1.281   .     A
C1044  C1046   1.403   .     S
C1044  O1070   1.278   .     A
C1046  C965    1.330   1_655 S
C1046  H996    1.088   1_655 S
C1047  C1052   1.395   .     A
C1047  H1057   1.086   .     S
C1048  H1058   1.086   .     S
C1048  C1051   1.395   .     A
C1048  C810    1.374   1_565 S
C1049  C1051   1.404   .     A
C1049  C1077   1.447   .     S
C1049  C807    1.374   1_565 S
C1050  C1052   1.404   .     A
C1050  C1079   1.447   .     S
C1053  H1059   1.082   .     S
C1053  N1064   1.367   .     A
C1054  N1063   1.367   .     A
C1054  H1060   1.082   .     S
C1054  C336    1.417   1_556 S
C1055  N1063   1.367   .     A
C1055  H1061   1.082   .     S
C1055  C333    1.417   1_556 S
C1056  N1064   1.367   .     A
C1056  H1062   1.082   .     S
N1063  Zn1073  2.012   .     S
N1064  Zn1074  2.012   .     S
O1065  Zn1073  1.993   .     S
O1066  Zn1074  1.993   .     S
O1067  Zn1074  1.990   .     S
O1068  Zn1073  1.990   .     S
O1069  Zn1073  1.970   .     S
O1070  Zn1074  1.970   .     S
O1071  Zn1074  1.981   .     S
O1072  Zn1073  1.981   .     S
H1075  C965    1.088   1_655 S
C1077  N1078   1.157   .     T
C1079  N1080   1.157   .     T
