data_str_m3_o2_o10_pcu_sym.189
_audit_creation_date              2020-01-03
_audit_creation_method            'Materials Studio'
_symmetry_space_group_name_H-M    'P1'
_symmetry_Int_Tables_number       1
_symmetry_cell_setting            triclinic
loop_
_symmetry_equiv_pos_as_xyz
  x,y,z
_cell_length_a                    25.8737
_cell_length_b                    29.6906
_cell_length_c                    28.4252
_cell_angle_alpha                 90.9093
_cell_angle_beta                  98.3940
_cell_angle_gamma                 91.2010
loop_
_atom_site_label
_atom_site_type_symbol
_atom_site_fract_x
_atom_site_fract_y
_atom_site_fract_z
_atom_site_U_iso_or_equiv
_atom_site_adp_type
_atom_site_occupancy
O1     O     0.16667   0.18454   0.28974   0.00000  Uiso   1.00
O2     O     0.16666   0.31547   0.21026   0.00000  Uiso   1.00
O3     O     0.16667   0.18453   0.21026   0.00000  Uiso   1.00
O4     O     0.16666   0.31547   0.28974   0.00000  Uiso   1.00
C5     C     0.16806   0.16351   0.24954   0.00000  Uiso   1.00
C6     C     0.16741   0.33621   0.25042   0.00000  Uiso   1.00
O7     O     0.09058   0.25000   0.28044   0.00000  Uiso   1.00
O8     O     0.24275   0.25000   0.21955   0.00000  Uiso   1.00
O9     O     0.09058   0.25000   0.20096   0.00000  Uiso   1.00
O10    O     0.24275   0.25001   0.29903   0.00000  Uiso   1.00
C11    C     0.06712   0.24881   0.23782   0.00000  Uiso   1.00
C12    C     0.26604   0.24936   0.26234   0.00000  Uiso   1.00
Zn13   Zn    0.16667   0.25001   0.30307   0.00000  Uiso   1.00
Zn14   Zn    0.16667   0.25000   0.19693   0.00000  Uiso   1.00
C15    C     0.01273   0.24022   0.23289   0.00000  Uiso   1.00
C16    C     0.32060   0.25393   0.26870   0.00000  Uiso   1.00
C17    C     0.21305   0.04668   0.28000   0.00000  Uiso   1.00
C18    C     0.14272   0.45577   0.22131   0.00000  Uiso   1.00
H19    H     0.23173   0.02827   0.31020   0.00000  Uiso   1.00
H20    H     0.11089   0.47665   0.20614   0.00000  Uiso   1.00
C21    C     0.20652   0.09278   0.28458   0.00000  Uiso   1.00
C22    C     0.13308   0.41014   0.22562   0.00000  Uiso   1.00
C23    C     0.17595   0.11512   0.24711   0.00000  Uiso   1.00
C24    C     0.17259   0.38453   0.25094   0.00000  Uiso   1.00
C25    C     0.15776   0.09172   0.20367   0.00000  Uiso   1.00
C26    C     0.22140   0.40422   0.26997   0.00000  Uiso   1.00
C27    C     0.17345   0.04764   0.19684   0.00000  Uiso   1.00
C28    C     0.23364   0.44862   0.25804   0.00000  Uiso   1.00
C29    C     0.19642   0.02413   0.23670   0.00000  Uiso   1.00
C30    C     0.19234   0.47505   0.23670   0.00000  Uiso   1.00
C31    C     0.12773   0.22761   0.04708   0.00000  Uiso   1.00
C32    C     0.17928   0.28943   0.44957   0.00000  Uiso   1.00
H33    H     0.09575   0.21029   0.02475   0.00000  Uiso   1.00
H34    H     0.18779   0.32113   0.46871   0.00000  Uiso   1.00
C35    C     0.12895   0.22678   0.09664   0.00000  Uiso   1.00
C36    C     0.18014   0.28822   0.40021   0.00000  Uiso   1.00
H37    H     0.09888   0.20844   0.11148   0.00000  Uiso   1.00
H38    H     0.18990   0.31846   0.38282   0.00000  Uiso   1.00
N39    N     0.16667   0.24999   0.12623   0.00000  Uiso   1.00
N40    N     0.16667   0.25001   0.37376   0.00000  Uiso   1.00
C41    C     0.20395   0.27491   0.10775   0.00000  Uiso   1.00
C42    C     0.15085   0.21212   0.39566   0.00000  Uiso   1.00
C43    C     0.20675   0.27361   0.05842   0.00000  Uiso   1.00
C44    C     0.15494   0.21055   0.44583   0.00000  Uiso   1.00
C45    C     0.16710   0.25075   0.02687   0.00000  Uiso   1.00
C46    C     0.16710   0.25029   0.47355   0.00000  Uiso   1.00
N47    N     0.32288   0.20946   0.19533   0.00000  Uiso   1.00
O48    O     0.00175   0.21279   0.15271   0.00000  Uiso   1.00
O49    O     0.29638   0.17405   0.20546   0.00000  Uiso   1.00
N50    N     0.01129   0.28006   0.30956   0.00000  Uiso   1.00
O51    O     0.01177   0.26431   0.35207   0.00000  Uiso   1.00
O52    O     0.02897   0.32075   0.30449   0.00000  Uiso   1.00
N53    N     0.23300   0.11622   0.32617   0.00000  Uiso   1.00
O54    O     0.26161   0.15195   0.32142   0.00000  Uiso   1.00
O55    O     0.23872   0.09645   0.36709   0.00000  Uiso   1.00
N56    N     0.08294   0.39098   0.20512   0.00000  Uiso   1.00
O57    O     0.06346   0.35550   0.22295   0.00000  Uiso   1.00
O58    O     0.05464   0.41095   0.17024   0.00000  Uiso   1.00
O59    O     0.12575   0.11211   0.16718   0.00000  Uiso   1.00
C60    C     0.07353   0.10912   0.17656   0.00000  Uiso   1.00
H61    H     0.06624   0.13730   0.20079   0.00000  Uiso   1.00
H62    H     0.06418   0.07656   0.19299   0.00000  Uiso   1.00
C63    C     0.03623   0.11259   0.13015   0.00000  Uiso   1.00
H64    H     0.04019   0.08311   0.10658   0.00000  Uiso   1.00
H65    H     0.32864   0.11323   0.13762   0.00000  Uiso   1.00
H66    H     0.04476   0.14371   0.11140   0.00000  Uiso   1.00
O67    O     0.25721   0.37930   0.29903   0.00000  Uiso   1.00
C68    C     0.25349   0.39167   0.34672   0.00000  Uiso   1.00
H69    H     0.21305   0.38585   0.35470   0.00000  Uiso   1.00
H70    H     0.26419   0.42790   0.35405   0.00000  Uiso   1.00
C71    C     0.29067   0.36389   0.38038   0.00000  Uiso   1.00
H72    H     0.33168   0.37139   0.37525   0.00000  Uiso   1.00
H73    H     0.28619   0.37234   0.41774   0.00000  Uiso   1.00
H74    H     0.28173   0.32746   0.37365   0.00000  Uiso   1.00
N75    N     0.16519   0.02612   0.15030   0.00000  Uiso   1.00
O76    O     0.19814   0.49670   0.13905   0.00000  Uiso   1.00
O77    O     0.12665   0.03703   0.11816   0.00000  Uiso   1.00
N78    N     0.28707   0.46599   0.26547   0.00000  Uiso   1.00
O79    O     0.30058   0.49935   0.24033   0.00000  Uiso   1.00
O80    O     0.32410   0.44453   0.29116   0.00000  Uiso   1.00
N81    N     0.23820   0.30522   0.13774   0.00000  Uiso   1.00
O82    O     0.28800   0.29771   0.14517   0.00000  Uiso   1.00
O83    O     0.22280   0.34593   0.14439   0.00000  Uiso   1.00
N84    N     0.12530   0.17516   0.36796   0.00000  Uiso   1.00
O85    O     0.08161   0.18178   0.34030   0.00000  Uiso   1.00
O86    O     0.13873   0.13400   0.37765   0.00000  Uiso   1.00
O87    O     0.24645   0.29756   0.04157   0.00000  Uiso   1.00
C88    C     0.28594   0.26750   0.03334   0.00000  Uiso   1.00
H89    H     0.27089   0.24143   0.00592   0.00000  Uiso   1.00
H90    H     0.30232   0.25050   0.06668   0.00000  Uiso   1.00
C91    C     0.32992   0.29380   0.01531   0.00000  Uiso   1.00
H92    H     0.01397   0.31915   0.04255   0.00000  Uiso   1.00
H93    H     0.02740   0.27046   0.00771   0.00000  Uiso   1.00
H94    H     0.31461   0.31124   0.48204   0.00000  Uiso   1.00
O95    O     0.14255   0.17079   0.46679   0.00000  Uiso   1.00
C96    C     0.18938   0.14944   0.48501   0.00000  Uiso   1.00
H97    H     0.21429   0.17117   0.01189   0.00000  Uiso   1.00
H98    H     0.21209   0.14061   0.45589   0.00000  Uiso   1.00
C99    C     0.17608   0.10630   0.00926   0.00000  Uiso   1.00
H100   H     0.15191   0.08330   0.48329   0.00000  Uiso   1.00
H101   H     0.21256   0.08914   0.02372   0.00000  Uiso   1.00
H102   H     0.15403   0.11426   0.03898   0.00000  Uiso   1.00
O103   O     0.50000   0.18454   0.28974   0.00000  Uiso   1.00
O104   O     0.50000   0.31547   0.21026   0.00000  Uiso   1.00
O105   O     0.50000   0.18453   0.21026   0.00000  Uiso   1.00
O106   O     0.50000   0.31547   0.28974   0.00000  Uiso   1.00
C107   C     0.50140   0.16351   0.24954   0.00000  Uiso   1.00
C108   C     0.50074   0.33621   0.25042   0.00000  Uiso   1.00
O109   O     0.42392   0.25000   0.28044   0.00000  Uiso   1.00
O110   O     0.57608   0.25000   0.21955   0.00000  Uiso   1.00
O111   O     0.42392   0.25000   0.20096   0.00000  Uiso   1.00
O112   O     0.57608   0.25001   0.29903   0.00000  Uiso   1.00
C113   C     0.40046   0.24881   0.23782   0.00000  Uiso   1.00
C114   C     0.59938   0.24936   0.26234   0.00000  Uiso   1.00
Zn115  Zn    0.50000   0.25001   0.30307   0.00000  Uiso   1.00
Zn116  Zn    0.50000   0.25000   0.19693   0.00000  Uiso   1.00
C117   C     0.34607   0.24022   0.23289   0.00000  Uiso   1.00
C118   C     0.65393   0.25393   0.26870   0.00000  Uiso   1.00
C119   C     0.54638   0.04668   0.28000   0.00000  Uiso   1.00
C120   C     0.47606   0.45577   0.22131   0.00000  Uiso   1.00
H121   H     0.56506   0.02827   0.31020   0.00000  Uiso   1.00
H122   H     0.44423   0.47665   0.20614   0.00000  Uiso   1.00
C123   C     0.53986   0.09278   0.28458   0.00000  Uiso   1.00
C124   C     0.46641   0.41014   0.22562   0.00000  Uiso   1.00
C125   C     0.50929   0.11512   0.24711   0.00000  Uiso   1.00
C126   C     0.50592   0.38453   0.25094   0.00000  Uiso   1.00
C127   C     0.49110   0.09172   0.20367   0.00000  Uiso   1.00
C128   C     0.55474   0.40422   0.26997   0.00000  Uiso   1.00
C129   C     0.50678   0.04764   0.19684   0.00000  Uiso   1.00
C130   C     0.56698   0.44862   0.25804   0.00000  Uiso   1.00
C131   C     0.52975   0.02413   0.23670   0.00000  Uiso   1.00
C132   C     0.52567   0.47505   0.23670   0.00000  Uiso   1.00
C133   C     0.46106   0.22761   0.04708   0.00000  Uiso   1.00
C134   C     0.51262   0.28943   0.44957   0.00000  Uiso   1.00
H135   H     0.42909   0.21029   0.02475   0.00000  Uiso   1.00
H136   H     0.52113   0.32113   0.46871   0.00000  Uiso   1.00
C137   C     0.46228   0.22678   0.09664   0.00000  Uiso   1.00
C138   C     0.51348   0.28822   0.40021   0.00000  Uiso   1.00
H139   H     0.43221   0.20844   0.11148   0.00000  Uiso   1.00
H140   H     0.52323   0.31846   0.38282   0.00000  Uiso   1.00
N141   N     0.50000   0.24999   0.12623   0.00000  Uiso   1.00
N142   N     0.50000   0.25001   0.37376   0.00000  Uiso   1.00
C143   C     0.53728   0.27491   0.10775   0.00000  Uiso   1.00
C144   C     0.48418   0.21212   0.39566   0.00000  Uiso   1.00
C145   C     0.54008   0.27361   0.05842   0.00000  Uiso   1.00
C146   C     0.48827   0.21055   0.44583   0.00000  Uiso   1.00
C147   C     0.50043   0.25075   0.02687   0.00000  Uiso   1.00
C148   C     0.50043   0.25029   0.47355   0.00000  Uiso   1.00
N149   N     0.65622   0.20946   0.19533   0.00000  Uiso   1.00
O150   O     0.33508   0.21279   0.15271   0.00000  Uiso   1.00
O151   O     0.62971   0.17405   0.20546   0.00000  Uiso   1.00
N152   N     0.34462   0.28006   0.30956   0.00000  Uiso   1.00
O153   O     0.34510   0.26431   0.35207   0.00000  Uiso   1.00
O154   O     0.36230   0.32075   0.30449   0.00000  Uiso   1.00
N155   N     0.56633   0.11622   0.32617   0.00000  Uiso   1.00
O156   O     0.59494   0.15195   0.32142   0.00000  Uiso   1.00
O157   O     0.57205   0.09645   0.36709   0.00000  Uiso   1.00
N158   N     0.41627   0.39098   0.20512   0.00000  Uiso   1.00
O159   O     0.39679   0.35550   0.22295   0.00000  Uiso   1.00
O160   O     0.38797   0.41095   0.17024   0.00000  Uiso   1.00
O161   O     0.45908   0.11211   0.16718   0.00000  Uiso   1.00
C162   C     0.40686   0.10912   0.17656   0.00000  Uiso   1.00
H163   H     0.39958   0.13730   0.20079   0.00000  Uiso   1.00
H164   H     0.39751   0.07656   0.19299   0.00000  Uiso   1.00
C165   C     0.36956   0.11259   0.13015   0.00000  Uiso   1.00
H166   H     0.37353   0.08311   0.10658   0.00000  Uiso   1.00
H167   H     0.66198   0.11323   0.13762   0.00000  Uiso   1.00
H168   H     0.37809   0.14371   0.11140   0.00000  Uiso   1.00
O169   O     0.59055   0.37930   0.29903   0.00000  Uiso   1.00
C170   C     0.58682   0.39167   0.34672   0.00000  Uiso   1.00
H171   H     0.54638   0.38585   0.35470   0.00000  Uiso   1.00
H172   H     0.59752   0.42790   0.35405   0.00000  Uiso   1.00
C173   C     0.62400   0.36389   0.38038   0.00000  Uiso   1.00
H174   H     0.66501   0.37139   0.37525   0.00000  Uiso   1.00
H175   H     0.61952   0.37234   0.41774   0.00000  Uiso   1.00
H176   H     0.61506   0.32746   0.37365   0.00000  Uiso   1.00
N177   N     0.49852   0.02612   0.15030   0.00000  Uiso   1.00
O178   O     0.53148   0.49670   0.13905   0.00000  Uiso   1.00
O179   O     0.45999   0.03703   0.11816   0.00000  Uiso   1.00
N180   N     0.62040   0.46599   0.26547   0.00000  Uiso   1.00
O181   O     0.63392   0.49935   0.24033   0.00000  Uiso   1.00
O182   O     0.65743   0.44453   0.29116   0.00000  Uiso   1.00
N183   N     0.57154   0.30522   0.13774   0.00000  Uiso   1.00
O184   O     0.62133   0.29771   0.14517   0.00000  Uiso   1.00
O185   O     0.55613   0.34593   0.14439   0.00000  Uiso   1.00
N186   N     0.45863   0.17516   0.36796   0.00000  Uiso   1.00
O187   O     0.41495   0.18178   0.34030   0.00000  Uiso   1.00
O188   O     0.47206   0.13400   0.37765   0.00000  Uiso   1.00
O189   O     0.57979   0.29756   0.04157   0.00000  Uiso   1.00
C190   C     0.61928   0.26750   0.03334   0.00000  Uiso   1.00
H191   H     0.60422   0.24143   0.00592   0.00000  Uiso   1.00
H192   H     0.63565   0.25050   0.06668   0.00000  Uiso   1.00
C193   C     0.66325   0.29380   0.01531   0.00000  Uiso   1.00
H194   H     0.34730   0.31915   0.04255   0.00000  Uiso   1.00
H195   H     0.36074   0.27046   0.00771   0.00000  Uiso   1.00
H196   H     0.64794   0.31124   0.48204   0.00000  Uiso   1.00
O197   O     0.47589   0.17079   0.46679   0.00000  Uiso   1.00
C198   C     0.52271   0.14944   0.48501   0.00000  Uiso   1.00
H199   H     0.54763   0.17117   0.01189   0.00000  Uiso   1.00
H200   H     0.54542   0.14061   0.45589   0.00000  Uiso   1.00
C201   C     0.50941   0.10630   0.00926   0.00000  Uiso   1.00
H202   H     0.48524   0.08330   0.48329   0.00000  Uiso   1.00
H203   H     0.54590   0.08914   0.02372   0.00000  Uiso   1.00
H204   H     0.48736   0.11426   0.03898   0.00000  Uiso   1.00
O205   O     0.83334   0.18454   0.28974   0.00000  Uiso   1.00
O206   O     0.83333   0.31547   0.21026   0.00000  Uiso   1.00
O207   O     0.83334   0.18453   0.21026   0.00000  Uiso   1.00
O208   O     0.83333   0.31547   0.28974   0.00000  Uiso   1.00
C209   C     0.83473   0.16351   0.24954   0.00000  Uiso   1.00
C210   C     0.83407   0.33621   0.25042   0.00000  Uiso   1.00
O211   O     0.75725   0.25000   0.28044   0.00000  Uiso   1.00
O212   O     0.90942   0.25000   0.21955   0.00000  Uiso   1.00
O213   O     0.75725   0.25000   0.20096   0.00000  Uiso   1.00
O214   O     0.90942   0.25001   0.29903   0.00000  Uiso   1.00
C215   C     0.73379   0.24881   0.23782   0.00000  Uiso   1.00
C216   C     0.93271   0.24936   0.26234   0.00000  Uiso   1.00
Zn217  Zn    0.83333   0.25001   0.30307   0.00000  Uiso   1.00
Zn218  Zn    0.83333   0.25000   0.19693   0.00000  Uiso   1.00
C219   C     0.67940   0.24022   0.23289   0.00000  Uiso   1.00
C220   C     0.98726   0.25393   0.26870   0.00000  Uiso   1.00
C221   C     0.87971   0.04668   0.28000   0.00000  Uiso   1.00
C222   C     0.80939   0.45577   0.22131   0.00000  Uiso   1.00
H223   H     0.89840   0.02827   0.31020   0.00000  Uiso   1.00
H224   H     0.77756   0.47665   0.20614   0.00000  Uiso   1.00
C225   C     0.87319   0.09278   0.28458   0.00000  Uiso   1.00
C226   C     0.79974   0.41014   0.22562   0.00000  Uiso   1.00
C227   C     0.84262   0.11512   0.24711   0.00000  Uiso   1.00
C228   C     0.83926   0.38453   0.25094   0.00000  Uiso   1.00
C229   C     0.82443   0.09172   0.20367   0.00000  Uiso   1.00
C230   C     0.88807   0.40422   0.26997   0.00000  Uiso   1.00
C231   C     0.84012   0.04764   0.19684   0.00000  Uiso   1.00
C232   C     0.90031   0.44862   0.25804   0.00000  Uiso   1.00
C233   C     0.86309   0.02413   0.23670   0.00000  Uiso   1.00
C234   C     0.85901   0.47505   0.23670   0.00000  Uiso   1.00
C235   C     0.79440   0.22761   0.04708   0.00000  Uiso   1.00
C236   C     0.84595   0.28943   0.44957   0.00000  Uiso   1.00
H237   H     0.76242   0.21029   0.02475   0.00000  Uiso   1.00
H238   H     0.85446   0.32113   0.46871   0.00000  Uiso   1.00
C239   C     0.79562   0.22678   0.09664   0.00000  Uiso   1.00
C240   C     0.84681   0.28822   0.40021   0.00000  Uiso   1.00
H241   H     0.76554   0.20844   0.11148   0.00000  Uiso   1.00
H242   H     0.85656   0.31846   0.38282   0.00000  Uiso   1.00
N243   N     0.83333   0.24999   0.12623   0.00000  Uiso   1.00
N244   N     0.83333   0.25001   0.37376   0.00000  Uiso   1.00
C245   C     0.87062   0.27491   0.10775   0.00000  Uiso   1.00
C246   C     0.81751   0.21212   0.39566   0.00000  Uiso   1.00
C247   C     0.87342   0.27361   0.05842   0.00000  Uiso   1.00
C248   C     0.82160   0.21055   0.44583   0.00000  Uiso   1.00
C249   C     0.83376   0.25075   0.02687   0.00000  Uiso   1.00
C250   C     0.83377   0.25029   0.47355   0.00000  Uiso   1.00
N251   N     0.98955   0.20946   0.19533   0.00000  Uiso   1.00
O252   O     0.66842   0.21279   0.15271   0.00000  Uiso   1.00
O253   O     0.96304   0.17405   0.20546   0.00000  Uiso   1.00
N254   N     0.67796   0.28006   0.30956   0.00000  Uiso   1.00
O255   O     0.67844   0.26431   0.35207   0.00000  Uiso   1.00
O256   O     0.69564   0.32075   0.30449   0.00000  Uiso   1.00
N257   N     0.89966   0.11622   0.32617   0.00000  Uiso   1.00
O258   O     0.92827   0.15195   0.32142   0.00000  Uiso   1.00
O259   O     0.90539   0.09645   0.36709   0.00000  Uiso   1.00
N260   N     0.74961   0.39098   0.20512   0.00000  Uiso   1.00
O261   O     0.73013   0.35550   0.22295   0.00000  Uiso   1.00
O262   O     0.72131   0.41095   0.17024   0.00000  Uiso   1.00
O263   O     0.79241   0.11211   0.16718   0.00000  Uiso   1.00
C264   C     0.74020   0.10912   0.17656   0.00000  Uiso   1.00
H265   H     0.73291   0.13730   0.20079   0.00000  Uiso   1.00
H266   H     0.73084   0.07656   0.19299   0.00000  Uiso   1.00
C267   C     0.70290   0.11259   0.13015   0.00000  Uiso   1.00
H268   H     0.70686   0.08311   0.10658   0.00000  Uiso   1.00
H269   H     0.99531   0.11323   0.13762   0.00000  Uiso   1.00
H270   H     0.71143   0.14371   0.11140   0.00000  Uiso   1.00
O271   O     0.92388   0.37930   0.29903   0.00000  Uiso   1.00
C272   C     0.92016   0.39167   0.34672   0.00000  Uiso   1.00
H273   H     0.87972   0.38585   0.35470   0.00000  Uiso   1.00
H274   H     0.93086   0.42790   0.35405   0.00000  Uiso   1.00
C275   C     0.95733   0.36389   0.38038   0.00000  Uiso   1.00
H276   H     0.99835   0.37139   0.37525   0.00000  Uiso   1.00
H277   H     0.95285   0.37234   0.41774   0.00000  Uiso   1.00
H278   H     0.94840   0.32746   0.37365   0.00000  Uiso   1.00
N279   N     0.83185   0.02612   0.15030   0.00000  Uiso   1.00
O280   O     0.86481   0.49670   0.13905   0.00000  Uiso   1.00
O281   O     0.79332   0.03703   0.11816   0.00000  Uiso   1.00
N282   N     0.95373   0.46599   0.26547   0.00000  Uiso   1.00
O283   O     0.96725   0.49935   0.24033   0.00000  Uiso   1.00
O284   O     0.99077   0.44453   0.29116   0.00000  Uiso   1.00
N285   N     0.90487   0.30522   0.13774   0.00000  Uiso   1.00
O286   O     0.95467   0.29771   0.14517   0.00000  Uiso   1.00
O287   O     0.88946   0.34593   0.14439   0.00000  Uiso   1.00
N288   N     0.79196   0.17516   0.36796   0.00000  Uiso   1.00
O289   O     0.74828   0.18178   0.34030   0.00000  Uiso   1.00
O290   O     0.80539   0.13400   0.37765   0.00000  Uiso   1.00
O291   O     0.91312   0.29756   0.04157   0.00000  Uiso   1.00
C292   C     0.95261   0.26750   0.03334   0.00000  Uiso   1.00
H293   H     0.93755   0.24143   0.00592   0.00000  Uiso   1.00
H294   H     0.96898   0.25050   0.06668   0.00000  Uiso   1.00
C295   C     0.99659   0.29380   0.01531   0.00000  Uiso   1.00
H296   H     0.68064   0.31915   0.04255   0.00000  Uiso   1.00
H297   H     0.69407   0.27046   0.00771   0.00000  Uiso   1.00
H298   H     0.98127   0.31124   0.48204   0.00000  Uiso   1.00
O299   O     0.80922   0.17079   0.46679   0.00000  Uiso   1.00
C300   C     0.85604   0.14944   0.48501   0.00000  Uiso   1.00
H301   H     0.88096   0.17117   0.01189   0.00000  Uiso   1.00
H302   H     0.87876   0.14061   0.45589   0.00000  Uiso   1.00
C303   C     0.84274   0.10630   0.00926   0.00000  Uiso   1.00
H304   H     0.81858   0.08330   0.48329   0.00000  Uiso   1.00
H305   H     0.87923   0.08914   0.02372   0.00000  Uiso   1.00
H306   H     0.82070   0.11426   0.03898   0.00000  Uiso   1.00
O307   O     0.16667   0.68454   0.28974   0.00000  Uiso   1.00
O308   O     0.16666   0.81547   0.21026   0.00000  Uiso   1.00
O309   O     0.16667   0.68453   0.21026   0.00000  Uiso   1.00
O310   O     0.16666   0.81547   0.28974   0.00000  Uiso   1.00
C311   C     0.16806   0.66351   0.24954   0.00000  Uiso   1.00
C312   C     0.16741   0.83621   0.25042   0.00000  Uiso   1.00
O313   O     0.09058   0.75000   0.28044   0.00000  Uiso   1.00
O314   O     0.24275   0.75000   0.21955   0.00000  Uiso   1.00
O315   O     0.09058   0.75000   0.20096   0.00000  Uiso   1.00
O316   O     0.24275   0.75001   0.29903   0.00000  Uiso   1.00
C317   C     0.06712   0.74881   0.23782   0.00000  Uiso   1.00
C318   C     0.26604   0.74936   0.26234   0.00000  Uiso   1.00
Zn319  Zn    0.16667   0.75001   0.30307   0.00000  Uiso   1.00
Zn320  Zn    0.16667   0.75000   0.19693   0.00000  Uiso   1.00
C321   C     0.01273   0.74022   0.23289   0.00000  Uiso   1.00
C322   C     0.32060   0.75393   0.26870   0.00000  Uiso   1.00
C323   C     0.21305   0.54668   0.28000   0.00000  Uiso   1.00
C324   C     0.14272   0.95577   0.22131   0.00000  Uiso   1.00
H325   H     0.23173   0.52827   0.31020   0.00000  Uiso   1.00
H326   H     0.11089   0.97665   0.20614   0.00000  Uiso   1.00
C327   C     0.20652   0.59278   0.28458   0.00000  Uiso   1.00
C328   C     0.13308   0.91014   0.22562   0.00000  Uiso   1.00
C329   C     0.17595   0.61512   0.24711   0.00000  Uiso   1.00
C330   C     0.17259   0.88453   0.25094   0.00000  Uiso   1.00
C331   C     0.15776   0.59172   0.20367   0.00000  Uiso   1.00
C332   C     0.22140   0.90422   0.26997   0.00000  Uiso   1.00
C333   C     0.17345   0.54764   0.19684   0.00000  Uiso   1.00
C334   C     0.23364   0.94862   0.25804   0.00000  Uiso   1.00
C335   C     0.19642   0.52413   0.23670   0.00000  Uiso   1.00
C336   C     0.19234   0.97505   0.23670   0.00000  Uiso   1.00
C337   C     0.12773   0.72761   0.04708   0.00000  Uiso   1.00
C338   C     0.17928   0.78943   0.44957   0.00000  Uiso   1.00
H339   H     0.09575   0.71029   0.02475   0.00000  Uiso   1.00
H340   H     0.18779   0.82113   0.46871   0.00000  Uiso   1.00
C341   C     0.12895   0.72678   0.09664   0.00000  Uiso   1.00
C342   C     0.18014   0.78822   0.40021   0.00000  Uiso   1.00
H343   H     0.09888   0.70844   0.11148   0.00000  Uiso   1.00
H344   H     0.18990   0.81846   0.38282   0.00000  Uiso   1.00
N345   N     0.16667   0.74999   0.12623   0.00000  Uiso   1.00
N346   N     0.16667   0.75001   0.37376   0.00000  Uiso   1.00
C347   C     0.20395   0.77491   0.10775   0.00000  Uiso   1.00
C348   C     0.15085   0.71212   0.39566   0.00000  Uiso   1.00
C349   C     0.20675   0.77361   0.05842   0.00000  Uiso   1.00
C350   C     0.15494   0.71055   0.44583   0.00000  Uiso   1.00
C351   C     0.16710   0.75075   0.02687   0.00000  Uiso   1.00
C352   C     0.16710   0.75029   0.47355   0.00000  Uiso   1.00
N353   N     0.32288   0.70946   0.19533   0.00000  Uiso   1.00
O354   O     0.00175   0.71279   0.15271   0.00000  Uiso   1.00
O355   O     0.29638   0.67405   0.20546   0.00000  Uiso   1.00
N356   N     0.01129   0.78006   0.30956   0.00000  Uiso   1.00
O357   O     0.01177   0.76431   0.35207   0.00000  Uiso   1.00
O358   O     0.02897   0.82075   0.30449   0.00000  Uiso   1.00
N359   N     0.23300   0.61622   0.32617   0.00000  Uiso   1.00
O360   O     0.26161   0.65195   0.32142   0.00000  Uiso   1.00
O361   O     0.23872   0.59645   0.36709   0.00000  Uiso   1.00
N362   N     0.08294   0.89098   0.20512   0.00000  Uiso   1.00
O363   O     0.06346   0.85550   0.22295   0.00000  Uiso   1.00
O364   O     0.05464   0.91095   0.17024   0.00000  Uiso   1.00
O365   O     0.12575   0.61211   0.16718   0.00000  Uiso   1.00
C366   C     0.07353   0.60912   0.17656   0.00000  Uiso   1.00
H367   H     0.06624   0.63730   0.20079   0.00000  Uiso   1.00
H368   H     0.06418   0.57656   0.19299   0.00000  Uiso   1.00
C369   C     0.03623   0.61259   0.13015   0.00000  Uiso   1.00
H370   H     0.04019   0.58311   0.10658   0.00000  Uiso   1.00
H371   H     0.32864   0.61323   0.13762   0.00000  Uiso   1.00
H372   H     0.04476   0.64371   0.11140   0.00000  Uiso   1.00
O373   O     0.25721   0.87930   0.29903   0.00000  Uiso   1.00
C374   C     0.25349   0.89167   0.34672   0.00000  Uiso   1.00
H375   H     0.21305   0.88585   0.35470   0.00000  Uiso   1.00
H376   H     0.26419   0.92790   0.35405   0.00000  Uiso   1.00
C377   C     0.29067   0.86389   0.38038   0.00000  Uiso   1.00
H378   H     0.33168   0.87139   0.37525   0.00000  Uiso   1.00
H379   H     0.28619   0.87234   0.41774   0.00000  Uiso   1.00
H380   H     0.28173   0.82746   0.37365   0.00000  Uiso   1.00
N381   N     0.16519   0.52612   0.15030   0.00000  Uiso   1.00
O382   O     0.19814   0.99670   0.13905   0.00000  Uiso   1.00
O383   O     0.12665   0.53703   0.11816   0.00000  Uiso   1.00
N384   N     0.28707   0.96599   0.26547   0.00000  Uiso   1.00
O385   O     0.30058   0.99935   0.24033   0.00000  Uiso   1.00
O386   O     0.32410   0.94453   0.29116   0.00000  Uiso   1.00
N387   N     0.23820   0.80522   0.13774   0.00000  Uiso   1.00
O388   O     0.28800   0.79771   0.14517   0.00000  Uiso   1.00
O389   O     0.22280   0.84593   0.14439   0.00000  Uiso   1.00
N390   N     0.12530   0.67516   0.36796   0.00000  Uiso   1.00
O391   O     0.08161   0.68178   0.34030   0.00000  Uiso   1.00
O392   O     0.13873   0.63400   0.37765   0.00000  Uiso   1.00
O393   O     0.24645   0.79756   0.04157   0.00000  Uiso   1.00
C394   C     0.28594   0.76750   0.03334   0.00000  Uiso   1.00
H395   H     0.27089   0.74143   0.00592   0.00000  Uiso   1.00
H396   H     0.30232   0.75050   0.06668   0.00000  Uiso   1.00
C397   C     0.32992   0.79380   0.01531   0.00000  Uiso   1.00
H398   H     0.01397   0.81915   0.04255   0.00000  Uiso   1.00
H399   H     0.02740   0.77046   0.00771   0.00000  Uiso   1.00
H400   H     0.31461   0.81124   0.48204   0.00000  Uiso   1.00
O401   O     0.14255   0.67079   0.46679   0.00000  Uiso   1.00
C402   C     0.18938   0.64944   0.48501   0.00000  Uiso   1.00
H403   H     0.21429   0.67117   0.01189   0.00000  Uiso   1.00
H404   H     0.21209   0.64061   0.45589   0.00000  Uiso   1.00
C405   C     0.17608   0.60630   0.00926   0.00000  Uiso   1.00
H406   H     0.15191   0.58330   0.48329   0.00000  Uiso   1.00
H407   H     0.21256   0.58914   0.02372   0.00000  Uiso   1.00
H408   H     0.15403   0.61426   0.03898   0.00000  Uiso   1.00
O409   O     0.50000   0.68454   0.28974   0.00000  Uiso   1.00
O410   O     0.50000   0.81547   0.21026   0.00000  Uiso   1.00
O411   O     0.50000   0.68453   0.21026   0.00000  Uiso   1.00
O412   O     0.50000   0.81547   0.28974   0.00000  Uiso   1.00
C413   C     0.50140   0.66351   0.24954   0.00000  Uiso   1.00
C414   C     0.50074   0.83621   0.25042   0.00000  Uiso   1.00
O415   O     0.42392   0.75000   0.28044   0.00000  Uiso   1.00
O416   O     0.57608   0.75000   0.21955   0.00000  Uiso   1.00
O417   O     0.42392   0.75000   0.20096   0.00000  Uiso   1.00
O418   O     0.57608   0.75001   0.29903   0.00000  Uiso   1.00
C419   C     0.40046   0.74881   0.23782   0.00000  Uiso   1.00
C420   C     0.59938   0.74936   0.26234   0.00000  Uiso   1.00
Zn421  Zn    0.50000   0.75001   0.30307   0.00000  Uiso   1.00
Zn422  Zn    0.50000   0.75000   0.19693   0.00000  Uiso   1.00
C423   C     0.34607   0.74022   0.23289   0.00000  Uiso   1.00
C424   C     0.65393   0.75393   0.26870   0.00000  Uiso   1.00
C425   C     0.54638   0.54668   0.28000   0.00000  Uiso   1.00
C426   C     0.47606   0.95577   0.22131   0.00000  Uiso   1.00
H427   H     0.56506   0.52827   0.31020   0.00000  Uiso   1.00
H428   H     0.44423   0.97665   0.20614   0.00000  Uiso   1.00
C429   C     0.53986   0.59278   0.28458   0.00000  Uiso   1.00
C430   C     0.46641   0.91014   0.22562   0.00000  Uiso   1.00
C431   C     0.50929   0.61512   0.24711   0.00000  Uiso   1.00
C432   C     0.50592   0.88453   0.25094   0.00000  Uiso   1.00
C433   C     0.49110   0.59172   0.20367   0.00000  Uiso   1.00
C434   C     0.55474   0.90422   0.26997   0.00000  Uiso   1.00
C435   C     0.50678   0.54764   0.19684   0.00000  Uiso   1.00
C436   C     0.56698   0.94862   0.25804   0.00000  Uiso   1.00
C437   C     0.52975   0.52413   0.23670   0.00000  Uiso   1.00
C438   C     0.52567   0.97505   0.23670   0.00000  Uiso   1.00
C439   C     0.46106   0.72761   0.04708   0.00000  Uiso   1.00
C440   C     0.51262   0.78943   0.44957   0.00000  Uiso   1.00
H441   H     0.42909   0.71029   0.02475   0.00000  Uiso   1.00
H442   H     0.52113   0.82113   0.46871   0.00000  Uiso   1.00
C443   C     0.46228   0.72678   0.09664   0.00000  Uiso   1.00
C444   C     0.51348   0.78822   0.40021   0.00000  Uiso   1.00
H445   H     0.43221   0.70844   0.11148   0.00000  Uiso   1.00
H446   H     0.52323   0.81846   0.38282   0.00000  Uiso   1.00
N447   N     0.50000   0.74999   0.12623   0.00000  Uiso   1.00
N448   N     0.50000   0.75001   0.37376   0.00000  Uiso   1.00
C449   C     0.53728   0.77491   0.10775   0.00000  Uiso   1.00
C450   C     0.48418   0.71212   0.39566   0.00000  Uiso   1.00
C451   C     0.54008   0.77361   0.05842   0.00000  Uiso   1.00
C452   C     0.48827   0.71055   0.44583   0.00000  Uiso   1.00
C453   C     0.50043   0.75075   0.02687   0.00000  Uiso   1.00
C454   C     0.50043   0.75029   0.47355   0.00000  Uiso   1.00
N455   N     0.65622   0.70946   0.19533   0.00000  Uiso   1.00
O456   O     0.33508   0.71279   0.15271   0.00000  Uiso   1.00
O457   O     0.62971   0.67405   0.20546   0.00000  Uiso   1.00
N458   N     0.34462   0.78006   0.30956   0.00000  Uiso   1.00
O459   O     0.34510   0.76431   0.35207   0.00000  Uiso   1.00
O460   O     0.36230   0.82075   0.30449   0.00000  Uiso   1.00
N461   N     0.56633   0.61622   0.32617   0.00000  Uiso   1.00
O462   O     0.59494   0.65195   0.32142   0.00000  Uiso   1.00
O463   O     0.57205   0.59645   0.36709   0.00000  Uiso   1.00
N464   N     0.41627   0.89098   0.20512   0.00000  Uiso   1.00
O465   O     0.39679   0.85550   0.22295   0.00000  Uiso   1.00
O466   O     0.38797   0.91095   0.17024   0.00000  Uiso   1.00
O467   O     0.45908   0.61211   0.16718   0.00000  Uiso   1.00
C468   C     0.40686   0.60912   0.17656   0.00000  Uiso   1.00
H469   H     0.39958   0.63730   0.20079   0.00000  Uiso   1.00
H470   H     0.39751   0.57656   0.19299   0.00000  Uiso   1.00
C471   C     0.36956   0.61259   0.13015   0.00000  Uiso   1.00
H472   H     0.37353   0.58311   0.10658   0.00000  Uiso   1.00
H473   H     0.66198   0.61323   0.13762   0.00000  Uiso   1.00
H474   H     0.37809   0.64371   0.11140   0.00000  Uiso   1.00
O475   O     0.59055   0.87930   0.29903   0.00000  Uiso   1.00
C476   C     0.58682   0.89167   0.34672   0.00000  Uiso   1.00
H477   H     0.54638   0.88585   0.35470   0.00000  Uiso   1.00
H478   H     0.59752   0.92790   0.35405   0.00000  Uiso   1.00
C479   C     0.62400   0.86389   0.38038   0.00000  Uiso   1.00
H480   H     0.66501   0.87139   0.37525   0.00000  Uiso   1.00
H481   H     0.61952   0.87234   0.41774   0.00000  Uiso   1.00
H482   H     0.61506   0.82746   0.37365   0.00000  Uiso   1.00
N483   N     0.49852   0.52612   0.15030   0.00000  Uiso   1.00
O484   O     0.53148   0.99670   0.13905   0.00000  Uiso   1.00
O485   O     0.45999   0.53703   0.11816   0.00000  Uiso   1.00
N486   N     0.62040   0.96599   0.26547   0.00000  Uiso   1.00
O487   O     0.63392   0.99935   0.24033   0.00000  Uiso   1.00
O488   O     0.65743   0.94453   0.29116   0.00000  Uiso   1.00
N489   N     0.57154   0.80522   0.13774   0.00000  Uiso   1.00
O490   O     0.62133   0.79771   0.14517   0.00000  Uiso   1.00
O491   O     0.55613   0.84593   0.14439   0.00000  Uiso   1.00
N492   N     0.45863   0.67516   0.36796   0.00000  Uiso   1.00
O493   O     0.41495   0.68178   0.34030   0.00000  Uiso   1.00
O494   O     0.47206   0.63400   0.37765   0.00000  Uiso   1.00
O495   O     0.57979   0.79756   0.04157   0.00000  Uiso   1.00
C496   C     0.61928   0.76750   0.03334   0.00000  Uiso   1.00
H497   H     0.60422   0.74143   0.00592   0.00000  Uiso   1.00
H498   H     0.63565   0.75050   0.06668   0.00000  Uiso   1.00
C499   C     0.66325   0.79380   0.01531   0.00000  Uiso   1.00
H500   H     0.34730   0.81915   0.04255   0.00000  Uiso   1.00
H501   H     0.36074   0.77046   0.00771   0.00000  Uiso   1.00
H502   H     0.64794   0.81124   0.48204   0.00000  Uiso   1.00
O503   O     0.47589   0.67079   0.46679   0.00000  Uiso   1.00
C504   C     0.52271   0.64944   0.48501   0.00000  Uiso   1.00
H505   H     0.54763   0.67117   0.01189   0.00000  Uiso   1.00
H506   H     0.54542   0.64061   0.45589   0.00000  Uiso   1.00
C507   C     0.50941   0.60630   0.00926   0.00000  Uiso   1.00
H508   H     0.48524   0.58330   0.48329   0.00000  Uiso   1.00
H509   H     0.54590   0.58914   0.02372   0.00000  Uiso   1.00
H510   H     0.48736   0.61426   0.03898   0.00000  Uiso   1.00
O511   O     0.83334   0.68454   0.28974   0.00000  Uiso   1.00
O512   O     0.83333   0.81547   0.21026   0.00000  Uiso   1.00
O513   O     0.83334   0.68453   0.21026   0.00000  Uiso   1.00
O514   O     0.83333   0.81547   0.28974   0.00000  Uiso   1.00
C515   C     0.83473   0.66351   0.24954   0.00000  Uiso   1.00
C516   C     0.83407   0.83621   0.25042   0.00000  Uiso   1.00
O517   O     0.75725   0.75000   0.28044   0.00000  Uiso   1.00
O518   O     0.90942   0.75000   0.21955   0.00000  Uiso   1.00
O519   O     0.75725   0.75000   0.20096   0.00000  Uiso   1.00
O520   O     0.90942   0.75001   0.29903   0.00000  Uiso   1.00
C521   C     0.73379   0.74881   0.23782   0.00000  Uiso   1.00
C522   C     0.93271   0.74936   0.26234   0.00000  Uiso   1.00
Zn523  Zn    0.83333   0.75001   0.30307   0.00000  Uiso   1.00
Zn524  Zn    0.83333   0.75000   0.19693   0.00000  Uiso   1.00
C525   C     0.67940   0.74022   0.23289   0.00000  Uiso   1.00
C526   C     0.98726   0.75393   0.26870   0.00000  Uiso   1.00
C527   C     0.87971   0.54668   0.28000   0.00000  Uiso   1.00
C528   C     0.80939   0.95577   0.22131   0.00000  Uiso   1.00
H529   H     0.89840   0.52827   0.31020   0.00000  Uiso   1.00
H530   H     0.77756   0.97665   0.20614   0.00000  Uiso   1.00
C531   C     0.87319   0.59278   0.28458   0.00000  Uiso   1.00
C532   C     0.79974   0.91014   0.22562   0.00000  Uiso   1.00
C533   C     0.84262   0.61512   0.24711   0.00000  Uiso   1.00
C534   C     0.83926   0.88453   0.25094   0.00000  Uiso   1.00
C535   C     0.82443   0.59172   0.20367   0.00000  Uiso   1.00
C536   C     0.88807   0.90422   0.26997   0.00000  Uiso   1.00
C537   C     0.84012   0.54764   0.19684   0.00000  Uiso   1.00
C538   C     0.90031   0.94862   0.25804   0.00000  Uiso   1.00
C539   C     0.86309   0.52413   0.23670   0.00000  Uiso   1.00
C540   C     0.85901   0.97505   0.23670   0.00000  Uiso   1.00
C541   C     0.79440   0.72761   0.04708   0.00000  Uiso   1.00
C542   C     0.84595   0.78943   0.44957   0.00000  Uiso   1.00
H543   H     0.76242   0.71029   0.02475   0.00000  Uiso   1.00
H544   H     0.85446   0.82113   0.46871   0.00000  Uiso   1.00
C545   C     0.79562   0.72678   0.09664   0.00000  Uiso   1.00
C546   C     0.84681   0.78822   0.40021   0.00000  Uiso   1.00
H547   H     0.76554   0.70844   0.11148   0.00000  Uiso   1.00
H548   H     0.85656   0.81846   0.38282   0.00000  Uiso   1.00
N549   N     0.83333   0.74999   0.12623   0.00000  Uiso   1.00
N550   N     0.83333   0.75001   0.37376   0.00000  Uiso   1.00
C551   C     0.87062   0.77491   0.10775   0.00000  Uiso   1.00
C552   C     0.81751   0.71212   0.39566   0.00000  Uiso   1.00
C553   C     0.87342   0.77361   0.05842   0.00000  Uiso   1.00
C554   C     0.82160   0.71055   0.44583   0.00000  Uiso   1.00
C555   C     0.83376   0.75075   0.02687   0.00000  Uiso   1.00
C556   C     0.83377   0.75029   0.47355   0.00000  Uiso   1.00
N557   N     0.98955   0.70946   0.19533   0.00000  Uiso   1.00
O558   O     0.66842   0.71279   0.15271   0.00000  Uiso   1.00
O559   O     0.96304   0.67405   0.20546   0.00000  Uiso   1.00
N560   N     0.67796   0.78006   0.30956   0.00000  Uiso   1.00
O561   O     0.67844   0.76431   0.35207   0.00000  Uiso   1.00
O562   O     0.69564   0.82075   0.30449   0.00000  Uiso   1.00
N563   N     0.89966   0.61622   0.32617   0.00000  Uiso   1.00
O564   O     0.92827   0.65195   0.32142   0.00000  Uiso   1.00
O565   O     0.90539   0.59645   0.36709   0.00000  Uiso   1.00
N566   N     0.74961   0.89098   0.20512   0.00000  Uiso   1.00
O567   O     0.73013   0.85550   0.22295   0.00000  Uiso   1.00
O568   O     0.72131   0.91095   0.17024   0.00000  Uiso   1.00
O569   O     0.79241   0.61211   0.16718   0.00000  Uiso   1.00
C570   C     0.74020   0.60912   0.17656   0.00000  Uiso   1.00
H571   H     0.73291   0.63730   0.20079   0.00000  Uiso   1.00
H572   H     0.73084   0.57656   0.19299   0.00000  Uiso   1.00
C573   C     0.70290   0.61259   0.13015   0.00000  Uiso   1.00
H574   H     0.70686   0.58311   0.10658   0.00000  Uiso   1.00
H575   H     0.99531   0.61323   0.13762   0.00000  Uiso   1.00
H576   H     0.71143   0.64371   0.11140   0.00000  Uiso   1.00
O577   O     0.92388   0.87930   0.29903   0.00000  Uiso   1.00
C578   C     0.92016   0.89167   0.34672   0.00000  Uiso   1.00
H579   H     0.87972   0.88585   0.35470   0.00000  Uiso   1.00
H580   H     0.93086   0.92790   0.35405   0.00000  Uiso   1.00
C581   C     0.95733   0.86389   0.38038   0.00000  Uiso   1.00
H582   H     0.99835   0.87139   0.37525   0.00000  Uiso   1.00
H583   H     0.95285   0.87234   0.41774   0.00000  Uiso   1.00
H584   H     0.94840   0.82746   0.37365   0.00000  Uiso   1.00
N585   N     0.83185   0.52612   0.15030   0.00000  Uiso   1.00
O586   O     0.86481   0.99670   0.13905   0.00000  Uiso   1.00
O587   O     0.79332   0.53703   0.11816   0.00000  Uiso   1.00
N588   N     0.95373   0.96599   0.26547   0.00000  Uiso   1.00
O589   O     0.96725   0.99935   0.24033   0.00000  Uiso   1.00
O590   O     0.99077   0.94453   0.29116   0.00000  Uiso   1.00
N591   N     0.90487   0.80522   0.13774   0.00000  Uiso   1.00
O592   O     0.95467   0.79771   0.14517   0.00000  Uiso   1.00
O593   O     0.88946   0.84593   0.14439   0.00000  Uiso   1.00
N594   N     0.79196   0.67516   0.36796   0.00000  Uiso   1.00
O595   O     0.74828   0.68178   0.34030   0.00000  Uiso   1.00
O596   O     0.80539   0.63400   0.37765   0.00000  Uiso   1.00
O597   O     0.91312   0.79756   0.04157   0.00000  Uiso   1.00
C598   C     0.95261   0.76750   0.03334   0.00000  Uiso   1.00
H599   H     0.93755   0.74143   0.00592   0.00000  Uiso   1.00
H600   H     0.96898   0.75050   0.06668   0.00000  Uiso   1.00
C601   C     0.99659   0.79380   0.01531   0.00000  Uiso   1.00
H602   H     0.68064   0.81915   0.04255   0.00000  Uiso   1.00
H603   H     0.69407   0.77046   0.00771   0.00000  Uiso   1.00
H604   H     0.98127   0.81124   0.48204   0.00000  Uiso   1.00
O605   O     0.80922   0.67079   0.46679   0.00000  Uiso   1.00
C606   C     0.85604   0.64944   0.48501   0.00000  Uiso   1.00
H607   H     0.88096   0.67117   0.01189   0.00000  Uiso   1.00
H608   H     0.87876   0.64061   0.45589   0.00000  Uiso   1.00
C609   C     0.84274   0.60630   0.00926   0.00000  Uiso   1.00
H610   H     0.81858   0.58330   0.48329   0.00000  Uiso   1.00
H611   H     0.87923   0.58914   0.02372   0.00000  Uiso   1.00
H612   H     0.82070   0.61426   0.03898   0.00000  Uiso   1.00
O613   O     0.16667   0.18454   0.78974   0.00000  Uiso   1.00
O614   O     0.16666   0.31547   0.71026   0.00000  Uiso   1.00
O615   O     0.16667   0.18453   0.71026   0.00000  Uiso   1.00
O616   O     0.16666   0.31547   0.78974   0.00000  Uiso   1.00
C617   C     0.16806   0.16351   0.74954   0.00000  Uiso   1.00
C618   C     0.16741   0.33621   0.75042   0.00000  Uiso   1.00
O619   O     0.09058   0.25000   0.78044   0.00000  Uiso   1.00
O620   O     0.24275   0.25000   0.71955   0.00000  Uiso   1.00
O621   O     0.09058   0.25000   0.70096   0.00000  Uiso   1.00
O622   O     0.24275   0.25001   0.79903   0.00000  Uiso   1.00
C623   C     0.06712   0.24881   0.73782   0.00000  Uiso   1.00
C624   C     0.26604   0.24936   0.76234   0.00000  Uiso   1.00
Zn625  Zn    0.16667   0.25001   0.80307   0.00000  Uiso   1.00
Zn626  Zn    0.16667   0.25000   0.69693   0.00000  Uiso   1.00
C627   C     0.01273   0.24022   0.73289   0.00000  Uiso   1.00
C628   C     0.32060   0.25393   0.76870   0.00000  Uiso   1.00
C629   C     0.21305   0.04668   0.78000   0.00000  Uiso   1.00
C630   C     0.14272   0.45577   0.72131   0.00000  Uiso   1.00
H631   H     0.23173   0.02827   0.81020   0.00000  Uiso   1.00
H632   H     0.11089   0.47665   0.70614   0.00000  Uiso   1.00
C633   C     0.20652   0.09278   0.78458   0.00000  Uiso   1.00
C634   C     0.13308   0.41014   0.72562   0.00000  Uiso   1.00
C635   C     0.17595   0.11512   0.74711   0.00000  Uiso   1.00
C636   C     0.17259   0.38453   0.75094   0.00000  Uiso   1.00
C637   C     0.15776   0.09172   0.70367   0.00000  Uiso   1.00
C638   C     0.22140   0.40422   0.76997   0.00000  Uiso   1.00
C639   C     0.17345   0.04764   0.69684   0.00000  Uiso   1.00
C640   C     0.23364   0.44862   0.75804   0.00000  Uiso   1.00
C641   C     0.19642   0.02413   0.73670   0.00000  Uiso   1.00
C642   C     0.19234   0.47505   0.73670   0.00000  Uiso   1.00
C643   C     0.12773   0.22761   0.54708   0.00000  Uiso   1.00
C644   C     0.17928   0.28943   0.94957   0.00000  Uiso   1.00
H645   H     0.09575   0.21029   0.52475   0.00000  Uiso   1.00
H646   H     0.18779   0.32113   0.96871   0.00000  Uiso   1.00
C647   C     0.12895   0.22678   0.59664   0.00000  Uiso   1.00
C648   C     0.18014   0.28822   0.90021   0.00000  Uiso   1.00
H649   H     0.09888   0.20844   0.61148   0.00000  Uiso   1.00
H650   H     0.18990   0.31846   0.88282   0.00000  Uiso   1.00
N651   N     0.16667   0.24999   0.62623   0.00000  Uiso   1.00
N652   N     0.16667   0.25001   0.87376   0.00000  Uiso   1.00
C653   C     0.20395   0.27491   0.60775   0.00000  Uiso   1.00
C654   C     0.15085   0.21212   0.89566   0.00000  Uiso   1.00
C655   C     0.20675   0.27361   0.55842   0.00000  Uiso   1.00
C656   C     0.15494   0.21055   0.94583   0.00000  Uiso   1.00
C657   C     0.16710   0.25075   0.52687   0.00000  Uiso   1.00
C658   C     0.16710   0.25029   0.97355   0.00000  Uiso   1.00
N659   N     0.32288   0.20946   0.69533   0.00000  Uiso   1.00
O660   O     0.00175   0.21279   0.65271   0.00000  Uiso   1.00
O661   O     0.29638   0.17405   0.70546   0.00000  Uiso   1.00
N662   N     0.01129   0.28006   0.80956   0.00000  Uiso   1.00
O663   O     0.01177   0.26431   0.85207   0.00000  Uiso   1.00
O664   O     0.02897   0.32075   0.80449   0.00000  Uiso   1.00
N665   N     0.23300   0.11622   0.82617   0.00000  Uiso   1.00
O666   O     0.26161   0.15195   0.82142   0.00000  Uiso   1.00
O667   O     0.23872   0.09645   0.86709   0.00000  Uiso   1.00
N668   N     0.08294   0.39098   0.70512   0.00000  Uiso   1.00
O669   O     0.06346   0.35550   0.72295   0.00000  Uiso   1.00
O670   O     0.05464   0.41095   0.67024   0.00000  Uiso   1.00
O671   O     0.12575   0.11211   0.66718   0.00000  Uiso   1.00
C672   C     0.07353   0.10912   0.67656   0.00000  Uiso   1.00
H673   H     0.06624   0.13730   0.70079   0.00000  Uiso   1.00
H674   H     0.06418   0.07656   0.69299   0.00000  Uiso   1.00
C675   C     0.03623   0.11259   0.63015   0.00000  Uiso   1.00
H676   H     0.04019   0.08311   0.60658   0.00000  Uiso   1.00
H677   H     0.32864   0.11323   0.63762   0.00000  Uiso   1.00
H678   H     0.04476   0.14371   0.61140   0.00000  Uiso   1.00
O679   O     0.25721   0.37930   0.79903   0.00000  Uiso   1.00
C680   C     0.25349   0.39167   0.84672   0.00000  Uiso   1.00
H681   H     0.21305   0.38585   0.85470   0.00000  Uiso   1.00
H682   H     0.26419   0.42790   0.85405   0.00000  Uiso   1.00
C683   C     0.29067   0.36389   0.88038   0.00000  Uiso   1.00
H684   H     0.33168   0.37139   0.87525   0.00000  Uiso   1.00
H685   H     0.28619   0.37234   0.91774   0.00000  Uiso   1.00
H686   H     0.28173   0.32746   0.87365   0.00000  Uiso   1.00
N687   N     0.16519   0.02612   0.65030   0.00000  Uiso   1.00
O688   O     0.19814   0.49670   0.63905   0.00000  Uiso   1.00
O689   O     0.12665   0.03703   0.61816   0.00000  Uiso   1.00
N690   N     0.28707   0.46599   0.76547   0.00000  Uiso   1.00
O691   O     0.30058   0.49935   0.74033   0.00000  Uiso   1.00
O692   O     0.32410   0.44453   0.79116   0.00000  Uiso   1.00
N693   N     0.23820   0.30522   0.63774   0.00000  Uiso   1.00
O694   O     0.28800   0.29771   0.64517   0.00000  Uiso   1.00
O695   O     0.22280   0.34593   0.64439   0.00000  Uiso   1.00
N696   N     0.12530   0.17516   0.86796   0.00000  Uiso   1.00
O697   O     0.08161   0.18178   0.84030   0.00000  Uiso   1.00
O698   O     0.13873   0.13400   0.87765   0.00000  Uiso   1.00
O699   O     0.24645   0.29756   0.54157   0.00000  Uiso   1.00
C700   C     0.28594   0.26750   0.53334   0.00000  Uiso   1.00
H701   H     0.27089   0.24143   0.50592   0.00000  Uiso   1.00
H702   H     0.30232   0.25050   0.56668   0.00000  Uiso   1.00
C703   C     0.32992   0.29380   0.51531   0.00000  Uiso   1.00
H704   H     0.01397   0.31915   0.54255   0.00000  Uiso   1.00
H705   H     0.02740   0.27046   0.50771   0.00000  Uiso   1.00
H706   H     0.31461   0.31124   0.98204   0.00000  Uiso   1.00
O707   O     0.14255   0.17079   0.96679   0.00000  Uiso   1.00
C708   C     0.18938   0.14944   0.98501   0.00000  Uiso   1.00
H709   H     0.21429   0.17117   0.51189   0.00000  Uiso   1.00
H710   H     0.21209   0.14061   0.95589   0.00000  Uiso   1.00
C711   C     0.17608   0.10630   0.50926   0.00000  Uiso   1.00
H712   H     0.15191   0.08330   0.98329   0.00000  Uiso   1.00
H713   H     0.21256   0.08914   0.52372   0.00000  Uiso   1.00
H714   H     0.15403   0.11426   0.53898   0.00000  Uiso   1.00
O715   O     0.50000   0.18454   0.78974   0.00000  Uiso   1.00
O716   O     0.50000   0.31547   0.71026   0.00000  Uiso   1.00
O717   O     0.50000   0.18453   0.71026   0.00000  Uiso   1.00
O718   O     0.50000   0.31547   0.78974   0.00000  Uiso   1.00
C719   C     0.50140   0.16351   0.74954   0.00000  Uiso   1.00
C720   C     0.50074   0.33621   0.75042   0.00000  Uiso   1.00
O721   O     0.42392   0.25000   0.78044   0.00000  Uiso   1.00
O722   O     0.57608   0.25000   0.71955   0.00000  Uiso   1.00
O723   O     0.42392   0.25000   0.70096   0.00000  Uiso   1.00
O724   O     0.57608   0.25001   0.79903   0.00000  Uiso   1.00
C725   C     0.40046   0.24881   0.73782   0.00000  Uiso   1.00
C726   C     0.59938   0.24936   0.76234   0.00000  Uiso   1.00
Zn727  Zn    0.50000   0.25001   0.80307   0.00000  Uiso   1.00
Zn728  Zn    0.50000   0.25000   0.69693   0.00000  Uiso   1.00
C729   C     0.34607   0.24022   0.73289   0.00000  Uiso   1.00
C730   C     0.65393   0.25393   0.76870   0.00000  Uiso   1.00
C731   C     0.54638   0.04668   0.78000   0.00000  Uiso   1.00
C732   C     0.47606   0.45577   0.72131   0.00000  Uiso   1.00
H733   H     0.56506   0.02827   0.81020   0.00000  Uiso   1.00
H734   H     0.44423   0.47665   0.70614   0.00000  Uiso   1.00
C735   C     0.53986   0.09278   0.78458   0.00000  Uiso   1.00
C736   C     0.46641   0.41014   0.72562   0.00000  Uiso   1.00
C737   C     0.50929   0.11512   0.74711   0.00000  Uiso   1.00
C738   C     0.50592   0.38453   0.75094   0.00000  Uiso   1.00
C739   C     0.49110   0.09172   0.70367   0.00000  Uiso   1.00
C740   C     0.55474   0.40422   0.76997   0.00000  Uiso   1.00
C741   C     0.50678   0.04764   0.69684   0.00000  Uiso   1.00
C742   C     0.56698   0.44862   0.75804   0.00000  Uiso   1.00
C743   C     0.52975   0.02413   0.73670   0.00000  Uiso   1.00
C744   C     0.52567   0.47505   0.73670   0.00000  Uiso   1.00
C745   C     0.46106   0.22761   0.54708   0.00000  Uiso   1.00
C746   C     0.51262   0.28943   0.94957   0.00000  Uiso   1.00
H747   H     0.42909   0.21029   0.52475   0.00000  Uiso   1.00
H748   H     0.52113   0.32113   0.96871   0.00000  Uiso   1.00
C749   C     0.46228   0.22678   0.59664   0.00000  Uiso   1.00
C750   C     0.51348   0.28822   0.90021   0.00000  Uiso   1.00
H751   H     0.43221   0.20844   0.61148   0.00000  Uiso   1.00
H752   H     0.52323   0.31846   0.88282   0.00000  Uiso   1.00
N753   N     0.50000   0.24999   0.62623   0.00000  Uiso   1.00
N754   N     0.50000   0.25001   0.87376   0.00000  Uiso   1.00
C755   C     0.53728   0.27491   0.60775   0.00000  Uiso   1.00
C756   C     0.48418   0.21212   0.89566   0.00000  Uiso   1.00
C757   C     0.54008   0.27361   0.55842   0.00000  Uiso   1.00
C758   C     0.48827   0.21055   0.94583   0.00000  Uiso   1.00
C759   C     0.50043   0.25075   0.52687   0.00000  Uiso   1.00
C760   C     0.50043   0.25029   0.97355   0.00000  Uiso   1.00
N761   N     0.65622   0.20946   0.69533   0.00000  Uiso   1.00
O762   O     0.33508   0.21279   0.65271   0.00000  Uiso   1.00
O763   O     0.62971   0.17405   0.70546   0.00000  Uiso   1.00
N764   N     0.34462   0.28006   0.80956   0.00000  Uiso   1.00
O765   O     0.34510   0.26431   0.85207   0.00000  Uiso   1.00
O766   O     0.36230   0.32075   0.80449   0.00000  Uiso   1.00
N767   N     0.56633   0.11622   0.82617   0.00000  Uiso   1.00
O768   O     0.59494   0.15195   0.82142   0.00000  Uiso   1.00
O769   O     0.57205   0.09645   0.86709   0.00000  Uiso   1.00
N770   N     0.41627   0.39098   0.70512   0.00000  Uiso   1.00
O771   O     0.39679   0.35550   0.72295   0.00000  Uiso   1.00
O772   O     0.38797   0.41095   0.67024   0.00000  Uiso   1.00
O773   O     0.45908   0.11211   0.66718   0.00000  Uiso   1.00
C774   C     0.40686   0.10912   0.67656   0.00000  Uiso   1.00
H775   H     0.39958   0.13730   0.70079   0.00000  Uiso   1.00
H776   H     0.39751   0.07656   0.69299   0.00000  Uiso   1.00
C777   C     0.36956   0.11259   0.63015   0.00000  Uiso   1.00
H778   H     0.37353   0.08311   0.60658   0.00000  Uiso   1.00
H779   H     0.66198   0.11323   0.63762   0.00000  Uiso   1.00
H780   H     0.37809   0.14371   0.61140   0.00000  Uiso   1.00
O781   O     0.59055   0.37930   0.79903   0.00000  Uiso   1.00
C782   C     0.58682   0.39167   0.84672   0.00000  Uiso   1.00
H783   H     0.54638   0.38585   0.85470   0.00000  Uiso   1.00
H784   H     0.59752   0.42790   0.85405   0.00000  Uiso   1.00
C785   C     0.62400   0.36389   0.88038   0.00000  Uiso   1.00
H786   H     0.66501   0.37139   0.87525   0.00000  Uiso   1.00
H787   H     0.61952   0.37234   0.91774   0.00000  Uiso   1.00
H788   H     0.61506   0.32746   0.87365   0.00000  Uiso   1.00
N789   N     0.49852   0.02612   0.65030   0.00000  Uiso   1.00
O790   O     0.53148   0.49670   0.63905   0.00000  Uiso   1.00
O791   O     0.45999   0.03703   0.61816   0.00000  Uiso   1.00
N792   N     0.62040   0.46599   0.76547   0.00000  Uiso   1.00
O793   O     0.63392   0.49935   0.74033   0.00000  Uiso   1.00
O794   O     0.65743   0.44453   0.79116   0.00000  Uiso   1.00
N795   N     0.57154   0.30522   0.63774   0.00000  Uiso   1.00
O796   O     0.62133   0.29771   0.64517   0.00000  Uiso   1.00
O797   O     0.55613   0.34593   0.64439   0.00000  Uiso   1.00
N798   N     0.45863   0.17516   0.86796   0.00000  Uiso   1.00
O799   O     0.41495   0.18178   0.84030   0.00000  Uiso   1.00
O800   O     0.47206   0.13400   0.87765   0.00000  Uiso   1.00
O801   O     0.57979   0.29756   0.54157   0.00000  Uiso   1.00
C802   C     0.61928   0.26750   0.53334   0.00000  Uiso   1.00
H803   H     0.60422   0.24143   0.50592   0.00000  Uiso   1.00
H804   H     0.63565   0.25050   0.56668   0.00000  Uiso   1.00
C805   C     0.66325   0.29380   0.51531   0.00000  Uiso   1.00
H806   H     0.34730   0.31915   0.54255   0.00000  Uiso   1.00
H807   H     0.36074   0.27046   0.50771   0.00000  Uiso   1.00
H808   H     0.64794   0.31124   0.98204   0.00000  Uiso   1.00
O809   O     0.47589   0.17079   0.96679   0.00000  Uiso   1.00
C810   C     0.52271   0.14944   0.98501   0.00000  Uiso   1.00
H811   H     0.54763   0.17117   0.51189   0.00000  Uiso   1.00
H812   H     0.54542   0.14061   0.95589   0.00000  Uiso   1.00
C813   C     0.50941   0.10630   0.50926   0.00000  Uiso   1.00
H814   H     0.48524   0.08330   0.98329   0.00000  Uiso   1.00
H815   H     0.54590   0.08914   0.52372   0.00000  Uiso   1.00
H816   H     0.48736   0.11426   0.53898   0.00000  Uiso   1.00
O817   O     0.83334   0.18454   0.78974   0.00000  Uiso   1.00
O818   O     0.83333   0.31547   0.71026   0.00000  Uiso   1.00
O819   O     0.83334   0.18453   0.71026   0.00000  Uiso   1.00
O820   O     0.83333   0.31547   0.78974   0.00000  Uiso   1.00
C821   C     0.83473   0.16351   0.74954   0.00000  Uiso   1.00
C822   C     0.83407   0.33621   0.75042   0.00000  Uiso   1.00
O823   O     0.75725   0.25000   0.78044   0.00000  Uiso   1.00
O824   O     0.90942   0.25000   0.71955   0.00000  Uiso   1.00
O825   O     0.75725   0.25000   0.70096   0.00000  Uiso   1.00
O826   O     0.90942   0.25001   0.79903   0.00000  Uiso   1.00
C827   C     0.73379   0.24881   0.73782   0.00000  Uiso   1.00
C828   C     0.93271   0.24936   0.76234   0.00000  Uiso   1.00
Zn829  Zn    0.83333   0.25001   0.80307   0.00000  Uiso   1.00
Zn830  Zn    0.83333   0.25000   0.69693   0.00000  Uiso   1.00
C831   C     0.67940   0.24022   0.73289   0.00000  Uiso   1.00
C832   C     0.98726   0.25393   0.76870   0.00000  Uiso   1.00
C833   C     0.87971   0.04668   0.78000   0.00000  Uiso   1.00
C834   C     0.80939   0.45577   0.72131   0.00000  Uiso   1.00
H835   H     0.89840   0.02827   0.81020   0.00000  Uiso   1.00
H836   H     0.77756   0.47665   0.70614   0.00000  Uiso   1.00
C837   C     0.87319   0.09278   0.78458   0.00000  Uiso   1.00
C838   C     0.79974   0.41014   0.72562   0.00000  Uiso   1.00
C839   C     0.84262   0.11512   0.74711   0.00000  Uiso   1.00
C840   C     0.83926   0.38453   0.75094   0.00000  Uiso   1.00
C841   C     0.82443   0.09172   0.70367   0.00000  Uiso   1.00
C842   C     0.88807   0.40422   0.76997   0.00000  Uiso   1.00
C843   C     0.84012   0.04764   0.69684   0.00000  Uiso   1.00
C844   C     0.90031   0.44862   0.75804   0.00000  Uiso   1.00
C845   C     0.86309   0.02413   0.73670   0.00000  Uiso   1.00
C846   C     0.85901   0.47505   0.73670   0.00000  Uiso   1.00
C847   C     0.79440   0.22761   0.54708   0.00000  Uiso   1.00
C848   C     0.84595   0.28943   0.94957   0.00000  Uiso   1.00
H849   H     0.76242   0.21029   0.52475   0.00000  Uiso   1.00
H850   H     0.85446   0.32113   0.96871   0.00000  Uiso   1.00
C851   C     0.79562   0.22678   0.59664   0.00000  Uiso   1.00
C852   C     0.84681   0.28822   0.90021   0.00000  Uiso   1.00
H853   H     0.76554   0.20844   0.61148   0.00000  Uiso   1.00
H854   H     0.85656   0.31846   0.88282   0.00000  Uiso   1.00
N855   N     0.83333   0.24999   0.62623   0.00000  Uiso   1.00
N856   N     0.83333   0.25001   0.87376   0.00000  Uiso   1.00
C857   C     0.87062   0.27491   0.60775   0.00000  Uiso   1.00
C858   C     0.81751   0.21212   0.89566   0.00000  Uiso   1.00
C859   C     0.87342   0.27361   0.55842   0.00000  Uiso   1.00
C860   C     0.82160   0.21055   0.94583   0.00000  Uiso   1.00
C861   C     0.83376   0.25075   0.52687   0.00000  Uiso   1.00
C862   C     0.83377   0.25029   0.97355   0.00000  Uiso   1.00
N863   N     0.98955   0.20946   0.69533   0.00000  Uiso   1.00
O864   O     0.66842   0.21279   0.65271   0.00000  Uiso   1.00
O865   O     0.96304   0.17405   0.70546   0.00000  Uiso   1.00
N866   N     0.67796   0.28006   0.80956   0.00000  Uiso   1.00
O867   O     0.67844   0.26431   0.85207   0.00000  Uiso   1.00
O868   O     0.69564   0.32075   0.80449   0.00000  Uiso   1.00
N869   N     0.89966   0.11622   0.82617   0.00000  Uiso   1.00
O870   O     0.92827   0.15195   0.82142   0.00000  Uiso   1.00
O871   O     0.90539   0.09645   0.86709   0.00000  Uiso   1.00
N872   N     0.74961   0.39098   0.70512   0.00000  Uiso   1.00
O873   O     0.73013   0.35550   0.72295   0.00000  Uiso   1.00
O874   O     0.72131   0.41095   0.67024   0.00000  Uiso   1.00
O875   O     0.79241   0.11211   0.66718   0.00000  Uiso   1.00
C876   C     0.74020   0.10912   0.67656   0.00000  Uiso   1.00
H877   H     0.73291   0.13730   0.70079   0.00000  Uiso   1.00
H878   H     0.73084   0.07656   0.69299   0.00000  Uiso   1.00
C879   C     0.70290   0.11259   0.63015   0.00000  Uiso   1.00
H880   H     0.70686   0.08311   0.60658   0.00000  Uiso   1.00
H881   H     0.99531   0.11323   0.63762   0.00000  Uiso   1.00
H882   H     0.71143   0.14371   0.61140   0.00000  Uiso   1.00
O883   O     0.92388   0.37930   0.79903   0.00000  Uiso   1.00
C884   C     0.92016   0.39167   0.84672   0.00000  Uiso   1.00
H885   H     0.87972   0.38585   0.85470   0.00000  Uiso   1.00
H886   H     0.93086   0.42790   0.85405   0.00000  Uiso   1.00
C887   C     0.95733   0.36389   0.88038   0.00000  Uiso   1.00
H888   H     0.99835   0.37139   0.87525   0.00000  Uiso   1.00
H889   H     0.95285   0.37234   0.91774   0.00000  Uiso   1.00
H890   H     0.94840   0.32746   0.87365   0.00000  Uiso   1.00
N891   N     0.83185   0.02612   0.65030   0.00000  Uiso   1.00
O892   O     0.86481   0.49670   0.63905   0.00000  Uiso   1.00
O893   O     0.79332   0.03703   0.61816   0.00000  Uiso   1.00
N894   N     0.95373   0.46599   0.76547   0.00000  Uiso   1.00
O895   O     0.96725   0.49935   0.74033   0.00000  Uiso   1.00
O896   O     0.99077   0.44453   0.79116   0.00000  Uiso   1.00
N897   N     0.90487   0.30522   0.63774   0.00000  Uiso   1.00
O898   O     0.95467   0.29771   0.64517   0.00000  Uiso   1.00
O899   O     0.88946   0.34593   0.64439   0.00000  Uiso   1.00
N900   N     0.79196   0.17516   0.86796   0.00000  Uiso   1.00
O901   O     0.74828   0.18178   0.84030   0.00000  Uiso   1.00
O902   O     0.80539   0.13400   0.87765   0.00000  Uiso   1.00
O903   O     0.91312   0.29756   0.54157   0.00000  Uiso   1.00
C904   C     0.95261   0.26750   0.53334   0.00000  Uiso   1.00
H905   H     0.93755   0.24143   0.50592   0.00000  Uiso   1.00
H906   H     0.96898   0.25050   0.56668   0.00000  Uiso   1.00
C907   C     0.99659   0.29380   0.51531   0.00000  Uiso   1.00
H908   H     0.68064   0.31915   0.54255   0.00000  Uiso   1.00
H909   H     0.69407   0.27046   0.50771   0.00000  Uiso   1.00
H910   H     0.98127   0.31124   0.98204   0.00000  Uiso   1.00
O911   O     0.80922   0.17079   0.96679   0.00000  Uiso   1.00
C912   C     0.85604   0.14944   0.98501   0.00000  Uiso   1.00
H913   H     0.88096   0.17117   0.51189   0.00000  Uiso   1.00
H914   H     0.87876   0.14061   0.95589   0.00000  Uiso   1.00
C915   C     0.84274   0.10630   0.50926   0.00000  Uiso   1.00
H916   H     0.81858   0.08330   0.98329   0.00000  Uiso   1.00
H917   H     0.87923   0.08914   0.52372   0.00000  Uiso   1.00
H918   H     0.82070   0.11426   0.53898   0.00000  Uiso   1.00
O919   O     0.16667   0.68454   0.78974   0.00000  Uiso   1.00
O920   O     0.16666   0.81547   0.71026   0.00000  Uiso   1.00
O921   O     0.16667   0.68453   0.71026   0.00000  Uiso   1.00
O922   O     0.16666   0.81547   0.78974   0.00000  Uiso   1.00
C923   C     0.16806   0.66351   0.74954   0.00000  Uiso   1.00
C924   C     0.16741   0.83621   0.75042   0.00000  Uiso   1.00
O925   O     0.09058   0.75000   0.78044   0.00000  Uiso   1.00
O926   O     0.24275   0.75000   0.71955   0.00000  Uiso   1.00
O927   O     0.09058   0.75000   0.70096   0.00000  Uiso   1.00
O928   O     0.24275   0.75001   0.79903   0.00000  Uiso   1.00
C929   C     0.06712   0.74881   0.73782   0.00000  Uiso   1.00
C930   C     0.26604   0.74936   0.76234   0.00000  Uiso   1.00
Zn931  Zn    0.16667   0.75001   0.80307   0.00000  Uiso   1.00
Zn932  Zn    0.16667   0.75000   0.69693   0.00000  Uiso   1.00
C933   C     0.01273   0.74022   0.73289   0.00000  Uiso   1.00
C934   C     0.32060   0.75393   0.76870   0.00000  Uiso   1.00
C935   C     0.21305   0.54668   0.78000   0.00000  Uiso   1.00
C936   C     0.14272   0.95577   0.72131   0.00000  Uiso   1.00
H937   H     0.23173   0.52827   0.81020   0.00000  Uiso   1.00
H938   H     0.11089   0.97665   0.70614   0.00000  Uiso   1.00
C939   C     0.20652   0.59278   0.78458   0.00000  Uiso   1.00
C940   C     0.13308   0.91014   0.72562   0.00000  Uiso   1.00
C941   C     0.17595   0.61512   0.74711   0.00000  Uiso   1.00
C942   C     0.17259   0.88453   0.75094   0.00000  Uiso   1.00
C943   C     0.15776   0.59172   0.70367   0.00000  Uiso   1.00
C944   C     0.22140   0.90422   0.76997   0.00000  Uiso   1.00
C945   C     0.17345   0.54764   0.69684   0.00000  Uiso   1.00
C946   C     0.23364   0.94862   0.75804   0.00000  Uiso   1.00
C947   C     0.19642   0.52413   0.73670   0.00000  Uiso   1.00
C948   C     0.19234   0.97505   0.73670   0.00000  Uiso   1.00
C949   C     0.12773   0.72761   0.54708   0.00000  Uiso   1.00
C950   C     0.17928   0.78943   0.94957   0.00000  Uiso   1.00
H951   H     0.09575   0.71029   0.52475   0.00000  Uiso   1.00
H952   H     0.18779   0.82113   0.96871   0.00000  Uiso   1.00
C953   C     0.12895   0.72678   0.59664   0.00000  Uiso   1.00
C954   C     0.18014   0.78822   0.90021   0.00000  Uiso   1.00
H955   H     0.09888   0.70844   0.61148   0.00000  Uiso   1.00
H956   H     0.18990   0.81846   0.88282   0.00000  Uiso   1.00
N957   N     0.16667   0.74999   0.62623   0.00000  Uiso   1.00
N958   N     0.16667   0.75001   0.87376   0.00000  Uiso   1.00
C959   C     0.20395   0.77491   0.60775   0.00000  Uiso   1.00
C960   C     0.15085   0.71212   0.89566   0.00000  Uiso   1.00
C961   C     0.20675   0.77361   0.55842   0.00000  Uiso   1.00
C962   C     0.15494   0.71055   0.94583   0.00000  Uiso   1.00
C963   C     0.16710   0.75075   0.52687   0.00000  Uiso   1.00
C964   C     0.16710   0.75029   0.97355   0.00000  Uiso   1.00
N965   N     0.32288   0.70946   0.69533   0.00000  Uiso   1.00
O966   O     0.00175   0.71279   0.65271   0.00000  Uiso   1.00
O967   O     0.29638   0.67405   0.70546   0.00000  Uiso   1.00
N968   N     0.01129   0.78006   0.80956   0.00000  Uiso   1.00
O969   O     0.01177   0.76431   0.85207   0.00000  Uiso   1.00
O970   O     0.02897   0.82075   0.80449   0.00000  Uiso   1.00
N971   N     0.23300   0.61622   0.82617   0.00000  Uiso   1.00
O972   O     0.26161   0.65195   0.82142   0.00000  Uiso   1.00
O973   O     0.23872   0.59645   0.86709   0.00000  Uiso   1.00
N974   N     0.08294   0.89098   0.70512   0.00000  Uiso   1.00
O975   O     0.06346   0.85550   0.72295   0.00000  Uiso   1.00
O976   O     0.05464   0.91095   0.67024   0.00000  Uiso   1.00
O977   O     0.12575   0.61211   0.66718   0.00000  Uiso   1.00
C978   C     0.07353   0.60912   0.67656   0.00000  Uiso   1.00
H979   H     0.06624   0.63730   0.70079   0.00000  Uiso   1.00
H980   H     0.06418   0.57656   0.69299   0.00000  Uiso   1.00
C981   C     0.03623   0.61259   0.63015   0.00000  Uiso   1.00
H982   H     0.04019   0.58311   0.60658   0.00000  Uiso   1.00
H983   H     0.32864   0.61323   0.63762   0.00000  Uiso   1.00
H984   H     0.04476   0.64371   0.61140   0.00000  Uiso   1.00
O985   O     0.25721   0.87930   0.79903   0.00000  Uiso   1.00
C986   C     0.25349   0.89167   0.84672   0.00000  Uiso   1.00
H987   H     0.21305   0.88585   0.85470   0.00000  Uiso   1.00
H988   H     0.26419   0.92790   0.85405   0.00000  Uiso   1.00
C989   C     0.29067   0.86389   0.88038   0.00000  Uiso   1.00
H990   H     0.33168   0.87139   0.87525   0.00000  Uiso   1.00
H991   H     0.28619   0.87234   0.91774   0.00000  Uiso   1.00
H992   H     0.28173   0.82746   0.87365   0.00000  Uiso   1.00
N993   N     0.16519   0.52612   0.65030   0.00000  Uiso   1.00
O994   O     0.19814   0.99670   0.63905   0.00000  Uiso   1.00
O995   O     0.12665   0.53703   0.61816   0.00000  Uiso   1.00
N996   N     0.28707   0.96599   0.76547   0.00000  Uiso   1.00
O997   O     0.30058   0.99935   0.74033   0.00000  Uiso   1.00
O998   O     0.32410   0.94453   0.79116   0.00000  Uiso   1.00
N999   N     0.23820   0.80522   0.63774   0.00000  Uiso   1.00
O1000  O     0.28800   0.79771   0.64517   0.00000  Uiso   1.00
O1001  O     0.22280   0.84593   0.64439   0.00000  Uiso   1.00
N1002  N     0.12530   0.67516   0.86796   0.00000  Uiso   1.00
O1003  O     0.08161   0.68178   0.84030   0.00000  Uiso   1.00
O1004  O     0.13873   0.63400   0.87765   0.00000  Uiso   1.00
O1005  O     0.24645   0.79756   0.54157   0.00000  Uiso   1.00
C1006  C     0.28594   0.76750   0.53334   0.00000  Uiso   1.00
H1007  H     0.27089   0.74143   0.50592   0.00000  Uiso   1.00
H1008  H     0.30232   0.75050   0.56668   0.00000  Uiso   1.00
C1009  C     0.32992   0.79380   0.51531   0.00000  Uiso   1.00
H1010  H     0.01397   0.81915   0.54255   0.00000  Uiso   1.00
H1011  H     0.02740   0.77046   0.50771   0.00000  Uiso   1.00
H1012  H     0.31461   0.81124   0.98204   0.00000  Uiso   1.00
O1013  O     0.14255   0.67079   0.96679   0.00000  Uiso   1.00
C1014  C     0.18938   0.64944   0.98501   0.00000  Uiso   1.00
H1015  H     0.21429   0.67117   0.51189   0.00000  Uiso   1.00
H1016  H     0.21209   0.64061   0.95589   0.00000  Uiso   1.00
C1017  C     0.17608   0.60630   0.50926   0.00000  Uiso   1.00
H1018  H     0.15191   0.58330   0.98329   0.00000  Uiso   1.00
H1019  H     0.21256   0.58914   0.52372   0.00000  Uiso   1.00
H1020  H     0.15403   0.61426   0.53898   0.00000  Uiso   1.00
O1021  O     0.50000   0.68454   0.78974   0.00000  Uiso   1.00
O1022  O     0.50000   0.81547   0.71026   0.00000  Uiso   1.00
O1023  O     0.50000   0.68453   0.71026   0.00000  Uiso   1.00
O1024  O     0.50000   0.81547   0.78974   0.00000  Uiso   1.00
C1025  C     0.50140   0.66351   0.74954   0.00000  Uiso   1.00
C1026  C     0.50074   0.83621   0.75042   0.00000  Uiso   1.00
O1027  O     0.42392   0.75000   0.78044   0.00000  Uiso   1.00
O1028  O     0.57608   0.75000   0.71955   0.00000  Uiso   1.00
O1029  O     0.42392   0.75000   0.70096   0.00000  Uiso   1.00
O1030  O     0.57608   0.75001   0.79903   0.00000  Uiso   1.00
C1031  C     0.40046   0.74881   0.73782   0.00000  Uiso   1.00
C1032  C     0.59938   0.74936   0.76234   0.00000  Uiso   1.00
Zn1033 Zn    0.50000   0.75001   0.80307   0.00000  Uiso   1.00
Zn1034 Zn    0.50000   0.75000   0.69693   0.00000  Uiso   1.00
C1035  C     0.34607   0.74022   0.73289   0.00000  Uiso   1.00
C1036  C     0.65393   0.75393   0.76870   0.00000  Uiso   1.00
C1037  C     0.54638   0.54668   0.78000   0.00000  Uiso   1.00
C1038  C     0.47606   0.95577   0.72131   0.00000  Uiso   1.00
H1039  H     0.56506   0.52827   0.81020   0.00000  Uiso   1.00
H1040  H     0.44423   0.97665   0.70614   0.00000  Uiso   1.00
C1041  C     0.53986   0.59278   0.78458   0.00000  Uiso   1.00
C1042  C     0.46641   0.91014   0.72562   0.00000  Uiso   1.00
C1043  C     0.50929   0.61512   0.74711   0.00000  Uiso   1.00
C1044  C     0.50592   0.88453   0.75094   0.00000  Uiso   1.00
C1045  C     0.49110   0.59172   0.70367   0.00000  Uiso   1.00
C1046  C     0.55474   0.90422   0.76997   0.00000  Uiso   1.00
C1047  C     0.50678   0.54764   0.69684   0.00000  Uiso   1.00
C1048  C     0.56698   0.94862   0.75804   0.00000  Uiso   1.00
C1049  C     0.52975   0.52413   0.73670   0.00000  Uiso   1.00
C1050  C     0.52567   0.97505   0.73670   0.00000  Uiso   1.00
C1051  C     0.46106   0.72761   0.54708   0.00000  Uiso   1.00
C1052  C     0.51262   0.78943   0.94957   0.00000  Uiso   1.00
H1053  H     0.42909   0.71029   0.52475   0.00000  Uiso   1.00
H1054  H     0.52113   0.82113   0.96871   0.00000  Uiso   1.00
C1055  C     0.46228   0.72678   0.59664   0.00000  Uiso   1.00
C1056  C     0.51348   0.78822   0.90021   0.00000  Uiso   1.00
H1057  H     0.43221   0.70844   0.61148   0.00000  Uiso   1.00
H1058  H     0.52323   0.81846   0.88282   0.00000  Uiso   1.00
N1059  N     0.50000   0.74999   0.62623   0.00000  Uiso   1.00
N1060  N     0.50000   0.75001   0.87376   0.00000  Uiso   1.00
C1061  C     0.53728   0.77491   0.60775   0.00000  Uiso   1.00
C1062  C     0.48418   0.71212   0.89566   0.00000  Uiso   1.00
C1063  C     0.54008   0.77361   0.55842   0.00000  Uiso   1.00
C1064  C     0.48827   0.71055   0.94583   0.00000  Uiso   1.00
C1065  C     0.50043   0.75075   0.52687   0.00000  Uiso   1.00
C1066  C     0.50043   0.75029   0.97355   0.00000  Uiso   1.00
N1067  N     0.65622   0.70946   0.69533   0.00000  Uiso   1.00
O1068  O     0.33508   0.71279   0.65271   0.00000  Uiso   1.00
O1069  O     0.62971   0.67405   0.70546   0.00000  Uiso   1.00
N1070  N     0.34462   0.78006   0.80956   0.00000  Uiso   1.00
O1071  O     0.34510   0.76431   0.85207   0.00000  Uiso   1.00
O1072  O     0.36230   0.82075   0.80449   0.00000  Uiso   1.00
N1073  N     0.56633   0.61622   0.82617   0.00000  Uiso   1.00
O1074  O     0.59494   0.65195   0.82142   0.00000  Uiso   1.00
O1075  O     0.57205   0.59645   0.86709   0.00000  Uiso   1.00
N1076  N     0.41627   0.89098   0.70512   0.00000  Uiso   1.00
O1077  O     0.39679   0.85550   0.72295   0.00000  Uiso   1.00
O1078  O     0.38797   0.91095   0.67024   0.00000  Uiso   1.00
O1079  O     0.45908   0.61211   0.66718   0.00000  Uiso   1.00
C1080  C     0.40686   0.60912   0.67656   0.00000  Uiso   1.00
H1081  H     0.39958   0.63730   0.70079   0.00000  Uiso   1.00
H1082  H     0.39751   0.57656   0.69299   0.00000  Uiso   1.00
C1083  C     0.36956   0.61259   0.63015   0.00000  Uiso   1.00
H1084  H     0.37353   0.58311   0.60658   0.00000  Uiso   1.00
H1085  H     0.66198   0.61323   0.63762   0.00000  Uiso   1.00
H1086  H     0.37809   0.64371   0.61140   0.00000  Uiso   1.00
O1087  O     0.59055   0.87930   0.79903   0.00000  Uiso   1.00
C1088  C     0.58682   0.89167   0.84672   0.00000  Uiso   1.00
H1089  H     0.54638   0.88585   0.85470   0.00000  Uiso   1.00
H1090  H     0.59752   0.92790   0.85405   0.00000  Uiso   1.00
C1091  C     0.62400   0.86389   0.88038   0.00000  Uiso   1.00
H1092  H     0.66501   0.87139   0.87525   0.00000  Uiso   1.00
H1093  H     0.61952   0.87234   0.91774   0.00000  Uiso   1.00
H1094  H     0.61506   0.82746   0.87365   0.00000  Uiso   1.00
N1095  N     0.49852   0.52612   0.65030   0.00000  Uiso   1.00
O1096  O     0.53148   0.99670   0.63905   0.00000  Uiso   1.00
O1097  O     0.45999   0.53703   0.61816   0.00000  Uiso   1.00
N1098  N     0.62040   0.96599   0.76547   0.00000  Uiso   1.00
O1099  O     0.63392   0.99935   0.74033   0.00000  Uiso   1.00
O1100  O     0.65743   0.94453   0.79116   0.00000  Uiso   1.00
N1101  N     0.57154   0.80522   0.63774   0.00000  Uiso   1.00
O1102  O     0.62133   0.79771   0.64517   0.00000  Uiso   1.00
O1103  O     0.55613   0.84593   0.64439   0.00000  Uiso   1.00
N1104  N     0.45863   0.67516   0.86796   0.00000  Uiso   1.00
O1105  O     0.41495   0.68178   0.84030   0.00000  Uiso   1.00
O1106  O     0.47206   0.63400   0.87765   0.00000  Uiso   1.00
O1107  O     0.57979   0.79756   0.54157   0.00000  Uiso   1.00
C1108  C     0.61928   0.76750   0.53334   0.00000  Uiso   1.00
H1109  H     0.60422   0.74143   0.50592   0.00000  Uiso   1.00
H1110  H     0.63565   0.75050   0.56668   0.00000  Uiso   1.00
C1111  C     0.66325   0.79380   0.51531   0.00000  Uiso   1.00
H1112  H     0.34730   0.81915   0.54255   0.00000  Uiso   1.00
H1113  H     0.36074   0.77046   0.50771   0.00000  Uiso   1.00
H1114  H     0.64794   0.81124   0.98204   0.00000  Uiso   1.00
O1115  O     0.47589   0.67079   0.96679   0.00000  Uiso   1.00
C1116  C     0.52271   0.64944   0.98501   0.00000  Uiso   1.00
H1117  H     0.54763   0.67117   0.51189   0.00000  Uiso   1.00
H1118  H     0.54542   0.64061   0.95589   0.00000  Uiso   1.00
C1119  C     0.50941   0.60630   0.50926   0.00000  Uiso   1.00
H1120  H     0.48524   0.58330   0.98329   0.00000  Uiso   1.00
H1121  H     0.54590   0.58914   0.52372   0.00000  Uiso   1.00
H1122  H     0.48736   0.61426   0.53898   0.00000  Uiso   1.00
O1123  O     0.83334   0.68454   0.78974   0.00000  Uiso   1.00
O1124  O     0.83333   0.81547   0.71026   0.00000  Uiso   1.00
O1125  O     0.83334   0.68453   0.71026   0.00000  Uiso   1.00
O1126  O     0.83333   0.81547   0.78974   0.00000  Uiso   1.00
C1127  C     0.83473   0.66351   0.74954   0.00000  Uiso   1.00
C1128  C     0.83407   0.83621   0.75042   0.00000  Uiso   1.00
O1129  O     0.75725   0.75000   0.78044   0.00000  Uiso   1.00
O1130  O     0.90942   0.75000   0.71955   0.00000  Uiso   1.00
O1131  O     0.75725   0.75000   0.70096   0.00000  Uiso   1.00
O1132  O     0.90942   0.75001   0.79903   0.00000  Uiso   1.00
C1133  C     0.73379   0.74881   0.73782   0.00000  Uiso   1.00
C1134  C     0.93271   0.74936   0.76234   0.00000  Uiso   1.00
Zn1135 Zn    0.83333   0.75001   0.80307   0.00000  Uiso   1.00
Zn1136 Zn    0.83333   0.75000   0.69693   0.00000  Uiso   1.00
C1137  C     0.67940   0.74022   0.73289   0.00000  Uiso   1.00
C1138  C     0.98726   0.75393   0.76870   0.00000  Uiso   1.00
C1139  C     0.87971   0.54668   0.78000   0.00000  Uiso   1.00
C1140  C     0.80939   0.95577   0.72131   0.00000  Uiso   1.00
H1141  H     0.89840   0.52827   0.81020   0.00000  Uiso   1.00
H1142  H     0.77756   0.97665   0.70614   0.00000  Uiso   1.00
C1143  C     0.87319   0.59278   0.78458   0.00000  Uiso   1.00
C1144  C     0.79974   0.91014   0.72562   0.00000  Uiso   1.00
C1145  C     0.84262   0.61512   0.74711   0.00000  Uiso   1.00
C1146  C     0.83926   0.88453   0.75094   0.00000  Uiso   1.00
C1147  C     0.82443   0.59172   0.70367   0.00000  Uiso   1.00
C1148  C     0.88807   0.90422   0.76997   0.00000  Uiso   1.00
C1149  C     0.84012   0.54764   0.69684   0.00000  Uiso   1.00
C1150  C     0.90031   0.94862   0.75804   0.00000  Uiso   1.00
C1151  C     0.86309   0.52413   0.73670   0.00000  Uiso   1.00
C1152  C     0.85901   0.97505   0.73670   0.00000  Uiso   1.00
C1153  C     0.79440   0.72761   0.54708   0.00000  Uiso   1.00
C1154  C     0.84595   0.78943   0.94957   0.00000  Uiso   1.00
H1155  H     0.76242   0.71029   0.52475   0.00000  Uiso   1.00
H1156  H     0.85446   0.82113   0.96871   0.00000  Uiso   1.00
C1157  C     0.79562   0.72678   0.59664   0.00000  Uiso   1.00
C1158  C     0.84681   0.78822   0.90021   0.00000  Uiso   1.00
H1159  H     0.76554   0.70844   0.61148   0.00000  Uiso   1.00
H1160  H     0.85656   0.81846   0.88282   0.00000  Uiso   1.00
N1161  N     0.83333   0.74999   0.62623   0.00000  Uiso   1.00
N1162  N     0.83333   0.75001   0.87376   0.00000  Uiso   1.00
C1163  C     0.87062   0.77491   0.60775   0.00000  Uiso   1.00
C1164  C     0.81751   0.71212   0.89566   0.00000  Uiso   1.00
C1165  C     0.87342   0.77361   0.55842   0.00000  Uiso   1.00
C1166  C     0.82160   0.71055   0.94583   0.00000  Uiso   1.00
C1167  C     0.83376   0.75075   0.52687   0.00000  Uiso   1.00
C1168  C     0.83377   0.75029   0.97355   0.00000  Uiso   1.00
N1169  N     0.98955   0.70946   0.69533   0.00000  Uiso   1.00
O1170  O     0.66842   0.71279   0.65271   0.00000  Uiso   1.00
O1171  O     0.96304   0.67405   0.70546   0.00000  Uiso   1.00
N1172  N     0.67796   0.78006   0.80956   0.00000  Uiso   1.00
O1173  O     0.67844   0.76431   0.85207   0.00000  Uiso   1.00
O1174  O     0.69564   0.82075   0.80449   0.00000  Uiso   1.00
N1175  N     0.89966   0.61622   0.82617   0.00000  Uiso   1.00
O1176  O     0.92827   0.65195   0.82142   0.00000  Uiso   1.00
O1177  O     0.90539   0.59645   0.86709   0.00000  Uiso   1.00
N1178  N     0.74961   0.89098   0.70512   0.00000  Uiso   1.00
O1179  O     0.73013   0.85550   0.72295   0.00000  Uiso   1.00
O1180  O     0.72131   0.91095   0.67024   0.00000  Uiso   1.00
O1181  O     0.79241   0.61211   0.66718   0.00000  Uiso   1.00
C1182  C     0.74020   0.60912   0.67656   0.00000  Uiso   1.00
H1183  H     0.73291   0.63730   0.70079   0.00000  Uiso   1.00
H1184  H     0.73084   0.57656   0.69299   0.00000  Uiso   1.00
C1185  C     0.70290   0.61259   0.63015   0.00000  Uiso   1.00
H1186  H     0.70686   0.58311   0.60658   0.00000  Uiso   1.00
H1187  H     0.99531   0.61323   0.63762   0.00000  Uiso   1.00
H1188  H     0.71143   0.64371   0.61140   0.00000  Uiso   1.00
O1189  O     0.92388   0.87930   0.79903   0.00000  Uiso   1.00
C1190  C     0.92016   0.89167   0.84672   0.00000  Uiso   1.00
H1191  H     0.87972   0.88585   0.85470   0.00000  Uiso   1.00
H1192  H     0.93086   0.92790   0.85405   0.00000  Uiso   1.00
C1193  C     0.95733   0.86389   0.88038   0.00000  Uiso   1.00
H1194  H     0.99835   0.87139   0.87525   0.00000  Uiso   1.00
H1195  H     0.95285   0.87234   0.91774   0.00000  Uiso   1.00
H1196  H     0.94840   0.82746   0.87365   0.00000  Uiso   1.00
N1197  N     0.83185   0.52612   0.65030   0.00000  Uiso   1.00
O1198  O     0.86481   0.99670   0.63905   0.00000  Uiso   1.00
O1199  O     0.79332   0.53703   0.61816   0.00000  Uiso   1.00
N1200  N     0.95373   0.96599   0.76547   0.00000  Uiso   1.00
O1201  O     0.96725   0.99935   0.74033   0.00000  Uiso   1.00
O1202  O     0.99077   0.94453   0.79116   0.00000  Uiso   1.00
N1203  N     0.90487   0.80522   0.63774   0.00000  Uiso   1.00
O1204  O     0.95467   0.79771   0.64517   0.00000  Uiso   1.00
O1205  O     0.88946   0.84593   0.64439   0.00000  Uiso   1.00
N1206  N     0.79196   0.67516   0.86796   0.00000  Uiso   1.00
O1207  O     0.74828   0.68178   0.84030   0.00000  Uiso   1.00
O1208  O     0.80539   0.63400   0.87765   0.00000  Uiso   1.00
O1209  O     0.91312   0.79756   0.54157   0.00000  Uiso   1.00
C1210  C     0.95261   0.76750   0.53334   0.00000  Uiso   1.00
H1211  H     0.93755   0.74143   0.50592   0.00000  Uiso   1.00
H1212  H     0.96898   0.75050   0.56668   0.00000  Uiso   1.00
C1213  C     0.99659   0.79380   0.51531   0.00000  Uiso   1.00
H1214  H     0.68064   0.81915   0.54255   0.00000  Uiso   1.00
H1215  H     0.69407   0.77046   0.50771   0.00000  Uiso   1.00
H1216  H     0.98127   0.81124   0.98204   0.00000  Uiso   1.00
O1217  O     0.80922   0.67079   0.96679   0.00000  Uiso   1.00
C1218  C     0.85604   0.64944   0.98501   0.00000  Uiso   1.00
H1219  H     0.88096   0.67117   0.51189   0.00000  Uiso   1.00
H1220  H     0.87876   0.64061   0.95589   0.00000  Uiso   1.00
C1221  C     0.84274   0.60630   0.50926   0.00000  Uiso   1.00
H1222  H     0.81858   0.58330   0.98329   0.00000  Uiso   1.00
H1223  H     0.87923   0.58914   0.52372   0.00000  Uiso   1.00
H1224  H     0.82070   0.61426   0.53898   0.00000  Uiso   1.00
loop_
_geom_bond_atom_site_label_1
_geom_bond_atom_site_label_2
_geom_bond_distance
_geom_bond_site_symmetry_2
_ccdc_geom_bond_type
O1     C5      1.299   .     A
O1     Zn13    1.975   .     S
O2     C6      1.286   .     A
O2     Zn14    1.975   .     S
O3     Zn14    1.986   .     S
O3     C5      1.284   .     A
O4     Zn13    1.986   .     S
O4     C6      1.287   .     A
C5     C23     1.457   .     S
C6     C24     1.438   .     S
O7     C11     1.273   .     A
O7     Zn13    1.980   .     S
O8     C12     1.277   .     A
O8     Zn14    1.980   .     S
O9     Zn14    1.989   .     S
O9     C11     1.286   .     A
O10    C12     1.279   .     A
O10    Zn13    1.989   .     S
C11    C15     1.411   .     S
C12    C16     1.400   .     S
Zn13   N40     2.010   .     S
Zn14   N39     2.010   .     S
C15    C220    1.353   1_455 S
C15    N251    1.447   1_455 S
C16    C117    1.353   .     S
C16    N152    1.441   .     S
C17    C29     1.398   .     A
C17    C21     1.389   .     A
C17    H19     1.084   .     S
C18    C30     1.402   .     A
C18    H20     1.084   .     S
C18    C22     1.383   .     A
C21    C23     1.414   .     A
C21    N53     1.438   .     S
C22    N56     1.444   .     S
C22    C24     1.406   .     A
C23    C25     1.421   .     A
C24    C26     1.410   .     A
C25    C27     1.397   .     A
C25    O59     1.385   .     S
C26    O67     1.383   .     S
C26    C28     1.407   .     A
C27    C29     1.404   .     A
C27    N75     1.445   .     S
C28    N78     1.450   .     S
C28    C30     1.410   .     A
C29    C336    1.459   1_545 S
C30    C335    1.459   .     S
C31    H33     1.082   .     S
C31    C35     1.405   .     A
C31    C45     1.412   .     A
C32    C36     1.407   .     A
C32    H34     1.082   .     S
C32    C46     1.409   .     A
C35    H37     1.080   .     S
C35    N39     1.360   .     A
C36    N40     1.361   .     A
C36    H38     1.075   .     S
N39    C41     1.373   .     A
N40    C42     1.378   .     A
C41    N81     1.430   .     S
C41    C43     1.414   .     A
C42    C44     1.416   .     A
C42    N84     1.432   .     S
C43    O87     1.384   .     S
C43    C45     1.414   .     A
C44    C46     1.412   .     A
C44    O95     1.383   .     S
C45    C658    1.516   1_554 S
C46    C657    1.516   .     S
N47    O49     1.302   .     A
N47    C117    1.447   .     S
N47    O150    1.301   .     S
O48    N251    1.301   1_455 S
N50    O52     1.300   .     A
N50    O51     1.301   .     A
N50    C220    1.441   1_455 S
N53    O54     1.301   .     A
N53    O55     1.302   .     A
N56    O57     1.300   .     A
N56    O58     1.302   .     A
O59    C60     1.416   .     S
C60    C63     1.523   .     S
C60    H62     1.118   .     S
C60    H61     1.112   .     S
C63    H66     1.108   .     S
C63    H64     1.109   .     S
C63    H269    1.110   1_455 S
H65    C165    1.110   .     S
O67    C68     1.416   .     S
C68    H69     1.113   .     S
C68    C71     1.520   .     S
C68    H70     1.114   .     S
C71    H73     1.111   .     S
C71    H74     1.109   .     S
C71    H72     1.110   .     S
N75    O77     1.300   .     A
N75    O382    1.302   1_545 S
O76    N381    1.302   .     S
N78    O80     1.301   .     A
N78    O79     1.302   .     A
N81    O82     1.299   .     A
N81    O83     1.300   .     A
N84    O85     1.300   .     A
N84    O86     1.300   .     A
O87    C88     1.413   .     S
C88    C91     1.521   .     S
C88    H90     1.113   .     S
C88    H89     1.113   .     S
C91    H194    1.111   .     S
C91    H195    1.110   .     S
C91    H706    1.111   1_554 S
H92    C295    1.111   1_455 S
H93    C295    1.110   1_455 S
H94    C703    1.111   .     S
O95    C96     1.413   .     S
C96    H98     1.114   .     S
C96    H709    1.113   .     S
C96    C711    1.521   .     S
H97    C708    1.113   1_554 S
C99    H101    1.111   .     S
C99    H102    1.111   .     S
C99    C708    1.521   1_554 S
C99    H712    1.111   1_554 S
H100   C711    1.111   .     S
O103   C107    1.299   .     A
O103   Zn115   1.975   .     S
O104   C108    1.286   .     A
O104   Zn116   1.975   .     S
O105   Zn116   1.986   .     S
O105   C107    1.284   .     A
O106   Zn115   1.986   .     S
O106   C108    1.287   .     A
C107   C125    1.457   .     S
C108   C126    1.438   .     S
O109   C113    1.273   .     A
O109   Zn115   1.980   .     S
O110   C114    1.277   .     A
O110   Zn116   1.980   .     S
O111   Zn116   1.989   .     S
O111   C113    1.286   .     A
O112   C114    1.279   .     A
O112   Zn115   1.989   .     S
C113   C117    1.411   .     S
C114   C118    1.400   .     S
Zn115  N142    2.010   .     S
Zn116  N141    2.010   .     S
C118   C219    1.353   .     S
C118   N254    1.441   .     S
C119   C131    1.398   .     A
C119   C123    1.389   .     A
C119   H121    1.084   .     S
C120   C132    1.402   .     A
C120   H122    1.084   .     S
C120   C124    1.383   .     A
C123   C125    1.414   .     A
C123   N155    1.438   .     S
C124   N158    1.444   .     S
C124   C126    1.406   .     A
C125   C127    1.421   .     A
C126   C128    1.410   .     A
C127   C129    1.397   .     A
C127   O161    1.385   .     S
C128   O169    1.383   .     S
C128   C130    1.407   .     A
C129   C131    1.404   .     A
C129   N177    1.445   .     S
C130   N180    1.450   .     S
C130   C132    1.410   .     A
C131   C438    1.459   1_545 S
C132   C437    1.459   .     S
C133   H135    1.082   .     S
C133   C137    1.405   .     A
C133   C147    1.412   .     A
C134   C138    1.407   .     A
C134   H136    1.082   .     S
C134   C148    1.409   .     A
C137   H139    1.080   .     S
C137   N141    1.360   .     A
C138   N142    1.361   .     A
C138   H140    1.075   .     S
N141   C143    1.373   .     A
N142   C144    1.378   .     A
C143   N183    1.430   .     S
C143   C145    1.414   .     A
C144   C146    1.416   .     A
C144   N186    1.432   .     S
C145   O189    1.384   .     S
C145   C147    1.414   .     A
C146   C148    1.412   .     A
C146   O197    1.383   .     S
C147   C760    1.516   1_554 S
C148   C759    1.516   .     S
N149   O151    1.302   .     A
N149   C219    1.447   .     S
N149   O252    1.301   .     S
N152   O154    1.300   .     A
N152   O153    1.301   .     A
N155   O156    1.301   .     A
N155   O157    1.302   .     A
N158   O159    1.300   .     A
N158   O160    1.302   .     A
O161   C162    1.416   .     S
C162   C165    1.523   .     S
C162   H164    1.118   .     S
C162   H163    1.112   .     S
C165   H168    1.108   .     S
C165   H166    1.109   .     S
H167   C267    1.110   .     S
O169   C170    1.416   .     S
C170   H171    1.113   .     S
C170   C173    1.520   .     S
C170   H172    1.114   .     S
C173   H175    1.111   .     S
C173   H176    1.109   .     S
C173   H174    1.110   .     S
N177   O179    1.300   .     A
N177   O484    1.302   1_545 S
O178   N483    1.302   .     S
N180   O182    1.301   .     A
N180   O181    1.302   .     A
N183   O184    1.299   .     A
N183   O185    1.300   .     A
N186   O187    1.300   .     A
N186   O188    1.300   .     A
O189   C190    1.413   .     S
C190   C193    1.521   .     S
C190   H192    1.113   .     S
C190   H191    1.113   .     S
C193   H296    1.111   .     S
C193   H297    1.110   .     S
C193   H808    1.111   1_554 S
H196   C805    1.111   .     S
O197   C198    1.413   .     S
C198   H200    1.114   .     S
C198   H811    1.113   .     S
C198   C813    1.521   .     S
H199   C810    1.113   1_554 S
C201   H203    1.111   .     S
C201   H204    1.111   .     S
C201   C810    1.521   1_554 S
C201   H814    1.111   1_554 S
H202   C813    1.111   .     S
O205   C209    1.299   .     A
O205   Zn217   1.975   .     S
O206   C210    1.286   .     A
O206   Zn218   1.975   .     S
O207   Zn218   1.986   .     S
O207   C209    1.284   .     A
O208   Zn217   1.986   .     S
O208   C210    1.287   .     A
C209   C227    1.457   .     S
C210   C228    1.438   .     S
O211   C215    1.273   .     A
O211   Zn217   1.980   .     S
O212   C216    1.277   .     A
O212   Zn218   1.980   .     S
O213   Zn218   1.989   .     S
O213   C215    1.286   .     A
O214   C216    1.279   .     A
O214   Zn217   1.989   .     S
C215   C219    1.411   .     S
C216   C220    1.400   .     S
Zn217  N244    2.010   .     S
Zn218  N243    2.010   .     S
C220   C15     1.353   1_655 S
C220   N50     1.441   1_655 S
C221   C233    1.398   .     A
C221   C225    1.389   .     A
C221   H223    1.084   .     S
C222   C234    1.402   .     A
C222   H224    1.084   .     S
C222   C226    1.383   .     A
C225   C227    1.414   .     A
C225   N257    1.438   .     S
C226   N260    1.444   .     S
C226   C228    1.406   .     A
C227   C229    1.421   .     A
C228   C230    1.410   .     A
C229   C231    1.397   .     A
C229   O263    1.385   .     S
C230   O271    1.383   .     S
C230   C232    1.407   .     A
C231   C233    1.404   .     A
C231   N279    1.445   .     S
C232   N282    1.450   .     S
C232   C234    1.410   .     A
C233   C540    1.459   1_545 S
C234   C539    1.459   .     S
C235   H237    1.082   .     S
C235   C239    1.405   .     A
C235   C249    1.412   .     A
C236   C240    1.407   .     A
C236   H238    1.082   .     S
C236   C250    1.409   .     A
C239   H241    1.080   .     S
C239   N243    1.360   .     A
C240   N244    1.361   .     A
C240   H242    1.075   .     S
N243   C245    1.373   .     A
N244   C246    1.378   .     A
C245   N285    1.430   .     S
C245   C247    1.414   .     A
C246   C248    1.416   .     A
C246   N288    1.432   .     S
C247   O291    1.384   .     S
C247   C249    1.414   .     A
C248   C250    1.412   .     A
C248   O299    1.383   .     S
C249   C862    1.516   1_554 S
C250   C861    1.516   .     S
N251   O253    1.302   .     A
N251   C15     1.447   1_655 S
N251   O48     1.301   1_655 S
N254   O256    1.300   .     A
N254   O255    1.301   .     A
N257   O258    1.301   .     A
N257   O259    1.302   .     A
N260   O261    1.300   .     A
N260   O262    1.302   .     A
O263   C264    1.416   .     S
C264   C267    1.523   .     S
C264   H266    1.118   .     S
C264   H265    1.112   .     S
C267   H270    1.108   .     S
C267   H268    1.109   .     S
H269   C63     1.110   1_655 S
O271   C272    1.416   .     S
C272   H273    1.113   .     S
C272   C275    1.520   .     S
C272   H274    1.114   .     S
C275   H277    1.111   .     S
C275   H278    1.109   .     S
C275   H276    1.110   .     S
N279   O281    1.300   .     A
N279   O586    1.302   1_545 S
O280   N585    1.302   .     S
N282   O284    1.301   .     A
N282   O283    1.302   .     A
N285   O286    1.299   .     A
N285   O287    1.300   .     A
N288   O289    1.300   .     A
N288   O290    1.300   .     A
O291   C292    1.413   .     S
C292   C295    1.521   .     S
C292   H294    1.113   .     S
C292   H293    1.113   .     S
C295   H92     1.111   1_655 S
C295   H93     1.110   1_655 S
C295   H910    1.111   1_554 S
H298   C907    1.111   .     S
O299   C300    1.413   .     S
C300   H302    1.114   .     S
C300   H913    1.113   .     S
C300   C915    1.521   .     S
H301   C912    1.113   1_554 S
C303   H305    1.111   .     S
C303   H306    1.111   .     S
C303   C912    1.521   1_554 S
C303   H916    1.111   1_554 S
H304   C915    1.111   .     S
O307   C311    1.299   .     A
O307   Zn319   1.975   .     S
O308   C312    1.286   .     A
O308   Zn320   1.975   .     S
O309   Zn320   1.986   .     S
O309   C311    1.284   .     A
O310   Zn319   1.986   .     S
O310   C312    1.287   .     A
C311   C329    1.457   .     S
C312   C330    1.438   .     S
O313   C317    1.273   .     A
O313   Zn319   1.980   .     S
O314   C318    1.277   .     A
O314   Zn320   1.980   .     S
O315   Zn320   1.989   .     S
O315   C317    1.286   .     A
O316   C318    1.279   .     A
O316   Zn319   1.989   .     S
C317   C321    1.411   .     S
C318   C322    1.400   .     S
Zn319  N346    2.010   .     S
Zn320  N345    2.010   .     S
C321   C526    1.353   1_455 S
C321   N557    1.447   1_455 S
C322   C423    1.353   .     S
C322   N458    1.441   .     S
C323   C335    1.398   .     A
C323   C327    1.389   .     A
C323   H325    1.084   .     S
C324   C336    1.402   .     A
C324   H326    1.084   .     S
C324   C328    1.383   .     A
C327   C329    1.414   .     A
C327   N359    1.438   .     S
C328   N362    1.444   .     S
C328   C330    1.406   .     A
C329   C331    1.421   .     A
C330   C332    1.410   .     A
C331   C333    1.397   .     A
C331   O365    1.385   .     S
C332   O373    1.383   .     S
C332   C334    1.407   .     A
C333   C335    1.404   .     A
C333   N381    1.445   .     S
C334   N384    1.450   .     S
C334   C336    1.410   .     A
C336   C29     1.459   1_565 S
C337   H339    1.082   .     S
C337   C341    1.405   .     A
C337   C351    1.412   .     A
C338   C342    1.407   .     A
C338   H340    1.082   .     S
C338   C352    1.409   .     A
C341   H343    1.080   .     S
C341   N345    1.360   .     A
C342   N346    1.361   .     A
C342   H344    1.075   .     S
N345   C347    1.373   .     A
N346   C348    1.378   .     A
C347   N387    1.430   .     S
C347   C349    1.414   .     A
C348   C350    1.416   .     A
C348   N390    1.432   .     S
C349   O393    1.384   .     S
C349   C351    1.414   .     A
C350   C352    1.412   .     A
C350   O401    1.383   .     S
C351   C964    1.516   1_554 S
C352   C963    1.516   .     S
N353   O355    1.302   .     A
N353   C423    1.447   .     S
N353   O456    1.301   .     S
O354   N557    1.301   1_455 S
N356   O358    1.300   .     A
N356   O357    1.301   .     A
N356   C526    1.441   1_455 S
N359   O360    1.301   .     A
N359   O361    1.302   .     A
N362   O363    1.300   .     A
N362   O364    1.302   .     A
O365   C366    1.416   .     S
C366   C369    1.523   .     S
C366   H368    1.118   .     S
C366   H367    1.112   .     S
C369   H372    1.108   .     S
C369   H370    1.109   .     S
C369   H575    1.110   1_455 S
H371   C471    1.110   .     S
O373   C374    1.416   .     S
C374   H375    1.113   .     S
C374   C377    1.520   .     S
C374   H376    1.114   .     S
C377   H379    1.111   .     S
C377   H380    1.109   .     S
C377   H378    1.110   .     S
N381   O383    1.300   .     A
O382   N75     1.302   1_565 S
N384   O386    1.301   .     A
N384   O385    1.302   .     A
N387   O388    1.299   .     A
N387   O389    1.300   .     A
N390   O391    1.300   .     A
N390   O392    1.300   .     A
O393   C394    1.413   .     S
C394   C397    1.521   .     S
C394   H396    1.113   .     S
C394   H395    1.113   .     S
C397   H500    1.111   .     S
C397   H501    1.110   .     S
C397   H1012   1.111   1_554 S
H398   C601    1.111   1_455 S
H399   C601    1.110   1_455 S
H400   C1009   1.111   .     S
O401   C402    1.413   .     S
C402   H404    1.114   .     S
C402   H1015   1.113   .     S
C402   C1017   1.521   .     S
H403   C1014   1.113   1_554 S
C405   H407    1.111   .     S
C405   H408    1.111   .     S
C405   C1014   1.521   1_554 S
C405   H1018   1.111   1_554 S
H406   C1017   1.111   .     S
O409   C413    1.299   .     A
O409   Zn421   1.975   .     S
O410   C414    1.286   .     A
O410   Zn422   1.975   .     S
O411   Zn422   1.986   .     S
O411   C413    1.284   .     A
O412   Zn421   1.986   .     S
O412   C414    1.287   .     A
C413   C431    1.457   .     S
C414   C432    1.438   .     S
O415   C419    1.273   .     A
O415   Zn421   1.980   .     S
O416   C420    1.277   .     A
O416   Zn422   1.980   .     S
O417   Zn422   1.989   .     S
O417   C419    1.286   .     A
O418   C420    1.279   .     A
O418   Zn421   1.989   .     S
C419   C423    1.411   .     S
C420   C424    1.400   .     S
Zn421  N448    2.010   .     S
Zn422  N447    2.010   .     S
C424   C525    1.353   .     S
C424   N560    1.441   .     S
C425   C437    1.398   .     A
C425   C429    1.389   .     A
C425   H427    1.084   .     S
C426   C438    1.402   .     A
C426   H428    1.084   .     S
C426   C430    1.383   .     A
C429   C431    1.414   .     A
C429   N461    1.438   .     S
C430   N464    1.444   .     S
C430   C432    1.406   .     A
C431   C433    1.421   .     A
C432   C434    1.410   .     A
C433   C435    1.397   .     A
C433   O467    1.385   .     S
C434   O475    1.383   .     S
C434   C436    1.407   .     A
C435   C437    1.404   .     A
C435   N483    1.445   .     S
C436   N486    1.450   .     S
C436   C438    1.410   .     A
C438   C131    1.459   1_565 S
C439   H441    1.082   .     S
C439   C443    1.405   .     A
C439   C453    1.412   .     A
C440   C444    1.407   .     A
C440   H442    1.082   .     S
C440   C454    1.409   .     A
C443   H445    1.080   .     S
C443   N447    1.360   .     A
C444   N448    1.361   .     A
C444   H446    1.075   .     S
N447   C449    1.373   .     A
N448   C450    1.378   .     A
C449   N489    1.430   .     S
C449   C451    1.414   .     A
C450   C452    1.416   .     A
C450   N492    1.432   .     S
C451   O495    1.384   .     S
C451   C453    1.414   .     A
C452   C454    1.412   .     A
C452   O503    1.383   .     S
C453   C1066   1.516   1_554 S
C454   C1065   1.516   .     S
N455   O457    1.302   .     A
N455   C525    1.447   .     S
N455   O558    1.301   .     S
N458   O460    1.300   .     A
N458   O459    1.301   .     A
N461   O462    1.301   .     A
N461   O463    1.302   .     A
N464   O465    1.300   .     A
N464   O466    1.302   .     A
O467   C468    1.416   .     S
C468   C471    1.523   .     S
C468   H470    1.118   .     S
C468   H469    1.112   .     S
C471   H474    1.108   .     S
C471   H472    1.109   .     S
H473   C573    1.110   .     S
O475   C476    1.416   .     S
C476   H477    1.113   .     S
C476   C479    1.520   .     S
C476   H478    1.114   .     S
C479   H481    1.111   .     S
C479   H482    1.109   .     S
C479   H480    1.110   .     S
N483   O485    1.300   .     A
O484   N177    1.302   1_565 S
N486   O488    1.301   .     A
N486   O487    1.302   .     A
N489   O490    1.299   .     A
N489   O491    1.300   .     A
N492   O493    1.300   .     A
N492   O494    1.300   .     A
O495   C496    1.413   .     S
C496   C499    1.521   .     S
C496   H498    1.113   .     S
C496   H497    1.113   .     S
C499   H602    1.111   .     S
C499   H603    1.110   .     S
C499   H1114   1.111   1_554 S
H502   C1111   1.111   .     S
O503   C504    1.413   .     S
C504   H506    1.114   .     S
C504   H1117   1.113   .     S
C504   C1119   1.521   .     S
H505   C1116   1.113   1_554 S
C507   H509    1.111   .     S
C507   H510    1.111   .     S
C507   C1116   1.521   1_554 S
C507   H1120   1.111   1_554 S
H508   C1119   1.111   .     S
O511   C515    1.299   .     A
O511   Zn523   1.975   .     S
O512   C516    1.286   .     A
O512   Zn524   1.975   .     S
O513   Zn524   1.986   .     S
O513   C515    1.284   .     A
O514   Zn523   1.986   .     S
O514   C516    1.287   .     A
C515   C533    1.457   .     S
C516   C534    1.438   .     S
O517   C521    1.273   .     A
O517   Zn523   1.980   .     S
O518   C522    1.277   .     A
O518   Zn524   1.980   .     S
O519   Zn524   1.989   .     S
O519   C521    1.286   .     A
O520   C522    1.279   .     A
O520   Zn523   1.989   .     S
C521   C525    1.411   .     S
C522   C526    1.400   .     S
Zn523  N550    2.010   .     S
Zn524  N549    2.010   .     S
C526   C321    1.353   1_655 S
C526   N356    1.441   1_655 S
C527   C539    1.398   .     A
C527   C531    1.389   .     A
C527   H529    1.084   .     S
C528   C540    1.402   .     A
C528   H530    1.084   .     S
C528   C532    1.383   .     A
C531   C533    1.414   .     A
C531   N563    1.438   .     S
C532   N566    1.444   .     S
C532   C534    1.406   .     A
C533   C535    1.421   .     A
C534   C536    1.410   .     A
C535   C537    1.397   .     A
C535   O569    1.385   .     S
C536   O577    1.383   .     S
C536   C538    1.407   .     A
C537   C539    1.404   .     A
C537   N585    1.445   .     S
C538   N588    1.450   .     S
C538   C540    1.410   .     A
C540   C233    1.459   1_565 S
C541   H543    1.082   .     S
C541   C545    1.405   .     A
C541   C555    1.412   .     A
C542   C546    1.407   .     A
C542   H544    1.082   .     S
C542   C556    1.409   .     A
C545   H547    1.080   .     S
C545   N549    1.360   .     A
C546   N550    1.361   .     A
C546   H548    1.075   .     S
N549   C551    1.373   .     A
N550   C552    1.378   .     A
C551   N591    1.430   .     S
C551   C553    1.414   .     A
C552   C554    1.416   .     A
C552   N594    1.432   .     S
C553   O597    1.384   .     S
C553   C555    1.414   .     A
C554   C556    1.412   .     A
C554   O605    1.383   .     S
C555   C1168   1.516   1_554 S
C556   C1167   1.516   .     S
N557   O559    1.302   .     A
N557   C321    1.447   1_655 S
N557   O354    1.301   1_655 S
N560   O562    1.300   .     A
N560   O561    1.301   .     A
N563   O564    1.301   .     A
N563   O565    1.302   .     A
N566   O567    1.300   .     A
N566   O568    1.302   .     A
O569   C570    1.416   .     S
C570   C573    1.523   .     S
C570   H572    1.118   .     S
C570   H571    1.112   .     S
C573   H576    1.108   .     S
C573   H574    1.109   .     S
H575   C369    1.110   1_655 S
O577   C578    1.416   .     S
C578   H579    1.113   .     S
C578   C581    1.520   .     S
C578   H580    1.114   .     S
C581   H583    1.111   .     S
C581   H584    1.109   .     S
C581   H582    1.110   .     S
N585   O587    1.300   .     A
O586   N279    1.302   1_565 S
N588   O590    1.301   .     A
N588   O589    1.302   .     A
N591   O592    1.299   .     A
N591   O593    1.300   .     A
N594   O595    1.300   .     A
N594   O596    1.300   .     A
O597   C598    1.413   .     S
C598   C601    1.521   .     S
C598   H600    1.113   .     S
C598   H599    1.113   .     S
C601   H398    1.111   1_655 S
C601   H399    1.110   1_655 S
C601   H1216   1.111   1_554 S
H604   C1213   1.111   .     S
O605   C606    1.413   .     S
C606   H608    1.114   .     S
C606   H1219   1.113   .     S
C606   C1221   1.521   .     S
H607   C1218   1.113   1_554 S
C609   H611    1.111   .     S
C609   H612    1.111   .     S
C609   C1218   1.521   1_554 S
C609   H1222   1.111   1_554 S
H610   C1221   1.111   .     S
O613   C617    1.299   .     A
O613   Zn625   1.975   .     S
O614   C618    1.286   .     A
O614   Zn626   1.975   .     S
O615   Zn626   1.986   .     S
O615   C617    1.284   .     A
O616   Zn625   1.986   .     S
O616   C618    1.287   .     A
C617   C635    1.457   .     S
C618   C636    1.438   .     S
O619   C623    1.273   .     A
O619   Zn625   1.980   .     S
O620   C624    1.277   .     A
O620   Zn626   1.980   .     S
O621   Zn626   1.989   .     S
O621   C623    1.286   .     A
O622   C624    1.279   .     A
O622   Zn625   1.989   .     S
C623   C627    1.411   .     S
C624   C628    1.400   .     S
Zn625  N652    2.010   .     S
Zn626  N651    2.010   .     S
C627   C832    1.353   1_455 S
C627   N863    1.447   1_455 S
C628   C729    1.353   .     S
C628   N764    1.441   .     S
C629   C641    1.398   .     A
C629   C633    1.389   .     A
C629   H631    1.084   .     S
C630   C642    1.402   .     A
C630   H632    1.084   .     S
C630   C634    1.383   .     A
C633   C635    1.414   .     A
C633   N665    1.438   .     S
C634   N668    1.444   .     S
C634   C636    1.406   .     A
C635   C637    1.421   .     A
C636   C638    1.410   .     A
C637   C639    1.397   .     A
C637   O671    1.385   .     S
C638   O679    1.383   .     S
C638   C640    1.407   .     A
C639   C641    1.404   .     A
C639   N687    1.445   .     S
C640   N690    1.450   .     S
C640   C642    1.410   .     A
C641   C948    1.459   1_545 S
C642   C947    1.459   .     S
C643   H645    1.082   .     S
C643   C647    1.405   .     A
C643   C657    1.412   .     A
C644   C648    1.407   .     A
C644   H646    1.082   .     S
C644   C658    1.409   .     A
C647   H649    1.080   .     S
C647   N651    1.360   .     A
C648   N652    1.361   .     A
C648   H650    1.075   .     S
N651   C653    1.373   .     A
N652   C654    1.378   .     A
C653   N693    1.430   .     S
C653   C655    1.414   .     A
C654   C656    1.416   .     A
C654   N696    1.432   .     S
C655   O699    1.384   .     S
C655   C657    1.414   .     A
C656   C658    1.412   .     A
C656   O707    1.383   .     S
C658   C45     1.516   1_556 S
N659   O661    1.302   .     A
N659   C729    1.447   .     S
N659   O762    1.301   .     S
O660   N863    1.301   1_455 S
N662   O664    1.300   .     A
N662   O663    1.301   .     A
N662   C832    1.441   1_455 S
N665   O666    1.301   .     A
N665   O667    1.302   .     A
N668   O669    1.300   .     A
N668   O670    1.302   .     A
O671   C672    1.416   .     S
C672   C675    1.523   .     S
C672   H674    1.118   .     S
C672   H673    1.112   .     S
C675   H678    1.108   .     S
C675   H676    1.109   .     S
C675   H881    1.110   1_455 S
H677   C777    1.110   .     S
O679   C680    1.416   .     S
C680   H681    1.113   .     S
C680   C683    1.520   .     S
C680   H682    1.114   .     S
C683   H685    1.111   .     S
C683   H686    1.109   .     S
C683   H684    1.110   .     S
N687   O689    1.300   .     A
N687   O994    1.302   1_545 S
O688   N993    1.302   .     S
N690   O692    1.301   .     A
N690   O691    1.302   .     A
N693   O694    1.299   .     A
N693   O695    1.300   .     A
N696   O697    1.300   .     A
N696   O698    1.300   .     A
O699   C700    1.413   .     S
C700   C703    1.521   .     S
C700   H702    1.113   .     S
C700   H701    1.113   .     S
C703   H806    1.111   .     S
C703   H807    1.110   .     S
H704   C907    1.111   1_455 S
H705   C907    1.110   1_455 S
H706   C91     1.111   1_556 S
O707   C708    1.413   .     S
C708   H710    1.114   .     S
C708   H97     1.113   1_556 S
C708   C99     1.521   1_556 S
C711   H713    1.111   .     S
C711   H714    1.111   .     S
H712   C99     1.111   1_556 S
O715   C719    1.299   .     A
O715   Zn727   1.975   .     S
O716   C720    1.286   .     A
O716   Zn728   1.975   .     S
O717   Zn728   1.986   .     S
O717   C719    1.284   .     A
O718   Zn727   1.986   .     S
O718   C720    1.287   .     A
C719   C737    1.457   .     S
C720   C738    1.438   .     S
O721   C725    1.273   .     A
O721   Zn727   1.980   .     S
O722   C726    1.277   .     A
O722   Zn728   1.980   .     S
O723   Zn728   1.989   .     S
O723   C725    1.286   .     A
O724   C726    1.279   .     A
O724   Zn727   1.989   .     S
C725   C729    1.411   .     S
C726   C730    1.400   .     S
Zn727  N754    2.010   .     S
Zn728  N753    2.010   .     S
C730   C831    1.353   .     S
C730   N866    1.441   .     S
C731   C743    1.398   .     A
C731   C735    1.389   .     A
C731   H733    1.084   .     S
C732   C744    1.402   .     A
C732   H734    1.084   .     S
C732   C736    1.383   .     A
C735   C737    1.414   .     A
C735   N767    1.438   .     S
C736   N770    1.444   .     S
C736   C738    1.406   .     A
C737   C739    1.421   .     A
C738   C740    1.410   .     A
C739   C741    1.397   .     A
C739   O773    1.385   .     S
C740   O781    1.383   .     S
C740   C742    1.407   .     A
C741   C743    1.404   .     A
C741   N789    1.445   .     S
C742   N792    1.450   .     S
C742   C744    1.410   .     A
C743   C1050   1.459   1_545 S
C744   C1049   1.459   .     S
C745   H747    1.082   .     S
C745   C749    1.405   .     A
C745   C759    1.412   .     A
C746   C750    1.407   .     A
C746   H748    1.082   .     S
C746   C760    1.409   .     A
C749   H751    1.080   .     S
C749   N753    1.360   .     A
C750   N754    1.361   .     A
C750   H752    1.075   .     S
N753   C755    1.373   .     A
N754   C756    1.378   .     A
C755   N795    1.430   .     S
C755   C757    1.414   .     A
C756   C758    1.416   .     A
C756   N798    1.432   .     S
C757   O801    1.384   .     S
C757   C759    1.414   .     A
C758   C760    1.412   .     A
C758   O809    1.383   .     S
C760   C147    1.516   1_556 S
N761   O763    1.302   .     A
N761   C831    1.447   .     S
N761   O864    1.301   .     S
N764   O766    1.300   .     A
N764   O765    1.301   .     A
N767   O768    1.301   .     A
N767   O769    1.302   .     A
N770   O771    1.300   .     A
N770   O772    1.302   .     A
O773   C774    1.416   .     S
C774   C777    1.523   .     S
C774   H776    1.118   .     S
C774   H775    1.112   .     S
C777   H780    1.108   .     S
C777   H778    1.109   .     S
H779   C879    1.110   .     S
O781   C782    1.416   .     S
C782   H783    1.113   .     S
C782   C785    1.520   .     S
C782   H784    1.114   .     S
C785   H787    1.111   .     S
C785   H788    1.109   .     S
C785   H786    1.110   .     S
N789   O791    1.300   .     A
N789   O1096   1.302   1_545 S
O790   N1095   1.302   .     S
N792   O794    1.301   .     A
N792   O793    1.302   .     A
N795   O796    1.299   .     A
N795   O797    1.300   .     A
N798   O799    1.300   .     A
N798   O800    1.300   .     A
O801   C802    1.413   .     S
C802   C805    1.521   .     S
C802   H804    1.113   .     S
C802   H803    1.113   .     S
C805   H908    1.111   .     S
C805   H909    1.110   .     S
H808   C193    1.111   1_556 S
O809   C810    1.413   .     S
C810   H812    1.114   .     S
C810   H199    1.113   1_556 S
C810   C201    1.521   1_556 S
C813   H815    1.111   .     S
C813   H816    1.111   .     S
H814   C201    1.111   1_556 S
O817   C821    1.299   .     A
O817   Zn829   1.975   .     S
O818   C822    1.286   .     A
O818   Zn830   1.975   .     S
O819   Zn830   1.986   .     S
O819   C821    1.284   .     A
O820   Zn829   1.986   .     S
O820   C822    1.287   .     A
C821   C839    1.457   .     S
C822   C840    1.438   .     S
O823   C827    1.273   .     A
O823   Zn829   1.980   .     S
O824   C828    1.277   .     A
O824   Zn830   1.980   .     S
O825   Zn830   1.989   .     S
O825   C827    1.286   .     A
O826   C828    1.279   .     A
O826   Zn829   1.989   .     S
C827   C831    1.411   .     S
C828   C832    1.400   .     S
Zn829  N856    2.010   .     S
Zn830  N855    2.010   .     S
C832   C627    1.353   1_655 S
C832   N662    1.441   1_655 S
C833   C845    1.398   .     A
C833   C837    1.389   .     A
C833   H835    1.084   .     S
C834   C846    1.402   .     A
C834   H836    1.084   .     S
C834   C838    1.383   .     A
C837   C839    1.414   .     A
C837   N869    1.438   .     S
C838   N872    1.444   .     S
C838   C840    1.406   .     A
C839   C841    1.421   .     A
C840   C842    1.410   .     A
C841   C843    1.397   .     A
C841   O875    1.385   .     S
C842   O883    1.383   .     S
C842   C844    1.407   .     A
C843   C845    1.404   .     A
C843   N891    1.445   .     S
C844   N894    1.450   .     S
C844   C846    1.410   .     A
C845   C1152   1.459   1_545 S
C846   C1151   1.459   .     S
C847   H849    1.082   .     S
C847   C851    1.405   .     A
C847   C861    1.412   .     A
C848   C852    1.407   .     A
C848   H850    1.082   .     S
C848   C862    1.409   .     A
C851   H853    1.080   .     S
C851   N855    1.360   .     A
C852   N856    1.361   .     A
C852   H854    1.075   .     S
N855   C857    1.373   .     A
N856   C858    1.378   .     A
C857   N897    1.430   .     S
C857   C859    1.414   .     A
C858   C860    1.416   .     A
C858   N900    1.432   .     S
C859   O903    1.384   .     S
C859   C861    1.414   .     A
C860   C862    1.412   .     A
C860   O911    1.383   .     S
C862   C249    1.516   1_556 S
N863   O865    1.302   .     A
N863   C627    1.447   1_655 S
N863   O660    1.301   1_655 S
N866   O868    1.300   .     A
N866   O867    1.301   .     A
N869   O870    1.301   .     A
N869   O871    1.302   .     A
N872   O873    1.300   .     A
N872   O874    1.302   .     A
O875   C876    1.416   .     S
C876   C879    1.523   .     S
C876   H878    1.118   .     S
C876   H877    1.112   .     S
C879   H882    1.108   .     S
C879   H880    1.109   .     S
H881   C675    1.110   1_655 S
O883   C884    1.416   .     S
C884   H885    1.113   .     S
C884   C887    1.520   .     S
C884   H886    1.114   .     S
C887   H889    1.111   .     S
C887   H890    1.109   .     S
C887   H888    1.110   .     S
N891   O893    1.300   .     A
N891   O1198   1.302   1_545 S
O892   N1197   1.302   .     S
N894   O896    1.301   .     A
N894   O895    1.302   .     A
N897   O898    1.299   .     A
N897   O899    1.300   .     A
N900   O901    1.300   .     A
N900   O902    1.300   .     A
O903   C904    1.413   .     S
C904   C907    1.521   .     S
C904   H906    1.113   .     S
C904   H905    1.113   .     S
C907   H704    1.111   1_655 S
C907   H705    1.110   1_655 S
H910   C295    1.111   1_556 S
O911   C912    1.413   .     S
C912   H914    1.114   .     S
C912   H301    1.113   1_556 S
C912   C303    1.521   1_556 S
C915   H917    1.111   .     S
C915   H918    1.111   .     S
H916   C303    1.111   1_556 S
O919   C923    1.299   .     A
O919   Zn931   1.975   .     S
O920   C924    1.286   .     A
O920   Zn932   1.975   .     S
O921   Zn932   1.986   .     S
O921   C923    1.284   .     A
O922   Zn931   1.986   .     S
O922   C924    1.287   .     A
C923   C941    1.457   .     S
C924   C942    1.438   .     S
O925   C929    1.273   .     A
O925   Zn931   1.980   .     S
O926   C930    1.277   .     A
O926   Zn932   1.980   .     S
O927   Zn932   1.989   .     S
O927   C929    1.286   .     A
O928   C930    1.279   .     A
O928   Zn931   1.989   .     S
C929   C933    1.411   .     S
C930   C934    1.400   .     S
Zn931  N958    2.010   .     S
Zn932  N957    2.010   .     S
C933   C1138   1.353   1_455 S
C933   N1169   1.447   1_455 S
C934   C1035   1.353   .     S
C934   N1070   1.441   .     S
C935   C947    1.398   .     A
C935   C939    1.389   .     A
C935   H937    1.084   .     S
C936   C948    1.402   .     A
C936   H938    1.084   .     S
C936   C940    1.383   .     A
C939   C941    1.414   .     A
C939   N971    1.438   .     S
C940   N974    1.444   .     S
C940   C942    1.406   .     A
C941   C943    1.421   .     A
C942   C944    1.410   .     A
C943   C945    1.397   .     A
C943   O977    1.385   .     S
C944   O985    1.383   .     S
C944   C946    1.407   .     A
C945   C947    1.404   .     A
C945   N993    1.445   .     S
C946   N996    1.450   .     S
C946   C948    1.410   .     A
C948   C641    1.459   1_565 S
C949   H951    1.082   .     S
C949   C953    1.405   .     A
C949   C963    1.412   .     A
C950   C954    1.407   .     A
C950   H952    1.082   .     S
C950   C964    1.409   .     A
C953   H955    1.080   .     S
C953   N957    1.360   .     A
C954   N958    1.361   .     A
C954   H956    1.075   .     S
N957   C959    1.373   .     A
N958   C960    1.378   .     A
C959   N999    1.430   .     S
C959   C961    1.414   .     A
C960   C962    1.416   .     A
C960   N1002   1.432   .     S
C961   O1005   1.384   .     S
C961   C963    1.414   .     A
C962   C964    1.412   .     A
C962   O1013   1.383   .     S
C964   C351    1.516   1_556 S
N965   O967    1.302   .     A
N965   C1035   1.447   .     S
N965   O1068   1.301   .     S
O966   N1169   1.301   1_455 S
N968   O970    1.300   .     A
N968   O969    1.301   .     A
N968   C1138   1.441   1_455 S
N971   O972    1.301   .     A
N971   O973    1.302   .     A
N974   O975    1.300   .     A
N974   O976    1.302   .     A
O977   C978    1.416   .     S
C978   C981    1.523   .     S
C978   H980    1.118   .     S
C978   H979    1.112   .     S
C981   H984    1.108   .     S
C981   H982    1.109   .     S
C981   H1187   1.110   1_455 S
H983   C1083   1.110   .     S
O985   C986    1.416   .     S
C986   H987    1.113   .     S
C986   C989    1.520   .     S
C986   H988    1.114   .     S
C989   H991    1.111   .     S
C989   H992    1.109   .     S
C989   H990    1.110   .     S
N993   O995    1.300   .     A
O994   N687    1.302   1_565 S
N996   O998    1.301   .     A
N996   O997    1.302   .     A
N999   O1000   1.299   .     A
N999   O1001   1.300   .     A
N1002  O1003   1.300   .     A
N1002  O1004   1.300   .     A
O1005  C1006   1.413   .     S
C1006  C1009   1.521   .     S
C1006  H1008   1.113   .     S
C1006  H1007   1.113   .     S
C1009  H1112   1.111   .     S
C1009  H1113   1.110   .     S
H1010  C1213   1.111   1_455 S
H1011  C1213   1.110   1_455 S
H1012  C397    1.111   1_556 S
O1013  C1014   1.413   .     S
C1014  H1016   1.114   .     S
C1014  H403    1.113   1_556 S
C1014  C405    1.521   1_556 S
C1017  H1019   1.111   .     S
C1017  H1020   1.111   .     S
H1018  C405    1.111   1_556 S
O1021  C1025   1.299   .     A
O1021  Zn1033  1.975   .     S
O1022  C1026   1.286   .     A
O1022  Zn1034  1.975   .     S
O1023  Zn1034  1.986   .     S
O1023  C1025   1.284   .     A
O1024  Zn1033  1.986   .     S
O1024  C1026   1.287   .     A
C1025  C1043   1.457   .     S
C1026  C1044   1.438   .     S
O1027  C1031   1.273   .     A
O1027  Zn1033  1.980   .     S
O1028  C1032   1.277   .     A
O1028  Zn1034  1.980   .     S
O1029  Zn1034  1.989   .     S
O1029  C1031   1.286   .     A
O1030  C1032   1.279   .     A
O1030  Zn1033  1.989   .     S
C1031  C1035   1.411   .     S
C1032  C1036   1.400   .     S
Zn1033 N1060   2.010   .     S
Zn1034 N1059   2.010   .     S
C1036  C1137   1.353   .     S
C1036  N1172   1.441   .     S
C1037  C1049   1.398   .     A
C1037  C1041   1.389   .     A
C1037  H1039   1.084   .     S
C1038  C1050   1.402   .     A
C1038  H1040   1.084   .     S
C1038  C1042   1.383   .     A
C1041  C1043   1.414   .     A
C1041  N1073   1.438   .     S
C1042  N1076   1.444   .     S
C1042  C1044   1.406   .     A
C1043  C1045   1.421   .     A
C1044  C1046   1.410   .     A
C1045  C1047   1.397   .     A
C1045  O1079   1.385   .     S
C1046  O1087   1.383   .     S
C1046  C1048   1.407   .     A
C1047  C1049   1.404   .     A
C1047  N1095   1.445   .     S
C1048  N1098   1.450   .     S
C1048  C1050   1.410   .     A
C1050  C743    1.459   1_565 S
C1051  H1053   1.082   .     S
C1051  C1055   1.405   .     A
C1051  C1065   1.412   .     A
C1052  C1056   1.407   .     A
C1052  H1054   1.082   .     S
C1052  C1066   1.409   .     A
C1055  H1057   1.080   .     S
C1055  N1059   1.360   .     A
C1056  N1060   1.361   .     A
C1056  H1058   1.075   .     S
N1059  C1061   1.373   .     A
N1060  C1062   1.378   .     A
C1061  N1101   1.430   .     S
C1061  C1063   1.414   .     A
C1062  C1064   1.416   .     A
C1062  N1104   1.432   .     S
C1063  O1107   1.384   .     S
C1063  C1065   1.414   .     A
C1064  C1066   1.412   .     A
C1064  O1115   1.383   .     S
C1066  C453    1.516   1_556 S
N1067  O1069   1.302   .     A
N1067  C1137   1.447   .     S
N1067  O1170   1.301   .     S
N1070  O1072   1.300   .     A
N1070  O1071   1.301   .     A
N1073  O1074   1.301   .     A
N1073  O1075   1.302   .     A
N1076  O1077   1.300   .     A
N1076  O1078   1.302   .     A
O1079  C1080   1.416   .     S
C1080  C1083   1.523   .     S
C1080  H1082   1.118   .     S
C1080  H1081   1.112   .     S
C1083  H1086   1.108   .     S
C1083  H1084   1.109   .     S
H1085  C1185   1.110   .     S
O1087  C1088   1.416   .     S
C1088  H1089   1.113   .     S
C1088  C1091   1.520   .     S
C1088  H1090   1.114   .     S
C1091  H1093   1.111   .     S
C1091  H1094   1.109   .     S
C1091  H1092   1.110   .     S
N1095  O1097   1.300   .     A
O1096  N789    1.302   1_565 S
N1098  O1100   1.301   .     A
N1098  O1099   1.302   .     A
N1101  O1102   1.299   .     A
N1101  O1103   1.300   .     A
N1104  O1105   1.300   .     A
N1104  O1106   1.300   .     A
O1107  C1108   1.413   .     S
C1108  C1111   1.521   .     S
C1108  H1110   1.113   .     S
C1108  H1109   1.113   .     S
C1111  H1214   1.111   .     S
C1111  H1215   1.110   .     S
H1114  C499    1.111   1_556 S
O1115  C1116   1.413   .     S
C1116  H1118   1.114   .     S
C1116  H505    1.113   1_556 S
C1116  C507    1.521   1_556 S
C1119  H1121   1.111   .     S
C1119  H1122   1.111   .     S
H1120  C507    1.111   1_556 S
O1123  C1127   1.299   .     A
O1123  Zn1135  1.975   .     S
O1124  C1128   1.286   .     A
O1124  Zn1136  1.975   .     S
O1125  Zn1136  1.986   .     S
O1125  C1127   1.284   .     A
O1126  Zn1135  1.986   .     S
O1126  C1128   1.287   .     A
C1127  C1145   1.457   .     S
C1128  C1146   1.438   .     S
O1129  C1133   1.273   .     A
O1129  Zn1135  1.980   .     S
O1130  C1134   1.277   .     A
O1130  Zn1136  1.980   .     S
O1131  Zn1136  1.989   .     S
O1131  C1133   1.286   .     A
O1132  C1134   1.279   .     A
O1132  Zn1135  1.989   .     S
C1133  C1137   1.411   .     S
C1134  C1138   1.400   .     S
Zn1135 N1162   2.010   .     S
Zn1136 N1161   2.010   .     S
C1138  C933    1.353   1_655 S
C1138  N968    1.441   1_655 S
C1139  C1151   1.398   .     A
C1139  C1143   1.389   .     A
C1139  H1141   1.084   .     S
C1140  C1152   1.402   .     A
C1140  H1142   1.084   .     S
C1140  C1144   1.383   .     A
C1143  C1145   1.414   .     A
C1143  N1175   1.438   .     S
C1144  N1178   1.444   .     S
C1144  C1146   1.406   .     A
C1145  C1147   1.421   .     A
C1146  C1148   1.410   .     A
C1147  C1149   1.397   .     A
C1147  O1181   1.385   .     S
C1148  O1189   1.383   .     S
C1148  C1150   1.407   .     A
C1149  C1151   1.404   .     A
C1149  N1197   1.445   .     S
C1150  N1200   1.450   .     S
C1150  C1152   1.410   .     A
C1152  C845    1.459   1_565 S
C1153  H1155   1.082   .     S
C1153  C1157   1.405   .     A
C1153  C1167   1.412   .     A
C1154  C1158   1.407   .     A
C1154  H1156   1.082   .     S
C1154  C1168   1.409   .     A
C1157  H1159   1.080   .     S
C1157  N1161   1.360   .     A
C1158  N1162   1.361   .     A
C1158  H1160   1.075   .     S
N1161  C1163   1.373   .     A
N1162  C1164   1.378   .     A
C1163  N1203   1.430   .     S
C1163  C1165   1.414   .     A
C1164  C1166   1.416   .     A
C1164  N1206   1.432   .     S
C1165  O1209   1.384   .     S
C1165  C1167   1.414   .     A
C1166  C1168   1.412   .     A
C1166  O1217   1.383   .     S
C1168  C555    1.516   1_556 S
N1169  O1171   1.302   .     A
N1169  C933    1.447   1_655 S
N1169  O966    1.301   1_655 S
N1172  O1174   1.300   .     A
N1172  O1173   1.301   .     A
N1175  O1176   1.301   .     A
N1175  O1177   1.302   .     A
N1178  O1179   1.300   .     A
N1178  O1180   1.302   .     A
O1181  C1182   1.416   .     S
C1182  C1185   1.523   .     S
C1182  H1184   1.118   .     S
C1182  H1183   1.112   .     S
C1185  H1188   1.108   .     S
C1185  H1186   1.109   .     S
H1187  C981    1.110   1_655 S
O1189  C1190   1.416   .     S
C1190  H1191   1.113   .     S
C1190  C1193   1.520   .     S
C1190  H1192   1.114   .     S
C1193  H1195   1.111   .     S
C1193  H1196   1.109   .     S
C1193  H1194   1.110   .     S
N1197  O1199   1.300   .     A
O1198  N891    1.302   1_565 S
N1200  O1202   1.301   .     A
N1200  O1201   1.302   .     A
N1203  O1204   1.299   .     A
N1203  O1205   1.300   .     A
N1206  O1207   1.300   .     A
N1206  O1208   1.300   .     A
O1209  C1210   1.413   .     S
C1210  C1213   1.521   .     S
C1210  H1212   1.113   .     S
C1210  H1211   1.113   .     S
C1213  H1010   1.111   1_655 S
C1213  H1011   1.110   1_655 S
H1216  C601    1.111   1_556 S
O1217  C1218   1.413   .     S
C1218  H1220   1.114   .     S
C1218  H607    1.113   1_556 S
C1218  C609    1.521   1_556 S
C1221  H1223   1.111   .     S
C1221  H1224   1.111   .     S
H1222  C609    1.111   1_556 S
