data_str_m3_o2_o10_pcu_sym.12
_audit_creation_date              2020-01-03
_audit_creation_method            'Materials Studio'
_symmetry_space_group_name_H-M    'P1'
_symmetry_Int_Tables_number       1
_symmetry_cell_setting            triclinic
loop_
_symmetry_equiv_pos_as_xyz
  x,y,z
_cell_length_a                    25.7247
_cell_length_b                    29.9528
_cell_length_c                    28.5124
_cell_angle_alpha                 91.2650
_cell_angle_beta                  99.6712
_cell_angle_gamma                 90.5134
loop_
_atom_site_label
_atom_site_type_symbol
_atom_site_fract_x
_atom_site_fract_y
_atom_site_fract_z
_atom_site_U_iso_or_equiv
_atom_site_adp_type
_atom_site_occupancy
C1     C     0.16573   0.16384   0.24944   0.00000  Uiso   1.00
C2     C     0.14506   0.21035   0.44162   0.00000  Uiso   1.00
C3     C     0.17357   0.24107   0.02722   0.00000  Uiso   1.00
C4     C     0.17405   0.24122   0.47421   0.00000  Uiso   1.00
C5     C     0.06698   0.24994   0.23738   0.00000  Uiso   1.00
C6     C     0.26637   0.24997   0.26264   0.00000  Uiso   1.00
C7     C     0.01172   0.24980   0.23080   0.00000  Uiso   1.00
C8     C     0.32168   0.25005   0.26931   0.00000  Uiso   1.00
C9     C     0.14657   0.04786   0.28758   0.00000  Uiso   1.00
C10    C     0.12872   0.45004   0.21061   0.00000  Uiso   1.00
C11    C     0.15005   0.09383   0.28818   0.00000  Uiso   1.00
C12    C     0.16630   0.33602   0.25031   0.00000  Uiso   1.00
C13    C     0.13207   0.40405   0.21139   0.00000  Uiso   1.00
C14    C     0.16164   0.11576   0.24820   0.00000  Uiso   1.00
C15    C     0.16286   0.38377   0.25012   0.00000  Uiso   1.00
C16    C     0.16837   0.09152   0.20713   0.00000  Uiso   1.00
C17    C     0.19044   0.40929   0.28793   0.00000  Uiso   1.00
C18    C     0.16513   0.04540   0.20667   0.00000  Uiso   1.00
C19    C     0.18726   0.45525   0.28710   0.00000  Uiso   1.00
C20    C     0.15494   0.02365   0.24715   0.00000  Uiso   1.00
C21    C     0.15641   0.47558   0.24846   0.00000  Uiso   1.00
C22    C     0.06676   0.23802   0.10264   0.00000  Uiso   1.00
C23    C     0.12609   0.23504   0.04339   0.00000  Uiso   1.00
C24    C     0.05371   0.19181   0.11954   0.00000  Uiso   1.00
C25    C     0.21678   0.32448   0.39046   0.00000  Uiso   1.00
C26    C     0.26961   0.31879   0.37321   0.00000  Uiso   1.00
C27    C     0.19877   0.27628   0.45519   0.00000  Uiso   1.00
C28    C     0.12223   0.24060   0.09202   0.00000  Uiso   1.00
C29    C     0.19402   0.28140   0.40552   0.00000  Uiso   1.00
C30    C     0.21381   0.25596   0.11065   0.00000  Uiso   1.00
C31    C     0.14266   0.21491   0.39191   0.00000  Uiso   1.00
C32    C     0.21796   0.25228   0.06176   0.00000  Uiso   1.00
H33    H     0.32386   0.24944   0.19450   0.00000  Uiso   1.00
H34    H     0.20972   0.47497   0.31601   0.00000  Uiso   1.00
H35    H     0.09094   0.22791   0.01743   0.00000  Uiso   1.00
H36    H     0.21983   0.30128   0.47939   0.00000  Uiso   1.00
H37    H     0.24893   0.26398   0.13587   0.00000  Uiso   1.00
H38    H     0.12126   0.19011   0.36784   0.00000  Uiso   1.00
H39    H     0.25589   0.25803   0.05113   0.00000  Uiso   1.00
H40    H     0.12455   0.18263   0.45445   0.00000  Uiso   1.00
H41    H     0.05226   0.16689   0.08992   0.00000  Uiso   1.00
H42    H     0.08361   0.18098   0.14950   0.00000  Uiso   1.00
H43    H     0.01454   0.19235   0.13096   0.00000  Uiso   1.00
H44    H     0.00962   0.25038   0.30568   0.00000  Uiso   1.00
H45    H     0.05880   0.26626   0.12573   0.00000  Uiso   1.00
H46    H     0.03762   0.24384   0.06990   0.00000  Uiso   1.00
H47    H     0.28646   0.28526   0.38137   0.00000  Uiso   1.00
H48    H     0.26511   0.32460   0.33453   0.00000  Uiso   1.00
H49    H     0.29861   0.34405   0.39111   0.00000  Uiso   1.00
H50    H     0.18705   0.34201   0.36554   0.00000  Uiso   1.00
H51    H     0.22403   0.34866   0.42112   0.00000  Uiso   1.00
H52    H     0.13805   0.03112   0.31878   0.00000  Uiso   1.00
H53    H     0.10465   0.46568   0.18074   0.00000  Uiso   1.00
H54    H     0.14382   0.11207   0.31995   0.00000  Uiso   1.00
H55    H     0.11041   0.38430   0.18208   0.00000  Uiso   1.00
H56    H     0.17706   0.10804   0.17588   0.00000  Uiso   1.00
H57    H     0.21557   0.39399   0.31721   0.00000  Uiso   1.00
H58    H     0.17210   0.02668   0.17542   0.00000  Uiso   1.00
N59    N     0.16667   0.24999   0.12624   0.00000  Uiso   1.00
N60    N     0.16667   0.25001   0.37377   0.00000  Uiso   1.00
O61    O     0.16667   0.18454   0.28974   0.00000  Uiso   1.00
O62    O     0.16666   0.31546   0.21026   0.00000  Uiso   1.00
O63    O     0.16667   0.18453   0.21026   0.00000  Uiso   1.00
O64    O     0.16666   0.31547   0.28974   0.00000  Uiso   1.00
O65    O     0.09058   0.25000   0.28045   0.00000  Uiso   1.00
O66    O     0.24275   0.25000   0.21956   0.00000  Uiso   1.00
O67    O     0.09058   0.24999   0.20097   0.00000  Uiso   1.00
O68    O     0.24275   0.25001   0.29904   0.00000  Uiso   1.00
Zn69   Zn    0.16667   0.25001   0.30307   0.00000  Uiso   1.00
Zn70   Zn    0.16667   0.25000   0.19693   0.00000  Uiso   1.00
C71    C     0.49906   0.16384   0.24944   0.00000  Uiso   1.00
C72    C     0.47840   0.21035   0.44162   0.00000  Uiso   1.00
C73    C     0.50690   0.24107   0.02722   0.00000  Uiso   1.00
C74    C     0.50739   0.24122   0.47421   0.00000  Uiso   1.00
C75    C     0.40032   0.24994   0.23738   0.00000  Uiso   1.00
C76    C     0.59971   0.24997   0.26264   0.00000  Uiso   1.00
C77    C     0.34505   0.24980   0.23080   0.00000  Uiso   1.00
C78    C     0.65501   0.25005   0.26931   0.00000  Uiso   1.00
C79    C     0.47991   0.04786   0.28758   0.00000  Uiso   1.00
C80    C     0.46206   0.45004   0.21061   0.00000  Uiso   1.00
C81    C     0.48338   0.09383   0.28818   0.00000  Uiso   1.00
C82    C     0.49964   0.33602   0.25031   0.00000  Uiso   1.00
C83    C     0.46541   0.40405   0.21139   0.00000  Uiso   1.00
C84    C     0.49497   0.11576   0.24820   0.00000  Uiso   1.00
C85    C     0.49619   0.38377   0.25012   0.00000  Uiso   1.00
C86    C     0.50170   0.09152   0.20713   0.00000  Uiso   1.00
C87    C     0.52378   0.40929   0.28793   0.00000  Uiso   1.00
C88    C     0.49846   0.04540   0.20667   0.00000  Uiso   1.00
C89    C     0.52059   0.45525   0.28710   0.00000  Uiso   1.00
C90    C     0.48827   0.02365   0.24715   0.00000  Uiso   1.00
C91    C     0.48974   0.47558   0.24846   0.00000  Uiso   1.00
C92    C     0.40010   0.23802   0.10264   0.00000  Uiso   1.00
C93    C     0.45942   0.23504   0.04339   0.00000  Uiso   1.00
C94    C     0.38704   0.19181   0.11954   0.00000  Uiso   1.00
C95    C     0.55011   0.32448   0.39046   0.00000  Uiso   1.00
C96    C     0.60295   0.31879   0.37321   0.00000  Uiso   1.00
C97    C     0.53210   0.27628   0.45519   0.00000  Uiso   1.00
C98    C     0.45556   0.24060   0.09202   0.00000  Uiso   1.00
C99    C     0.52735   0.28140   0.40552   0.00000  Uiso   1.00
C100   C     0.54714   0.25596   0.11065   0.00000  Uiso   1.00
C101   C     0.47599   0.21491   0.39191   0.00000  Uiso   1.00
C102   C     0.55129   0.25228   0.06176   0.00000  Uiso   1.00
H103   H     0.65719   0.24944   0.19450   0.00000  Uiso   1.00
H104   H     0.54305   0.47497   0.31601   0.00000  Uiso   1.00
H105   H     0.42428   0.22791   0.01743   0.00000  Uiso   1.00
H106   H     0.55317   0.30128   0.47939   0.00000  Uiso   1.00
H107   H     0.58226   0.26398   0.13587   0.00000  Uiso   1.00
H108   H     0.45459   0.19011   0.36784   0.00000  Uiso   1.00
H109   H     0.58922   0.25803   0.05113   0.00000  Uiso   1.00
H110   H     0.45789   0.18263   0.45445   0.00000  Uiso   1.00
H111   H     0.38559   0.16689   0.08992   0.00000  Uiso   1.00
H112   H     0.41694   0.18098   0.14950   0.00000  Uiso   1.00
H113   H     0.34787   0.19235   0.13096   0.00000  Uiso   1.00
H114   H     0.34295   0.25038   0.30568   0.00000  Uiso   1.00
H115   H     0.39213   0.26626   0.12573   0.00000  Uiso   1.00
H116   H     0.37095   0.24384   0.06990   0.00000  Uiso   1.00
H117   H     0.61979   0.28526   0.38137   0.00000  Uiso   1.00
H118   H     0.59844   0.32460   0.33453   0.00000  Uiso   1.00
H119   H     0.63195   0.34405   0.39111   0.00000  Uiso   1.00
H120   H     0.52038   0.34201   0.36554   0.00000  Uiso   1.00
H121   H     0.55736   0.34866   0.42112   0.00000  Uiso   1.00
H122   H     0.47138   0.03112   0.31878   0.00000  Uiso   1.00
H123   H     0.43798   0.46568   0.18074   0.00000  Uiso   1.00
H124   H     0.47715   0.11207   0.31995   0.00000  Uiso   1.00
H125   H     0.44375   0.38430   0.18208   0.00000  Uiso   1.00
H126   H     0.51039   0.10804   0.17588   0.00000  Uiso   1.00
H127   H     0.54890   0.39399   0.31721   0.00000  Uiso   1.00
H128   H     0.50544   0.02668   0.17542   0.00000  Uiso   1.00
N129   N     0.50000   0.24999   0.12624   0.00000  Uiso   1.00
N130   N     0.50000   0.25001   0.37377   0.00000  Uiso   1.00
O131   O     0.50000   0.18454   0.28974   0.00000  Uiso   1.00
O132   O     0.50000   0.31546   0.21026   0.00000  Uiso   1.00
O133   O     0.50000   0.18453   0.21026   0.00000  Uiso   1.00
O134   O     0.50000   0.31547   0.28974   0.00000  Uiso   1.00
O135   O     0.42392   0.25000   0.28045   0.00000  Uiso   1.00
O136   O     0.57608   0.25000   0.21956   0.00000  Uiso   1.00
O137   O     0.42392   0.24999   0.20097   0.00000  Uiso   1.00
O138   O     0.57608   0.25001   0.29904   0.00000  Uiso   1.00
Zn139  Zn    0.50000   0.25001   0.30307   0.00000  Uiso   1.00
Zn140  Zn    0.50000   0.25000   0.19693   0.00000  Uiso   1.00
C141   C     0.83240   0.16384   0.24944   0.00000  Uiso   1.00
C142   C     0.81173   0.21035   0.44162   0.00000  Uiso   1.00
C143   C     0.84024   0.24107   0.02722   0.00000  Uiso   1.00
C144   C     0.84072   0.24122   0.47421   0.00000  Uiso   1.00
C145   C     0.73365   0.24994   0.23738   0.00000  Uiso   1.00
C146   C     0.93304   0.24997   0.26264   0.00000  Uiso   1.00
C147   C     0.67839   0.24980   0.23080   0.00000  Uiso   1.00
C148   C     0.98835   0.25005   0.26931   0.00000  Uiso   1.00
C149   C     0.81324   0.04786   0.28758   0.00000  Uiso   1.00
C150   C     0.79539   0.45004   0.21061   0.00000  Uiso   1.00
C151   C     0.81672   0.09383   0.28818   0.00000  Uiso   1.00
C152   C     0.83297   0.33602   0.25031   0.00000  Uiso   1.00
C153   C     0.79874   0.40405   0.21139   0.00000  Uiso   1.00
C154   C     0.82831   0.11576   0.24820   0.00000  Uiso   1.00
C155   C     0.82952   0.38377   0.25012   0.00000  Uiso   1.00
C156   C     0.83504   0.09152   0.20713   0.00000  Uiso   1.00
C157   C     0.85711   0.40929   0.28793   0.00000  Uiso   1.00
C158   C     0.83179   0.04540   0.20667   0.00000  Uiso   1.00
C159   C     0.85392   0.45525   0.28710   0.00000  Uiso   1.00
C160   C     0.82160   0.02365   0.24715   0.00000  Uiso   1.00
C161   C     0.82308   0.47558   0.24846   0.00000  Uiso   1.00
C162   C     0.73343   0.23802   0.10264   0.00000  Uiso   1.00
C163   C     0.79275   0.23504   0.04339   0.00000  Uiso   1.00
C164   C     0.72037   0.19181   0.11954   0.00000  Uiso   1.00
C165   C     0.88344   0.32448   0.39046   0.00000  Uiso   1.00
C166   C     0.93628   0.31879   0.37321   0.00000  Uiso   1.00
C167   C     0.86544   0.27628   0.45519   0.00000  Uiso   1.00
C168   C     0.78890   0.24060   0.09202   0.00000  Uiso   1.00
C169   C     0.86069   0.28140   0.40552   0.00000  Uiso   1.00
C170   C     0.88047   0.25596   0.11065   0.00000  Uiso   1.00
C171   C     0.80932   0.21491   0.39191   0.00000  Uiso   1.00
C172   C     0.88462   0.25228   0.06176   0.00000  Uiso   1.00
H173   H     0.99053   0.24944   0.19450   0.00000  Uiso   1.00
H174   H     0.87638   0.47497   0.31601   0.00000  Uiso   1.00
H175   H     0.75761   0.22791   0.01743   0.00000  Uiso   1.00
H176   H     0.88650   0.30128   0.47939   0.00000  Uiso   1.00
H177   H     0.91559   0.26398   0.13587   0.00000  Uiso   1.00
H178   H     0.78793   0.19011   0.36784   0.00000  Uiso   1.00
H179   H     0.92255   0.25803   0.05113   0.00000  Uiso   1.00
H180   H     0.79122   0.18263   0.45445   0.00000  Uiso   1.00
H181   H     0.71893   0.16689   0.08992   0.00000  Uiso   1.00
H182   H     0.75028   0.18098   0.14950   0.00000  Uiso   1.00
H183   H     0.68120   0.19235   0.13096   0.00000  Uiso   1.00
H184   H     0.67629   0.25038   0.30568   0.00000  Uiso   1.00
H185   H     0.72547   0.26626   0.12573   0.00000  Uiso   1.00
H186   H     0.70429   0.24384   0.06990   0.00000  Uiso   1.00
H187   H     0.95312   0.28526   0.38137   0.00000  Uiso   1.00
H188   H     0.93177   0.32460   0.33453   0.00000  Uiso   1.00
H189   H     0.96528   0.34405   0.39111   0.00000  Uiso   1.00
H190   H     0.85371   0.34201   0.36554   0.00000  Uiso   1.00
H191   H     0.89070   0.34866   0.42112   0.00000  Uiso   1.00
H192   H     0.80472   0.03112   0.31878   0.00000  Uiso   1.00
H193   H     0.77131   0.46568   0.18074   0.00000  Uiso   1.00
H194   H     0.81049   0.11207   0.31995   0.00000  Uiso   1.00
H195   H     0.77708   0.38430   0.18208   0.00000  Uiso   1.00
H196   H     0.84372   0.10804   0.17588   0.00000  Uiso   1.00
H197   H     0.88224   0.39399   0.31721   0.00000  Uiso   1.00
H198   H     0.83877   0.02668   0.17542   0.00000  Uiso   1.00
N199   N     0.83333   0.24999   0.12624   0.00000  Uiso   1.00
N200   N     0.83333   0.25001   0.37377   0.00000  Uiso   1.00
O201   O     0.83334   0.18454   0.28974   0.00000  Uiso   1.00
O202   O     0.83333   0.31546   0.21026   0.00000  Uiso   1.00
O203   O     0.83334   0.18453   0.21026   0.00000  Uiso   1.00
O204   O     0.83333   0.31547   0.28974   0.00000  Uiso   1.00
O205   O     0.75725   0.25000   0.28045   0.00000  Uiso   1.00
O206   O     0.90942   0.25000   0.21956   0.00000  Uiso   1.00
O207   O     0.75725   0.24999   0.20097   0.00000  Uiso   1.00
O208   O     0.90942   0.25001   0.29904   0.00000  Uiso   1.00
Zn209  Zn    0.83333   0.25001   0.30307   0.00000  Uiso   1.00
Zn210  Zn    0.83333   0.25000   0.19693   0.00000  Uiso   1.00
C211   C     0.16573   0.66384   0.24944   0.00000  Uiso   1.00
C212   C     0.14506   0.71035   0.44162   0.00000  Uiso   1.00
C213   C     0.17357   0.74107   0.02722   0.00000  Uiso   1.00
C214   C     0.17405   0.74122   0.47421   0.00000  Uiso   1.00
C215   C     0.06698   0.74994   0.23738   0.00000  Uiso   1.00
C216   C     0.26637   0.74997   0.26264   0.00000  Uiso   1.00
C217   C     0.01172   0.74980   0.23080   0.00000  Uiso   1.00
C218   C     0.32168   0.75005   0.26931   0.00000  Uiso   1.00
C219   C     0.14657   0.54786   0.28758   0.00000  Uiso   1.00
C220   C     0.12872   0.95004   0.21061   0.00000  Uiso   1.00
C221   C     0.15005   0.59383   0.28818   0.00000  Uiso   1.00
C222   C     0.16630   0.83602   0.25031   0.00000  Uiso   1.00
C223   C     0.13207   0.90405   0.21139   0.00000  Uiso   1.00
C224   C     0.16164   0.61576   0.24820   0.00000  Uiso   1.00
C225   C     0.16286   0.88377   0.25012   0.00000  Uiso   1.00
C226   C     0.16837   0.59152   0.20713   0.00000  Uiso   1.00
C227   C     0.19044   0.90929   0.28793   0.00000  Uiso   1.00
C228   C     0.16513   0.54540   0.20667   0.00000  Uiso   1.00
C229   C     0.18726   0.95525   0.28710   0.00000  Uiso   1.00
C230   C     0.15494   0.52365   0.24715   0.00000  Uiso   1.00
C231   C     0.15641   0.97558   0.24846   0.00000  Uiso   1.00
C232   C     0.06676   0.73802   0.10264   0.00000  Uiso   1.00
C233   C     0.12609   0.73504   0.04339   0.00000  Uiso   1.00
C234   C     0.05371   0.69181   0.11954   0.00000  Uiso   1.00
C235   C     0.21678   0.82448   0.39046   0.00000  Uiso   1.00
C236   C     0.26961   0.81879   0.37321   0.00000  Uiso   1.00
C237   C     0.19877   0.77628   0.45519   0.00000  Uiso   1.00
C238   C     0.12223   0.74060   0.09202   0.00000  Uiso   1.00
C239   C     0.19402   0.78140   0.40552   0.00000  Uiso   1.00
C240   C     0.21381   0.75596   0.11065   0.00000  Uiso   1.00
C241   C     0.14266   0.71491   0.39191   0.00000  Uiso   1.00
C242   C     0.21796   0.75228   0.06176   0.00000  Uiso   1.00
H243   H     0.32386   0.74944   0.19450   0.00000  Uiso   1.00
H244   H     0.20972   0.97497   0.31601   0.00000  Uiso   1.00
H245   H     0.09094   0.72791   0.01743   0.00000  Uiso   1.00
H246   H     0.21983   0.80128   0.47939   0.00000  Uiso   1.00
H247   H     0.24893   0.76398   0.13587   0.00000  Uiso   1.00
H248   H     0.12126   0.69011   0.36784   0.00000  Uiso   1.00
H249   H     0.25589   0.75803   0.05113   0.00000  Uiso   1.00
H250   H     0.12455   0.68263   0.45445   0.00000  Uiso   1.00
H251   H     0.05226   0.66689   0.08992   0.00000  Uiso   1.00
H252   H     0.08361   0.68098   0.14950   0.00000  Uiso   1.00
H253   H     0.01454   0.69235   0.13096   0.00000  Uiso   1.00
H254   H     0.00962   0.75038   0.30568   0.00000  Uiso   1.00
H255   H     0.05880   0.76626   0.12573   0.00000  Uiso   1.00
H256   H     0.03762   0.74384   0.06990   0.00000  Uiso   1.00
H257   H     0.28646   0.78526   0.38137   0.00000  Uiso   1.00
H258   H     0.26511   0.82460   0.33453   0.00000  Uiso   1.00
H259   H     0.29861   0.84405   0.39111   0.00000  Uiso   1.00
H260   H     0.18705   0.84201   0.36554   0.00000  Uiso   1.00
H261   H     0.22403   0.84866   0.42112   0.00000  Uiso   1.00
H262   H     0.13805   0.53112   0.31878   0.00000  Uiso   1.00
H263   H     0.10465   0.96568   0.18074   0.00000  Uiso   1.00
H264   H     0.14382   0.61207   0.31995   0.00000  Uiso   1.00
H265   H     0.11041   0.88430   0.18208   0.00000  Uiso   1.00
H266   H     0.17706   0.60804   0.17588   0.00000  Uiso   1.00
H267   H     0.21557   0.89399   0.31721   0.00000  Uiso   1.00
H268   H     0.17210   0.52668   0.17542   0.00000  Uiso   1.00
N269   N     0.16667   0.74999   0.12624   0.00000  Uiso   1.00
N270   N     0.16667   0.75001   0.37377   0.00000  Uiso   1.00
O271   O     0.16667   0.68454   0.28974   0.00000  Uiso   1.00
O272   O     0.16666   0.81546   0.21026   0.00000  Uiso   1.00
O273   O     0.16667   0.68453   0.21026   0.00000  Uiso   1.00
O274   O     0.16666   0.81547   0.28974   0.00000  Uiso   1.00
O275   O     0.09058   0.75000   0.28045   0.00000  Uiso   1.00
O276   O     0.24275   0.75000   0.21956   0.00000  Uiso   1.00
O277   O     0.09058   0.74999   0.20097   0.00000  Uiso   1.00
O278   O     0.24275   0.75001   0.29904   0.00000  Uiso   1.00
Zn279  Zn    0.16667   0.75001   0.30307   0.00000  Uiso   1.00
Zn280  Zn    0.16667   0.75000   0.19693   0.00000  Uiso   1.00
C281   C     0.49906   0.66384   0.24944   0.00000  Uiso   1.00
C282   C     0.47840   0.71035   0.44162   0.00000  Uiso   1.00
C283   C     0.50690   0.74107   0.02722   0.00000  Uiso   1.00
C284   C     0.50739   0.74122   0.47421   0.00000  Uiso   1.00
C285   C     0.40032   0.74994   0.23738   0.00000  Uiso   1.00
C286   C     0.59971   0.74997   0.26264   0.00000  Uiso   1.00
C287   C     0.34505   0.74980   0.23080   0.00000  Uiso   1.00
C288   C     0.65501   0.75005   0.26931   0.00000  Uiso   1.00
C289   C     0.47991   0.54786   0.28758   0.00000  Uiso   1.00
C290   C     0.46206   0.95004   0.21061   0.00000  Uiso   1.00
C291   C     0.48338   0.59383   0.28818   0.00000  Uiso   1.00
C292   C     0.49964   0.83602   0.25031   0.00000  Uiso   1.00
C293   C     0.46541   0.90405   0.21139   0.00000  Uiso   1.00
C294   C     0.49497   0.61576   0.24820   0.00000  Uiso   1.00
C295   C     0.49619   0.88377   0.25012   0.00000  Uiso   1.00
C296   C     0.50170   0.59152   0.20713   0.00000  Uiso   1.00
C297   C     0.52378   0.90929   0.28793   0.00000  Uiso   1.00
C298   C     0.49846   0.54540   0.20667   0.00000  Uiso   1.00
C299   C     0.52059   0.95525   0.28710   0.00000  Uiso   1.00
C300   C     0.48827   0.52365   0.24715   0.00000  Uiso   1.00
C301   C     0.48974   0.97558   0.24846   0.00000  Uiso   1.00
C302   C     0.40010   0.73802   0.10264   0.00000  Uiso   1.00
C303   C     0.45942   0.73504   0.04339   0.00000  Uiso   1.00
C304   C     0.38704   0.69181   0.11954   0.00000  Uiso   1.00
C305   C     0.55011   0.82448   0.39046   0.00000  Uiso   1.00
C306   C     0.60295   0.81879   0.37321   0.00000  Uiso   1.00
C307   C     0.53210   0.77628   0.45519   0.00000  Uiso   1.00
C308   C     0.45556   0.74060   0.09202   0.00000  Uiso   1.00
C309   C     0.52735   0.78140   0.40552   0.00000  Uiso   1.00
C310   C     0.54714   0.75596   0.11065   0.00000  Uiso   1.00
C311   C     0.47599   0.71491   0.39191   0.00000  Uiso   1.00
C312   C     0.55129   0.75228   0.06176   0.00000  Uiso   1.00
H313   H     0.65719   0.74944   0.19450   0.00000  Uiso   1.00
H314   H     0.54305   0.97497   0.31601   0.00000  Uiso   1.00
H315   H     0.42428   0.72791   0.01743   0.00000  Uiso   1.00
H316   H     0.55317   0.80128   0.47939   0.00000  Uiso   1.00
H317   H     0.58226   0.76398   0.13587   0.00000  Uiso   1.00
H318   H     0.45459   0.69011   0.36784   0.00000  Uiso   1.00
H319   H     0.58922   0.75803   0.05113   0.00000  Uiso   1.00
H320   H     0.45789   0.68263   0.45445   0.00000  Uiso   1.00
H321   H     0.38559   0.66689   0.08992   0.00000  Uiso   1.00
H322   H     0.41694   0.68098   0.14950   0.00000  Uiso   1.00
H323   H     0.34787   0.69235   0.13096   0.00000  Uiso   1.00
H324   H     0.34295   0.75038   0.30568   0.00000  Uiso   1.00
H325   H     0.39213   0.76626   0.12573   0.00000  Uiso   1.00
H326   H     0.37095   0.74384   0.06990   0.00000  Uiso   1.00
H327   H     0.61979   0.78526   0.38137   0.00000  Uiso   1.00
H328   H     0.59844   0.82460   0.33453   0.00000  Uiso   1.00
H329   H     0.63195   0.84405   0.39111   0.00000  Uiso   1.00
H330   H     0.52038   0.84201   0.36554   0.00000  Uiso   1.00
H331   H     0.55736   0.84866   0.42112   0.00000  Uiso   1.00
H332   H     0.47138   0.53112   0.31878   0.00000  Uiso   1.00
H333   H     0.43798   0.96568   0.18074   0.00000  Uiso   1.00
H334   H     0.47715   0.61207   0.31995   0.00000  Uiso   1.00
H335   H     0.44375   0.88430   0.18208   0.00000  Uiso   1.00
H336   H     0.51039   0.60804   0.17588   0.00000  Uiso   1.00
H337   H     0.54890   0.89399   0.31721   0.00000  Uiso   1.00
H338   H     0.50544   0.52668   0.17542   0.00000  Uiso   1.00
N339   N     0.50000   0.74999   0.12624   0.00000  Uiso   1.00
N340   N     0.50000   0.75001   0.37377   0.00000  Uiso   1.00
O341   O     0.50000   0.68454   0.28974   0.00000  Uiso   1.00
O342   O     0.50000   0.81546   0.21026   0.00000  Uiso   1.00
O343   O     0.50000   0.68453   0.21026   0.00000  Uiso   1.00
O344   O     0.50000   0.81547   0.28974   0.00000  Uiso   1.00
O345   O     0.42392   0.75000   0.28045   0.00000  Uiso   1.00
O346   O     0.57608   0.75000   0.21956   0.00000  Uiso   1.00
O347   O     0.42392   0.74999   0.20097   0.00000  Uiso   1.00
O348   O     0.57608   0.75001   0.29904   0.00000  Uiso   1.00
Zn349  Zn    0.50000   0.75001   0.30307   0.00000  Uiso   1.00
Zn350  Zn    0.50000   0.75000   0.19693   0.00000  Uiso   1.00
C351   C     0.83240   0.66384   0.24944   0.00000  Uiso   1.00
C352   C     0.81173   0.71035   0.44162   0.00000  Uiso   1.00
C353   C     0.84024   0.74107   0.02722   0.00000  Uiso   1.00
C354   C     0.84072   0.74122   0.47421   0.00000  Uiso   1.00
C355   C     0.73365   0.74994   0.23738   0.00000  Uiso   1.00
C356   C     0.93304   0.74997   0.26264   0.00000  Uiso   1.00
C357   C     0.67839   0.74980   0.23080   0.00000  Uiso   1.00
C358   C     0.98835   0.75005   0.26931   0.00000  Uiso   1.00
C359   C     0.81324   0.54786   0.28758   0.00000  Uiso   1.00
C360   C     0.79539   0.95004   0.21061   0.00000  Uiso   1.00
C361   C     0.81672   0.59383   0.28818   0.00000  Uiso   1.00
C362   C     0.83297   0.83602   0.25031   0.00000  Uiso   1.00
C363   C     0.79874   0.90405   0.21139   0.00000  Uiso   1.00
C364   C     0.82831   0.61576   0.24820   0.00000  Uiso   1.00
C365   C     0.82952   0.88377   0.25012   0.00000  Uiso   1.00
C366   C     0.83504   0.59152   0.20713   0.00000  Uiso   1.00
C367   C     0.85711   0.90929   0.28793   0.00000  Uiso   1.00
C368   C     0.83179   0.54540   0.20667   0.00000  Uiso   1.00
C369   C     0.85392   0.95525   0.28710   0.00000  Uiso   1.00
C370   C     0.82160   0.52365   0.24715   0.00000  Uiso   1.00
C371   C     0.82308   0.97558   0.24846   0.00000  Uiso   1.00
C372   C     0.73343   0.73802   0.10264   0.00000  Uiso   1.00
C373   C     0.79275   0.73504   0.04339   0.00000  Uiso   1.00
C374   C     0.72037   0.69181   0.11954   0.00000  Uiso   1.00
C375   C     0.88344   0.82448   0.39046   0.00000  Uiso   1.00
C376   C     0.93628   0.81879   0.37321   0.00000  Uiso   1.00
C377   C     0.86544   0.77628   0.45519   0.00000  Uiso   1.00
C378   C     0.78890   0.74060   0.09202   0.00000  Uiso   1.00
C379   C     0.86069   0.78140   0.40552   0.00000  Uiso   1.00
C380   C     0.88047   0.75596   0.11065   0.00000  Uiso   1.00
C381   C     0.80932   0.71491   0.39191   0.00000  Uiso   1.00
C382   C     0.88462   0.75228   0.06176   0.00000  Uiso   1.00
H383   H     0.99053   0.74944   0.19450   0.00000  Uiso   1.00
H384   H     0.87638   0.97497   0.31601   0.00000  Uiso   1.00
H385   H     0.75761   0.72791   0.01743   0.00000  Uiso   1.00
H386   H     0.88650   0.80128   0.47939   0.00000  Uiso   1.00
H387   H     0.91559   0.76398   0.13587   0.00000  Uiso   1.00
H388   H     0.78793   0.69011   0.36784   0.00000  Uiso   1.00
H389   H     0.92255   0.75803   0.05113   0.00000  Uiso   1.00
H390   H     0.79122   0.68263   0.45445   0.00000  Uiso   1.00
H391   H     0.71893   0.66689   0.08992   0.00000  Uiso   1.00
H392   H     0.75028   0.68098   0.14950   0.00000  Uiso   1.00
H393   H     0.68120   0.69235   0.13096   0.00000  Uiso   1.00
H394   H     0.67629   0.75038   0.30568   0.00000  Uiso   1.00
H395   H     0.72547   0.76626   0.12573   0.00000  Uiso   1.00
H396   H     0.70429   0.74384   0.06990   0.00000  Uiso   1.00
H397   H     0.95312   0.78526   0.38137   0.00000  Uiso   1.00
H398   H     0.93177   0.82460   0.33453   0.00000  Uiso   1.00
H399   H     0.96528   0.84405   0.39111   0.00000  Uiso   1.00
H400   H     0.85371   0.84201   0.36554   0.00000  Uiso   1.00
H401   H     0.89070   0.84866   0.42112   0.00000  Uiso   1.00
H402   H     0.80472   0.53112   0.31878   0.00000  Uiso   1.00
H403   H     0.77131   0.96568   0.18074   0.00000  Uiso   1.00
H404   H     0.81049   0.61207   0.31995   0.00000  Uiso   1.00
H405   H     0.77708   0.88430   0.18208   0.00000  Uiso   1.00
H406   H     0.84372   0.60804   0.17588   0.00000  Uiso   1.00
H407   H     0.88224   0.89399   0.31721   0.00000  Uiso   1.00
H408   H     0.83877   0.52668   0.17542   0.00000  Uiso   1.00
N409   N     0.83333   0.74999   0.12624   0.00000  Uiso   1.00
N410   N     0.83333   0.75001   0.37377   0.00000  Uiso   1.00
O411   O     0.83334   0.68454   0.28974   0.00000  Uiso   1.00
O412   O     0.83333   0.81546   0.21026   0.00000  Uiso   1.00
O413   O     0.83334   0.68453   0.21026   0.00000  Uiso   1.00
O414   O     0.83333   0.81547   0.28974   0.00000  Uiso   1.00
O415   O     0.75725   0.75000   0.28045   0.00000  Uiso   1.00
O416   O     0.90942   0.75000   0.21956   0.00000  Uiso   1.00
O417   O     0.75725   0.74999   0.20097   0.00000  Uiso   1.00
O418   O     0.90942   0.75001   0.29904   0.00000  Uiso   1.00
Zn419  Zn    0.83333   0.75001   0.30307   0.00000  Uiso   1.00
Zn420  Zn    0.83333   0.75000   0.19693   0.00000  Uiso   1.00
C421   C     0.16573   0.16384   0.74944   0.00000  Uiso   1.00
C422   C     0.14506   0.21035   0.94162   0.00000  Uiso   1.00
C423   C     0.17357   0.24107   0.52722   0.00000  Uiso   1.00
C424   C     0.17405   0.24122   0.97421   0.00000  Uiso   1.00
C425   C     0.06698   0.24994   0.73738   0.00000  Uiso   1.00
C426   C     0.26637   0.24997   0.76264   0.00000  Uiso   1.00
C427   C     0.01172   0.24980   0.73080   0.00000  Uiso   1.00
C428   C     0.32168   0.25005   0.76931   0.00000  Uiso   1.00
C429   C     0.14657   0.04786   0.78758   0.00000  Uiso   1.00
C430   C     0.12872   0.45004   0.71061   0.00000  Uiso   1.00
C431   C     0.15005   0.09383   0.78818   0.00000  Uiso   1.00
C432   C     0.16630   0.33602   0.75031   0.00000  Uiso   1.00
C433   C     0.13207   0.40405   0.71139   0.00000  Uiso   1.00
C434   C     0.16164   0.11576   0.74820   0.00000  Uiso   1.00
C435   C     0.16286   0.38377   0.75012   0.00000  Uiso   1.00
C436   C     0.16837   0.09152   0.70713   0.00000  Uiso   1.00
C437   C     0.19044   0.40929   0.78793   0.00000  Uiso   1.00
C438   C     0.16513   0.04540   0.70667   0.00000  Uiso   1.00
C439   C     0.18726   0.45525   0.78710   0.00000  Uiso   1.00
C440   C     0.15494   0.02365   0.74715   0.00000  Uiso   1.00
C441   C     0.15641   0.47558   0.74846   0.00000  Uiso   1.00
C442   C     0.06676   0.23802   0.60264   0.00000  Uiso   1.00
C443   C     0.12609   0.23504   0.54339   0.00000  Uiso   1.00
C444   C     0.05371   0.19181   0.61954   0.00000  Uiso   1.00
C445   C     0.21678   0.32448   0.89046   0.00000  Uiso   1.00
C446   C     0.26961   0.31879   0.87321   0.00000  Uiso   1.00
C447   C     0.19877   0.27628   0.95519   0.00000  Uiso   1.00
C448   C     0.12223   0.24060   0.59202   0.00000  Uiso   1.00
C449   C     0.19402   0.28140   0.90552   0.00000  Uiso   1.00
C450   C     0.21381   0.25596   0.61065   0.00000  Uiso   1.00
C451   C     0.14266   0.21491   0.89191   0.00000  Uiso   1.00
C452   C     0.21796   0.25228   0.56176   0.00000  Uiso   1.00
H453   H     0.32386   0.24944   0.69450   0.00000  Uiso   1.00
H454   H     0.20972   0.47497   0.81601   0.00000  Uiso   1.00
H455   H     0.09094   0.22791   0.51743   0.00000  Uiso   1.00
H456   H     0.21983   0.30128   0.97939   0.00000  Uiso   1.00
H457   H     0.24893   0.26398   0.63587   0.00000  Uiso   1.00
H458   H     0.12126   0.19011   0.86784   0.00000  Uiso   1.00
H459   H     0.25589   0.25803   0.55113   0.00000  Uiso   1.00
H460   H     0.12455   0.18263   0.95445   0.00000  Uiso   1.00
H461   H     0.05226   0.16689   0.58992   0.00000  Uiso   1.00
H462   H     0.08361   0.18098   0.64950   0.00000  Uiso   1.00
H463   H     0.01454   0.19235   0.63096   0.00000  Uiso   1.00
H464   H     0.00962   0.25038   0.80568   0.00000  Uiso   1.00
H465   H     0.05880   0.26626   0.62573   0.00000  Uiso   1.00
H466   H     0.03762   0.24384   0.56990   0.00000  Uiso   1.00
H467   H     0.28646   0.28526   0.88137   0.00000  Uiso   1.00
H468   H     0.26511   0.32460   0.83453   0.00000  Uiso   1.00
H469   H     0.29861   0.34405   0.89111   0.00000  Uiso   1.00
H470   H     0.18705   0.34201   0.86554   0.00000  Uiso   1.00
H471   H     0.22403   0.34866   0.92112   0.00000  Uiso   1.00
H472   H     0.13805   0.03112   0.81878   0.00000  Uiso   1.00
H473   H     0.10465   0.46568   0.68074   0.00000  Uiso   1.00
H474   H     0.14382   0.11207   0.81995   0.00000  Uiso   1.00
H475   H     0.11041   0.38430   0.68208   0.00000  Uiso   1.00
H476   H     0.17706   0.10804   0.67588   0.00000  Uiso   1.00
H477   H     0.21557   0.39399   0.81721   0.00000  Uiso   1.00
H478   H     0.17210   0.02668   0.67542   0.00000  Uiso   1.00
N479   N     0.16667   0.24999   0.62624   0.00000  Uiso   1.00
N480   N     0.16667   0.25001   0.87377   0.00000  Uiso   1.00
O481   O     0.16667   0.18454   0.78974   0.00000  Uiso   1.00
O482   O     0.16666   0.31546   0.71026   0.00000  Uiso   1.00
O483   O     0.16667   0.18453   0.71026   0.00000  Uiso   1.00
O484   O     0.16666   0.31547   0.78974   0.00000  Uiso   1.00
O485   O     0.09058   0.25000   0.78045   0.00000  Uiso   1.00
O486   O     0.24275   0.25000   0.71956   0.00000  Uiso   1.00
O487   O     0.09058   0.24999   0.70097   0.00000  Uiso   1.00
O488   O     0.24275   0.25001   0.79904   0.00000  Uiso   1.00
Zn489  Zn    0.16667   0.25001   0.80307   0.00000  Uiso   1.00
Zn490  Zn    0.16667   0.25000   0.69693   0.00000  Uiso   1.00
C491   C     0.49906   0.16384   0.74944   0.00000  Uiso   1.00
C492   C     0.47840   0.21035   0.94162   0.00000  Uiso   1.00
C493   C     0.50690   0.24107   0.52722   0.00000  Uiso   1.00
C494   C     0.50739   0.24122   0.97421   0.00000  Uiso   1.00
C495   C     0.40032   0.24994   0.73738   0.00000  Uiso   1.00
C496   C     0.59971   0.24997   0.76264   0.00000  Uiso   1.00
C497   C     0.34505   0.24980   0.73080   0.00000  Uiso   1.00
C498   C     0.65501   0.25005   0.76931   0.00000  Uiso   1.00
C499   C     0.47991   0.04786   0.78758   0.00000  Uiso   1.00
C500   C     0.46206   0.45004   0.71061   0.00000  Uiso   1.00
C501   C     0.48338   0.09383   0.78818   0.00000  Uiso   1.00
C502   C     0.49964   0.33602   0.75031   0.00000  Uiso   1.00
C503   C     0.46541   0.40405   0.71139   0.00000  Uiso   1.00
C504   C     0.49497   0.11576   0.74820   0.00000  Uiso   1.00
C505   C     0.49619   0.38377   0.75012   0.00000  Uiso   1.00
C506   C     0.50170   0.09152   0.70713   0.00000  Uiso   1.00
C507   C     0.52378   0.40929   0.78793   0.00000  Uiso   1.00
C508   C     0.49846   0.04540   0.70667   0.00000  Uiso   1.00
C509   C     0.52059   0.45525   0.78710   0.00000  Uiso   1.00
C510   C     0.48827   0.02365   0.74715   0.00000  Uiso   1.00
C511   C     0.48974   0.47558   0.74846   0.00000  Uiso   1.00
C512   C     0.40010   0.23802   0.60264   0.00000  Uiso   1.00
C513   C     0.45942   0.23504   0.54339   0.00000  Uiso   1.00
C514   C     0.38704   0.19181   0.61954   0.00000  Uiso   1.00
C515   C     0.55011   0.32448   0.89046   0.00000  Uiso   1.00
C516   C     0.60295   0.31879   0.87321   0.00000  Uiso   1.00
C517   C     0.53210   0.27628   0.95519   0.00000  Uiso   1.00
C518   C     0.45556   0.24060   0.59202   0.00000  Uiso   1.00
C519   C     0.52735   0.28140   0.90552   0.00000  Uiso   1.00
C520   C     0.54714   0.25596   0.61065   0.00000  Uiso   1.00
C521   C     0.47599   0.21491   0.89191   0.00000  Uiso   1.00
C522   C     0.55129   0.25228   0.56176   0.00000  Uiso   1.00
H523   H     0.65719   0.24944   0.69450   0.00000  Uiso   1.00
H524   H     0.54305   0.47497   0.81601   0.00000  Uiso   1.00
H525   H     0.42428   0.22791   0.51743   0.00000  Uiso   1.00
H526   H     0.55317   0.30128   0.97939   0.00000  Uiso   1.00
H527   H     0.58226   0.26398   0.63587   0.00000  Uiso   1.00
H528   H     0.45459   0.19011   0.86784   0.00000  Uiso   1.00
H529   H     0.58922   0.25803   0.55113   0.00000  Uiso   1.00
H530   H     0.45789   0.18263   0.95445   0.00000  Uiso   1.00
H531   H     0.38559   0.16689   0.58992   0.00000  Uiso   1.00
H532   H     0.41694   0.18098   0.64950   0.00000  Uiso   1.00
H533   H     0.34787   0.19235   0.63096   0.00000  Uiso   1.00
H534   H     0.34295   0.25038   0.80568   0.00000  Uiso   1.00
H535   H     0.39213   0.26626   0.62573   0.00000  Uiso   1.00
H536   H     0.37095   0.24384   0.56990   0.00000  Uiso   1.00
H537   H     0.61979   0.28526   0.88137   0.00000  Uiso   1.00
H538   H     0.59844   0.32460   0.83453   0.00000  Uiso   1.00
H539   H     0.63195   0.34405   0.89111   0.00000  Uiso   1.00
H540   H     0.52038   0.34201   0.86554   0.00000  Uiso   1.00
H541   H     0.55736   0.34866   0.92112   0.00000  Uiso   1.00
H542   H     0.47138   0.03112   0.81878   0.00000  Uiso   1.00
H543   H     0.43798   0.46568   0.68074   0.00000  Uiso   1.00
H544   H     0.47715   0.11207   0.81995   0.00000  Uiso   1.00
H545   H     0.44375   0.38430   0.68208   0.00000  Uiso   1.00
H546   H     0.51039   0.10804   0.67588   0.00000  Uiso   1.00
H547   H     0.54890   0.39399   0.81721   0.00000  Uiso   1.00
H548   H     0.50544   0.02668   0.67542   0.00000  Uiso   1.00
N549   N     0.50000   0.24999   0.62624   0.00000  Uiso   1.00
N550   N     0.50000   0.25001   0.87377   0.00000  Uiso   1.00
O551   O     0.50000   0.18454   0.78974   0.00000  Uiso   1.00
O552   O     0.50000   0.31546   0.71026   0.00000  Uiso   1.00
O553   O     0.50000   0.18453   0.71026   0.00000  Uiso   1.00
O554   O     0.50000   0.31547   0.78974   0.00000  Uiso   1.00
O555   O     0.42392   0.25000   0.78045   0.00000  Uiso   1.00
O556   O     0.57608   0.25000   0.71956   0.00000  Uiso   1.00
O557   O     0.42392   0.24999   0.70097   0.00000  Uiso   1.00
O558   O     0.57608   0.25001   0.79904   0.00000  Uiso   1.00
Zn559  Zn    0.50000   0.25001   0.80307   0.00000  Uiso   1.00
Zn560  Zn    0.50000   0.25000   0.69693   0.00000  Uiso   1.00
C561   C     0.83240   0.16384   0.74944   0.00000  Uiso   1.00
C562   C     0.81173   0.21035   0.94162   0.00000  Uiso   1.00
C563   C     0.84024   0.24107   0.52722   0.00000  Uiso   1.00
C564   C     0.84072   0.24122   0.97421   0.00000  Uiso   1.00
C565   C     0.73365   0.24994   0.73738   0.00000  Uiso   1.00
C566   C     0.93304   0.24997   0.76264   0.00000  Uiso   1.00
C567   C     0.67839   0.24980   0.73080   0.00000  Uiso   1.00
C568   C     0.98835   0.25005   0.76931   0.00000  Uiso   1.00
C569   C     0.81324   0.04786   0.78758   0.00000  Uiso   1.00
C570   C     0.79539   0.45004   0.71061   0.00000  Uiso   1.00
C571   C     0.81672   0.09383   0.78818   0.00000  Uiso   1.00
C572   C     0.83297   0.33602   0.75031   0.00000  Uiso   1.00
C573   C     0.79874   0.40405   0.71139   0.00000  Uiso   1.00
C574   C     0.82831   0.11576   0.74820   0.00000  Uiso   1.00
C575   C     0.82952   0.38377   0.75012   0.00000  Uiso   1.00
C576   C     0.83504   0.09152   0.70713   0.00000  Uiso   1.00
C577   C     0.85711   0.40929   0.78793   0.00000  Uiso   1.00
C578   C     0.83179   0.04540   0.70667   0.00000  Uiso   1.00
C579   C     0.85392   0.45525   0.78710   0.00000  Uiso   1.00
C580   C     0.82160   0.02365   0.74715   0.00000  Uiso   1.00
C581   C     0.82308   0.47558   0.74846   0.00000  Uiso   1.00
C582   C     0.73343   0.23802   0.60264   0.00000  Uiso   1.00
C583   C     0.79275   0.23504   0.54339   0.00000  Uiso   1.00
C584   C     0.72037   0.19181   0.61954   0.00000  Uiso   1.00
C585   C     0.88344   0.32448   0.89046   0.00000  Uiso   1.00
C586   C     0.93628   0.31879   0.87321   0.00000  Uiso   1.00
C587   C     0.86544   0.27628   0.95519   0.00000  Uiso   1.00
C588   C     0.78890   0.24060   0.59202   0.00000  Uiso   1.00
C589   C     0.86069   0.28140   0.90552   0.00000  Uiso   1.00
C590   C     0.88047   0.25596   0.61065   0.00000  Uiso   1.00
C591   C     0.80932   0.21491   0.89191   0.00000  Uiso   1.00
C592   C     0.88462   0.25228   0.56176   0.00000  Uiso   1.00
H593   H     0.99053   0.24944   0.69450   0.00000  Uiso   1.00
H594   H     0.87638   0.47497   0.81601   0.00000  Uiso   1.00
H595   H     0.75761   0.22791   0.51743   0.00000  Uiso   1.00
H596   H     0.88650   0.30128   0.97939   0.00000  Uiso   1.00
H597   H     0.91559   0.26398   0.63587   0.00000  Uiso   1.00
H598   H     0.78793   0.19011   0.86784   0.00000  Uiso   1.00
H599   H     0.92255   0.25803   0.55113   0.00000  Uiso   1.00
H600   H     0.79122   0.18263   0.95445   0.00000  Uiso   1.00
H601   H     0.71893   0.16689   0.58992   0.00000  Uiso   1.00
H602   H     0.75028   0.18098   0.64950   0.00000  Uiso   1.00
H603   H     0.68120   0.19235   0.63096   0.00000  Uiso   1.00
H604   H     0.67629   0.25038   0.80568   0.00000  Uiso   1.00
H605   H     0.72547   0.26626   0.62573   0.00000  Uiso   1.00
H606   H     0.70429   0.24384   0.56990   0.00000  Uiso   1.00
H607   H     0.95312   0.28526   0.88137   0.00000  Uiso   1.00
H608   H     0.93177   0.32460   0.83453   0.00000  Uiso   1.00
H609   H     0.96528   0.34405   0.89111   0.00000  Uiso   1.00
H610   H     0.85371   0.34201   0.86554   0.00000  Uiso   1.00
H611   H     0.89070   0.34866   0.92112   0.00000  Uiso   1.00
H612   H     0.80472   0.03112   0.81878   0.00000  Uiso   1.00
H613   H     0.77131   0.46568   0.68074   0.00000  Uiso   1.00
H614   H     0.81049   0.11207   0.81995   0.00000  Uiso   1.00
H615   H     0.77708   0.38430   0.68208   0.00000  Uiso   1.00
H616   H     0.84372   0.10804   0.67588   0.00000  Uiso   1.00
H617   H     0.88224   0.39399   0.81721   0.00000  Uiso   1.00
H618   H     0.83877   0.02668   0.67542   0.00000  Uiso   1.00
N619   N     0.83333   0.24999   0.62624   0.00000  Uiso   1.00
N620   N     0.83333   0.25001   0.87377   0.00000  Uiso   1.00
O621   O     0.83334   0.18454   0.78974   0.00000  Uiso   1.00
O622   O     0.83333   0.31546   0.71026   0.00000  Uiso   1.00
O623   O     0.83334   0.18453   0.71026   0.00000  Uiso   1.00
O624   O     0.83333   0.31547   0.78974   0.00000  Uiso   1.00
O625   O     0.75725   0.25000   0.78045   0.00000  Uiso   1.00
O626   O     0.90942   0.25000   0.71956   0.00000  Uiso   1.00
O627   O     0.75725   0.24999   0.70097   0.00000  Uiso   1.00
O628   O     0.90942   0.25001   0.79904   0.00000  Uiso   1.00
Zn629  Zn    0.83333   0.25001   0.80307   0.00000  Uiso   1.00
Zn630  Zn    0.83333   0.25000   0.69693   0.00000  Uiso   1.00
C631   C     0.16573   0.66384   0.74944   0.00000  Uiso   1.00
C632   C     0.14506   0.71035   0.94162   0.00000  Uiso   1.00
C633   C     0.17357   0.74107   0.52722   0.00000  Uiso   1.00
C634   C     0.17405   0.74122   0.97421   0.00000  Uiso   1.00
C635   C     0.06698   0.74994   0.73738   0.00000  Uiso   1.00
C636   C     0.26637   0.74997   0.76264   0.00000  Uiso   1.00
C637   C     0.01172   0.74980   0.73080   0.00000  Uiso   1.00
C638   C     0.32168   0.75005   0.76931   0.00000  Uiso   1.00
C639   C     0.14657   0.54786   0.78758   0.00000  Uiso   1.00
C640   C     0.12872   0.95004   0.71061   0.00000  Uiso   1.00
C641   C     0.15005   0.59383   0.78818   0.00000  Uiso   1.00
C642   C     0.16630   0.83602   0.75031   0.00000  Uiso   1.00
C643   C     0.13207   0.90405   0.71139   0.00000  Uiso   1.00
C644   C     0.16164   0.61576   0.74820   0.00000  Uiso   1.00
C645   C     0.16286   0.88377   0.75012   0.00000  Uiso   1.00
C646   C     0.16837   0.59152   0.70713   0.00000  Uiso   1.00
C647   C     0.19044   0.90929   0.78793   0.00000  Uiso   1.00
C648   C     0.16513   0.54540   0.70667   0.00000  Uiso   1.00
C649   C     0.18726   0.95525   0.78710   0.00000  Uiso   1.00
C650   C     0.15494   0.52365   0.74715   0.00000  Uiso   1.00
C651   C     0.15641   0.97558   0.74846   0.00000  Uiso   1.00
C652   C     0.06676   0.73802   0.60264   0.00000  Uiso   1.00
C653   C     0.12609   0.73504   0.54339   0.00000  Uiso   1.00
C654   C     0.05371   0.69181   0.61954   0.00000  Uiso   1.00
C655   C     0.21678   0.82448   0.89046   0.00000  Uiso   1.00
C656   C     0.26961   0.81879   0.87321   0.00000  Uiso   1.00
C657   C     0.19877   0.77628   0.95519   0.00000  Uiso   1.00
C658   C     0.12223   0.74060   0.59202   0.00000  Uiso   1.00
C659   C     0.19402   0.78140   0.90552   0.00000  Uiso   1.00
C660   C     0.21381   0.75596   0.61065   0.00000  Uiso   1.00
C661   C     0.14266   0.71491   0.89191   0.00000  Uiso   1.00
C662   C     0.21796   0.75228   0.56176   0.00000  Uiso   1.00
H663   H     0.32386   0.74944   0.69450   0.00000  Uiso   1.00
H664   H     0.20972   0.97497   0.81601   0.00000  Uiso   1.00
H665   H     0.09094   0.72791   0.51743   0.00000  Uiso   1.00
H666   H     0.21983   0.80128   0.97939   0.00000  Uiso   1.00
H667   H     0.24893   0.76398   0.63587   0.00000  Uiso   1.00
H668   H     0.12126   0.69011   0.86784   0.00000  Uiso   1.00
H669   H     0.25589   0.75803   0.55113   0.00000  Uiso   1.00
H670   H     0.12455   0.68263   0.95445   0.00000  Uiso   1.00
H671   H     0.05226   0.66689   0.58992   0.00000  Uiso   1.00
H672   H     0.08361   0.68098   0.64950   0.00000  Uiso   1.00
H673   H     0.01454   0.69235   0.63096   0.00000  Uiso   1.00
H674   H     0.00962   0.75038   0.80568   0.00000  Uiso   1.00
H675   H     0.05880   0.76626   0.62573   0.00000  Uiso   1.00
H676   H     0.03762   0.74384   0.56990   0.00000  Uiso   1.00
H677   H     0.28646   0.78526   0.88137   0.00000  Uiso   1.00
H678   H     0.26511   0.82460   0.83453   0.00000  Uiso   1.00
H679   H     0.29861   0.84405   0.89111   0.00000  Uiso   1.00
H680   H     0.18705   0.84201   0.86554   0.00000  Uiso   1.00
H681   H     0.22403   0.84866   0.92112   0.00000  Uiso   1.00
H682   H     0.13805   0.53112   0.81878   0.00000  Uiso   1.00
H683   H     0.10465   0.96568   0.68074   0.00000  Uiso   1.00
H684   H     0.14382   0.61207   0.81995   0.00000  Uiso   1.00
H685   H     0.11041   0.88430   0.68208   0.00000  Uiso   1.00
H686   H     0.17706   0.60804   0.67588   0.00000  Uiso   1.00
H687   H     0.21557   0.89399   0.81721   0.00000  Uiso   1.00
H688   H     0.17210   0.52668   0.67542   0.00000  Uiso   1.00
N689   N     0.16667   0.74999   0.62624   0.00000  Uiso   1.00
N690   N     0.16667   0.75001   0.87377   0.00000  Uiso   1.00
O691   O     0.16667   0.68454   0.78974   0.00000  Uiso   1.00
O692   O     0.16666   0.81546   0.71026   0.00000  Uiso   1.00
O693   O     0.16667   0.68453   0.71026   0.00000  Uiso   1.00
O694   O     0.16666   0.81547   0.78974   0.00000  Uiso   1.00
O695   O     0.09058   0.75000   0.78045   0.00000  Uiso   1.00
O696   O     0.24275   0.75000   0.71956   0.00000  Uiso   1.00
O697   O     0.09058   0.74999   0.70097   0.00000  Uiso   1.00
O698   O     0.24275   0.75001   0.79904   0.00000  Uiso   1.00
Zn699  Zn    0.16667   0.75001   0.80307   0.00000  Uiso   1.00
Zn700  Zn    0.16667   0.75000   0.69693   0.00000  Uiso   1.00
C701   C     0.49906   0.66384   0.74944   0.00000  Uiso   1.00
C702   C     0.47840   0.71035   0.94162   0.00000  Uiso   1.00
C703   C     0.50690   0.74107   0.52722   0.00000  Uiso   1.00
C704   C     0.50739   0.74122   0.97421   0.00000  Uiso   1.00
C705   C     0.40032   0.74994   0.73738   0.00000  Uiso   1.00
C706   C     0.59971   0.74997   0.76264   0.00000  Uiso   1.00
C707   C     0.34505   0.74980   0.73080   0.00000  Uiso   1.00
C708   C     0.65501   0.75005   0.76931   0.00000  Uiso   1.00
C709   C     0.47991   0.54786   0.78758   0.00000  Uiso   1.00
C710   C     0.46206   0.95004   0.71061   0.00000  Uiso   1.00
C711   C     0.48338   0.59383   0.78818   0.00000  Uiso   1.00
C712   C     0.49964   0.83602   0.75031   0.00000  Uiso   1.00
C713   C     0.46541   0.90405   0.71139   0.00000  Uiso   1.00
C714   C     0.49497   0.61576   0.74820   0.00000  Uiso   1.00
C715   C     0.49619   0.88377   0.75012   0.00000  Uiso   1.00
C716   C     0.50170   0.59152   0.70713   0.00000  Uiso   1.00
C717   C     0.52378   0.90929   0.78793   0.00000  Uiso   1.00
C718   C     0.49846   0.54540   0.70667   0.00000  Uiso   1.00
C719   C     0.52059   0.95525   0.78710   0.00000  Uiso   1.00
C720   C     0.48827   0.52365   0.74715   0.00000  Uiso   1.00
C721   C     0.48974   0.97558   0.74846   0.00000  Uiso   1.00
C722   C     0.40010   0.73802   0.60264   0.00000  Uiso   1.00
C723   C     0.45942   0.73504   0.54339   0.00000  Uiso   1.00
C724   C     0.38704   0.69181   0.61954   0.00000  Uiso   1.00
C725   C     0.55011   0.82448   0.89046   0.00000  Uiso   1.00
C726   C     0.60295   0.81879   0.87321   0.00000  Uiso   1.00
C727   C     0.53210   0.77628   0.95519   0.00000  Uiso   1.00
C728   C     0.45556   0.74060   0.59202   0.00000  Uiso   1.00
C729   C     0.52735   0.78140   0.90552   0.00000  Uiso   1.00
C730   C     0.54714   0.75596   0.61065   0.00000  Uiso   1.00
C731   C     0.47599   0.71491   0.89191   0.00000  Uiso   1.00
C732   C     0.55129   0.75228   0.56176   0.00000  Uiso   1.00
H733   H     0.65719   0.74944   0.69450   0.00000  Uiso   1.00
H734   H     0.54305   0.97497   0.81601   0.00000  Uiso   1.00
H735   H     0.42428   0.72791   0.51743   0.00000  Uiso   1.00
H736   H     0.55317   0.80128   0.97939   0.00000  Uiso   1.00
H737   H     0.58226   0.76398   0.63587   0.00000  Uiso   1.00
H738   H     0.45459   0.69011   0.86784   0.00000  Uiso   1.00
H739   H     0.58922   0.75803   0.55113   0.00000  Uiso   1.00
H740   H     0.45789   0.68263   0.95445   0.00000  Uiso   1.00
H741   H     0.38559   0.66689   0.58992   0.00000  Uiso   1.00
H742   H     0.41694   0.68098   0.64950   0.00000  Uiso   1.00
H743   H     0.34787   0.69235   0.63096   0.00000  Uiso   1.00
H744   H     0.34295   0.75038   0.80568   0.00000  Uiso   1.00
H745   H     0.39213   0.76626   0.62573   0.00000  Uiso   1.00
H746   H     0.37095   0.74384   0.56990   0.00000  Uiso   1.00
H747   H     0.61979   0.78526   0.88137   0.00000  Uiso   1.00
H748   H     0.59844   0.82460   0.83453   0.00000  Uiso   1.00
H749   H     0.63195   0.84405   0.89111   0.00000  Uiso   1.00
H750   H     0.52038   0.84201   0.86554   0.00000  Uiso   1.00
H751   H     0.55736   0.84866   0.92112   0.00000  Uiso   1.00
H752   H     0.47138   0.53112   0.81878   0.00000  Uiso   1.00
H753   H     0.43798   0.96568   0.68074   0.00000  Uiso   1.00
H754   H     0.47715   0.61207   0.81995   0.00000  Uiso   1.00
H755   H     0.44375   0.88430   0.68208   0.00000  Uiso   1.00
H756   H     0.51039   0.60804   0.67588   0.00000  Uiso   1.00
H757   H     0.54890   0.89399   0.81721   0.00000  Uiso   1.00
H758   H     0.50544   0.52668   0.67542   0.00000  Uiso   1.00
N759   N     0.50000   0.74999   0.62624   0.00000  Uiso   1.00
N760   N     0.50000   0.75001   0.87377   0.00000  Uiso   1.00
O761   O     0.50000   0.68454   0.78974   0.00000  Uiso   1.00
O762   O     0.50000   0.81546   0.71026   0.00000  Uiso   1.00
O763   O     0.50000   0.68453   0.71026   0.00000  Uiso   1.00
O764   O     0.50000   0.81547   0.78974   0.00000  Uiso   1.00
O765   O     0.42392   0.75000   0.78045   0.00000  Uiso   1.00
O766   O     0.57608   0.75000   0.71956   0.00000  Uiso   1.00
O767   O     0.42392   0.74999   0.70097   0.00000  Uiso   1.00
O768   O     0.57608   0.75001   0.79904   0.00000  Uiso   1.00
Zn769  Zn    0.50000   0.75001   0.80307   0.00000  Uiso   1.00
Zn770  Zn    0.50000   0.75000   0.69693   0.00000  Uiso   1.00
C771   C     0.83240   0.66384   0.74944   0.00000  Uiso   1.00
C772   C     0.81173   0.71035   0.94162   0.00000  Uiso   1.00
C773   C     0.84024   0.74107   0.52722   0.00000  Uiso   1.00
C774   C     0.84072   0.74122   0.97421   0.00000  Uiso   1.00
C775   C     0.73365   0.74994   0.73738   0.00000  Uiso   1.00
C776   C     0.93304   0.74997   0.76264   0.00000  Uiso   1.00
C777   C     0.67839   0.74980   0.73080   0.00000  Uiso   1.00
C778   C     0.98835   0.75005   0.76931   0.00000  Uiso   1.00
C779   C     0.81324   0.54786   0.78758   0.00000  Uiso   1.00
C780   C     0.79539   0.95004   0.71061   0.00000  Uiso   1.00
C781   C     0.81672   0.59383   0.78818   0.00000  Uiso   1.00
C782   C     0.83297   0.83602   0.75031   0.00000  Uiso   1.00
C783   C     0.79874   0.90405   0.71139   0.00000  Uiso   1.00
C784   C     0.82831   0.61576   0.74820   0.00000  Uiso   1.00
C785   C     0.82952   0.88377   0.75012   0.00000  Uiso   1.00
C786   C     0.83504   0.59152   0.70713   0.00000  Uiso   1.00
C787   C     0.85711   0.90929   0.78793   0.00000  Uiso   1.00
C788   C     0.83179   0.54540   0.70667   0.00000  Uiso   1.00
C789   C     0.85392   0.95525   0.78710   0.00000  Uiso   1.00
C790   C     0.82160   0.52365   0.74715   0.00000  Uiso   1.00
C791   C     0.82308   0.97558   0.74846   0.00000  Uiso   1.00
C792   C     0.73343   0.73802   0.60264   0.00000  Uiso   1.00
C793   C     0.79275   0.73504   0.54339   0.00000  Uiso   1.00
C794   C     0.72037   0.69181   0.61954   0.00000  Uiso   1.00
C795   C     0.88344   0.82448   0.89046   0.00000  Uiso   1.00
C796   C     0.93628   0.81879   0.87321   0.00000  Uiso   1.00
C797   C     0.86544   0.77628   0.95519   0.00000  Uiso   1.00
C798   C     0.78890   0.74060   0.59202   0.00000  Uiso   1.00
C799   C     0.86069   0.78140   0.90552   0.00000  Uiso   1.00
C800   C     0.88047   0.75596   0.61065   0.00000  Uiso   1.00
C801   C     0.80932   0.71491   0.89191   0.00000  Uiso   1.00
C802   C     0.88462   0.75228   0.56176   0.00000  Uiso   1.00
H803   H     0.99053   0.74944   0.69450   0.00000  Uiso   1.00
H804   H     0.87638   0.97497   0.81601   0.00000  Uiso   1.00
H805   H     0.75761   0.72791   0.51743   0.00000  Uiso   1.00
H806   H     0.88650   0.80128   0.97939   0.00000  Uiso   1.00
H807   H     0.91559   0.76398   0.63587   0.00000  Uiso   1.00
H808   H     0.78793   0.69011   0.86784   0.00000  Uiso   1.00
H809   H     0.92255   0.75803   0.55113   0.00000  Uiso   1.00
H810   H     0.79122   0.68263   0.95445   0.00000  Uiso   1.00
H811   H     0.71893   0.66689   0.58992   0.00000  Uiso   1.00
H812   H     0.75028   0.68098   0.64950   0.00000  Uiso   1.00
H813   H     0.68120   0.69235   0.63096   0.00000  Uiso   1.00
H814   H     0.67629   0.75038   0.80568   0.00000  Uiso   1.00
H815   H     0.72547   0.76626   0.62573   0.00000  Uiso   1.00
H816   H     0.70429   0.74384   0.56990   0.00000  Uiso   1.00
H817   H     0.95312   0.78526   0.88137   0.00000  Uiso   1.00
H818   H     0.93177   0.82460   0.83453   0.00000  Uiso   1.00
H819   H     0.96528   0.84405   0.89111   0.00000  Uiso   1.00
H820   H     0.85371   0.84201   0.86554   0.00000  Uiso   1.00
H821   H     0.89070   0.84866   0.92112   0.00000  Uiso   1.00
H822   H     0.80472   0.53112   0.81878   0.00000  Uiso   1.00
H823   H     0.77131   0.96568   0.68074   0.00000  Uiso   1.00
H824   H     0.81049   0.61207   0.81995   0.00000  Uiso   1.00
H825   H     0.77708   0.88430   0.68208   0.00000  Uiso   1.00
H826   H     0.84372   0.60804   0.67588   0.00000  Uiso   1.00
H827   H     0.88224   0.89399   0.81721   0.00000  Uiso   1.00
H828   H     0.83877   0.52668   0.67542   0.00000  Uiso   1.00
N829   N     0.83333   0.74999   0.62624   0.00000  Uiso   1.00
N830   N     0.83333   0.75001   0.87377   0.00000  Uiso   1.00
O831   O     0.83334   0.68454   0.78974   0.00000  Uiso   1.00
O832   O     0.83333   0.81546   0.71026   0.00000  Uiso   1.00
O833   O     0.83334   0.68453   0.71026   0.00000  Uiso   1.00
O834   O     0.83333   0.81547   0.78974   0.00000  Uiso   1.00
O835   O     0.75725   0.75000   0.78045   0.00000  Uiso   1.00
O836   O     0.90942   0.75000   0.71956   0.00000  Uiso   1.00
O837   O     0.75725   0.74999   0.70097   0.00000  Uiso   1.00
O838   O     0.90942   0.75001   0.79904   0.00000  Uiso   1.00
Zn839  Zn    0.83333   0.75001   0.80307   0.00000  Uiso   1.00
Zn840  Zn    0.83333   0.75000   0.69693   0.00000  Uiso   1.00
loop_
_geom_bond_atom_site_label_1
_geom_bond_atom_site_label_2
_geom_bond_distance
_geom_bond_site_symmetry_2
_ccdc_geom_bond_type
C1     O63     1.293   .     A
C1     C14     1.442   .     S
C1     O61     1.290   .     A
C2     C4      1.411   .     A
C2     C31     1.418   .     A
C2     H40     1.083   .     S
C3     C23     1.388   .     A
C3     C32     1.410   .     A
C3     C424    1.514   1_554 S
C4     C27     1.389   .     A
C4     C423    1.514   .     S
C5     O67     1.288   .     A
C5     O65     1.275   .     A
C5     C7      1.402   .     S
C6     O68     1.288   .     A
C6     O66     1.276   .     A
C6     C8      1.403   .     S
C7     C148    1.337   1_455 S
C7     H173    1.086   1_455 S
C8     C77     1.337   .     S
C8     H114    1.088   .     S
C9     C20     1.396   .     A
C9     H52     1.084   .     S
C9     C11     1.379   .     A
C10    C21     1.397   .     A
C10    C13     1.382   .     A
C10    H53     1.084   .     S
C11    H54     1.083   .     S
C11    C14     1.401   .     A
C12    C15     1.434   .     S
C12    O64     1.292   .     A
C12    O62     1.287   .     A
C13    C15     1.400   .     A
C13    H55     1.084   .     S
C14    C16     1.400   .     A
C15    C17     1.395   .     A
C16    H56     1.083   .     S
C16    C18     1.383   .     A
C17    C19     1.380   .     A
C17    H57     1.080   .     S
C18    C20     1.399   .     A
C18    H58     1.083   .     S
C19    C21     1.400   .     A
C19    H34     1.084   .     S
C20    C231    1.442   1_545 S
C21    C230    1.442   .     S
C22    C28     1.509   .     S
C22    C24     1.528   .     S
C22    H46     1.113   .     S
C22    H45     1.102   .     S
C23    C28     1.413   .     A
C23    H35     1.084   .     S
C24    H42     1.106   .     S
C24    H41     1.111   .     S
C24    H43     1.110   .     S
C25    H51     1.113   .     S
C25    C29     1.512   .     S
C25    H50     1.098   .     S
C25    C26     1.531   .     S
C26    H48     1.107   .     S
C26    H49     1.111   .     S
C26    H47     1.111   .     S
C27    H36     1.084   .     S
C27    C29     1.413   .     A
C28    N59     1.395   .     A
C29    N60     1.391   .     A
C30    N59     1.371   .     A
C30    C32     1.418   .     A
C30    H37     1.078   .     S
C31    N60     1.369   .     A
C31    H38     1.081   .     S
C32    H39     1.083   .     S
H33    C77     1.086   .     S
H44    C148    1.088   1_455 S
N59    Zn70    2.016   .     S
N60    Zn69    2.016   .     S
O61    Zn69    1.989   .     S
O62    Zn70    1.989   .     S
O63    Zn70    2.006   .     S
O64    Zn69    2.006   .     S
O65    Zn69    1.955   .     S
O66    Zn70    1.955   .     S
O67    Zn70    1.980   .     S
O68    Zn69    1.980   .     S
C71    O133    1.293   .     A
C71    C84     1.442   .     S
C71    O131    1.290   .     A
C72    C74     1.411   .     A
C72    C101    1.418   .     A
C72    H110    1.083   .     S
C73    C93     1.388   .     A
C73    C102    1.410   .     A
C73    C494    1.514   1_554 S
C74    C97     1.389   .     A
C74    C493    1.514   .     S
C75    O137    1.288   .     A
C75    O135    1.275   .     A
C75    C77     1.402   .     S
C76    O138    1.288   .     A
C76    O136    1.276   .     A
C76    C78     1.403   .     S
C78    C147    1.337   .     S
C78    H184    1.088   .     S
C79    C90     1.396   .     A
C79    H122    1.084   .     S
C79    C81     1.379   .     A
C80    C91     1.397   .     A
C80    C83     1.382   .     A
C80    H123    1.084   .     S
C81    H124    1.083   .     S
C81    C84     1.401   .     A
C82    C85     1.434   .     S
C82    O134    1.292   .     A
C82    O132    1.287   .     A
C83    C85     1.400   .     A
C83    H125    1.084   .     S
C84    C86     1.400   .     A
C85    C87     1.395   .     A
C86    H126    1.083   .     S
C86    C88     1.383   .     A
C87    C89     1.380   .     A
C87    H127    1.080   .     S
C88    C90     1.399   .     A
C88    H128    1.083   .     S
C89    C91     1.400   .     A
C89    H104    1.084   .     S
C90    C301    1.442   1_545 S
C91    C300    1.442   .     S
C92    C98     1.509   .     S
C92    C94     1.528   .     S
C92    H116    1.113   .     S
C92    H115    1.102   .     S
C93    C98     1.413   .     A
C93    H105    1.084   .     S
C94    H112    1.106   .     S
C94    H111    1.111   .     S
C94    H113    1.110   .     S
C95    H121    1.113   .     S
C95    C99     1.512   .     S
C95    H120    1.098   .     S
C95    C96     1.531   .     S
C96    H118    1.107   .     S
C96    H119    1.111   .     S
C96    H117    1.111   .     S
C97    H106    1.084   .     S
C97    C99     1.413   .     A
C98    N129    1.395   .     A
C99    N130    1.391   .     A
C100   N129    1.371   .     A
C100   C102    1.418   .     A
C100   H107    1.078   .     S
C101   N130    1.369   .     A
C101   H108    1.081   .     S
C102   H109    1.083   .     S
H103   C147    1.086   .     S
N129   Zn140   2.016   .     S
N130   Zn139   2.016   .     S
O131   Zn139   1.989   .     S
O132   Zn140   1.989   .     S
O133   Zn140   2.006   .     S
O134   Zn139   2.006   .     S
O135   Zn139   1.955   .     S
O136   Zn140   1.955   .     S
O137   Zn140   1.980   .     S
O138   Zn139   1.980   .     S
C141   O203    1.293   .     A
C141   C154    1.442   .     S
C141   O201    1.290   .     A
C142   C144    1.411   .     A
C142   C171    1.418   .     A
C142   H180    1.083   .     S
C143   C163    1.388   .     A
C143   C172    1.410   .     A
C143   C564    1.514   1_554 S
C144   C167    1.389   .     A
C144   C563    1.514   .     S
C145   O207    1.288   .     A
C145   O205    1.275   .     A
C145   C147    1.402   .     S
C146   O208    1.288   .     A
C146   O206    1.276   .     A
C146   C148    1.403   .     S
C148   C7      1.337   1_655 S
C148   H44     1.088   1_655 S
C149   C160    1.396   .     A
C149   H192    1.084   .     S
C149   C151    1.379   .     A
C150   C161    1.397   .     A
C150   C153    1.382   .     A
C150   H193    1.084   .     S
C151   H194    1.083   .     S
C151   C154    1.401   .     A
C152   C155    1.434   .     S
C152   O204    1.292   .     A
C152   O202    1.287   .     A
C153   C155    1.400   .     A
C153   H195    1.084   .     S
C154   C156    1.400   .     A
C155   C157    1.395   .     A
C156   H196    1.083   .     S
C156   C158    1.383   .     A
C157   C159    1.380   .     A
C157   H197    1.080   .     S
C158   C160    1.399   .     A
C158   H198    1.083   .     S
C159   C161    1.400   .     A
C159   H174    1.084   .     S
C160   C371    1.442   1_545 S
C161   C370    1.442   .     S
C162   C168    1.509   .     S
C162   C164    1.528   .     S
C162   H186    1.113   .     S
C162   H185    1.102   .     S
C163   C168    1.413   .     A
C163   H175    1.084   .     S
C164   H182    1.106   .     S
C164   H181    1.111   .     S
C164   H183    1.110   .     S
C165   H191    1.113   .     S
C165   C169    1.512   .     S
C165   H190    1.098   .     S
C165   C166    1.531   .     S
C166   H188    1.107   .     S
C166   H189    1.111   .     S
C166   H187    1.111   .     S
C167   H176    1.084   .     S
C167   C169    1.413   .     A
C168   N199    1.395   .     A
C169   N200    1.391   .     A
C170   N199    1.371   .     A
C170   C172    1.418   .     A
C170   H177    1.078   .     S
C171   N200    1.369   .     A
C171   H178    1.081   .     S
C172   H179    1.083   .     S
H173   C7      1.086   1_655 S
N199   Zn210   2.016   .     S
N200   Zn209   2.016   .     S
O201   Zn209   1.989   .     S
O202   Zn210   1.989   .     S
O203   Zn210   2.006   .     S
O204   Zn209   2.006   .     S
O205   Zn209   1.955   .     S
O206   Zn210   1.955   .     S
O207   Zn210   1.980   .     S
O208   Zn209   1.980   .     S
C211   O273    1.293   .     A
C211   C224    1.442   .     S
C211   O271    1.290   .     A
C212   C214    1.411   .     A
C212   C241    1.418   .     A
C212   H250    1.083   .     S
C213   C233    1.388   .     A
C213   C242    1.410   .     A
C213   C634    1.514   1_554 S
C214   C237    1.389   .     A
C214   C633    1.514   .     S
C215   O277    1.288   .     A
C215   O275    1.275   .     A
C215   C217    1.402   .     S
C216   O278    1.288   .     A
C216   O276    1.276   .     A
C216   C218    1.403   .     S
C217   C358    1.337   1_455 S
C217   H383    1.086   1_455 S
C218   C287    1.337   .     S
C218   H324    1.088   .     S
C219   C230    1.396   .     A
C219   H262    1.084   .     S
C219   C221    1.379   .     A
C220   C231    1.397   .     A
C220   C223    1.382   .     A
C220   H263    1.084   .     S
C221   H264    1.083   .     S
C221   C224    1.401   .     A
C222   C225    1.434   .     S
C222   O274    1.292   .     A
C222   O272    1.287   .     A
C223   C225    1.400   .     A
C223   H265    1.084   .     S
C224   C226    1.400   .     A
C225   C227    1.395   .     A
C226   H266    1.083   .     S
C226   C228    1.383   .     A
C227   C229    1.380   .     A
C227   H267    1.080   .     S
C228   C230    1.399   .     A
C228   H268    1.083   .     S
C229   C231    1.400   .     A
C229   H244    1.084   .     S
C231   C20     1.442   1_565 S
C232   C238    1.509   .     S
C232   C234    1.528   .     S
C232   H256    1.113   .     S
C232   H255    1.102   .     S
C233   C238    1.413   .     A
C233   H245    1.084   .     S
C234   H252    1.106   .     S
C234   H251    1.111   .     S
C234   H253    1.110   .     S
C235   H261    1.113   .     S
C235   C239    1.512   .     S
C235   H260    1.098   .     S
C235   C236    1.531   .     S
C236   H258    1.107   .     S
C236   H259    1.111   .     S
C236   H257    1.111   .     S
C237   H246    1.084   .     S
C237   C239    1.413   .     A
C238   N269    1.395   .     A
C239   N270    1.391   .     A
C240   N269    1.371   .     A
C240   C242    1.418   .     A
C240   H247    1.078   .     S
C241   N270    1.369   .     A
C241   H248    1.081   .     S
C242   H249    1.083   .     S
H243   C287    1.086   .     S
H254   C358    1.088   1_455 S
N269   Zn280   2.016   .     S
N270   Zn279   2.016   .     S
O271   Zn279   1.989   .     S
O272   Zn280   1.989   .     S
O273   Zn280   2.006   .     S
O274   Zn279   2.006   .     S
O275   Zn279   1.955   .     S
O276   Zn280   1.955   .     S
O277   Zn280   1.980   .     S
O278   Zn279   1.980   .     S
C281   O343    1.293   .     A
C281   C294    1.442   .     S
C281   O341    1.290   .     A
C282   C284    1.411   .     A
C282   C311    1.418   .     A
C282   H320    1.083   .     S
C283   C303    1.388   .     A
C283   C312    1.410   .     A
C283   C704    1.514   1_554 S
C284   C307    1.389   .     A
C284   C703    1.514   .     S
C285   O347    1.288   .     A
C285   O345    1.275   .     A
C285   C287    1.402   .     S
C286   O348    1.288   .     A
C286   O346    1.276   .     A
C286   C288    1.403   .     S
C288   C357    1.337   .     S
C288   H394    1.088   .     S
C289   C300    1.396   .     A
C289   H332    1.084   .     S
C289   C291    1.379   .     A
C290   C301    1.397   .     A
C290   C293    1.382   .     A
C290   H333    1.084   .     S
C291   H334    1.083   .     S
C291   C294    1.401   .     A
C292   C295    1.434   .     S
C292   O344    1.292   .     A
C292   O342    1.287   .     A
C293   C295    1.400   .     A
C293   H335    1.084   .     S
C294   C296    1.400   .     A
C295   C297    1.395   .     A
C296   H336    1.083   .     S
C296   C298    1.383   .     A
C297   C299    1.380   .     A
C297   H337    1.080   .     S
C298   C300    1.399   .     A
C298   H338    1.083   .     S
C299   C301    1.400   .     A
C299   H314    1.084   .     S
C301   C90     1.442   1_565 S
C302   C308    1.509   .     S
C302   C304    1.528   .     S
C302   H326    1.113   .     S
C302   H325    1.102   .     S
C303   C308    1.413   .     A
C303   H315    1.084   .     S
C304   H322    1.106   .     S
C304   H321    1.111   .     S
C304   H323    1.110   .     S
C305   H331    1.113   .     S
C305   C309    1.512   .     S
C305   H330    1.098   .     S
C305   C306    1.531   .     S
C306   H328    1.107   .     S
C306   H329    1.111   .     S
C306   H327    1.111   .     S
C307   H316    1.084   .     S
C307   C309    1.413   .     A
C308   N339    1.395   .     A
C309   N340    1.391   .     A
C310   N339    1.371   .     A
C310   C312    1.418   .     A
C310   H317    1.078   .     S
C311   N340    1.369   .     A
C311   H318    1.081   .     S
C312   H319    1.083   .     S
H313   C357    1.086   .     S
N339   Zn350   2.016   .     S
N340   Zn349   2.016   .     S
O341   Zn349   1.989   .     S
O342   Zn350   1.989   .     S
O343   Zn350   2.006   .     S
O344   Zn349   2.006   .     S
O345   Zn349   1.955   .     S
O346   Zn350   1.955   .     S
O347   Zn350   1.980   .     S
O348   Zn349   1.980   .     S
C351   O413    1.293   .     A
C351   C364    1.442   .     S
C351   O411    1.290   .     A
C352   C354    1.411   .     A
C352   C381    1.418   .     A
C352   H390    1.083   .     S
C353   C373    1.388   .     A
C353   C382    1.410   .     A
C353   C774    1.514   1_554 S
C354   C377    1.389   .     A
C354   C773    1.514   .     S
C355   O417    1.288   .     A
C355   O415    1.275   .     A
C355   C357    1.402   .     S
C356   O418    1.288   .     A
C356   O416    1.276   .     A
C356   C358    1.403   .     S
C358   C217    1.337   1_655 S
C358   H254    1.088   1_655 S
C359   C370    1.396   .     A
C359   H402    1.084   .     S
C359   C361    1.379   .     A
C360   C371    1.397   .     A
C360   C363    1.382   .     A
C360   H403    1.084   .     S
C361   H404    1.083   .     S
C361   C364    1.401   .     A
C362   C365    1.434   .     S
C362   O414    1.292   .     A
C362   O412    1.287   .     A
C363   C365    1.400   .     A
C363   H405    1.084   .     S
C364   C366    1.400   .     A
C365   C367    1.395   .     A
C366   H406    1.083   .     S
C366   C368    1.383   .     A
C367   C369    1.380   .     A
C367   H407    1.080   .     S
C368   C370    1.399   .     A
C368   H408    1.083   .     S
C369   C371    1.400   .     A
C369   H384    1.084   .     S
C371   C160    1.442   1_565 S
C372   C378    1.509   .     S
C372   C374    1.528   .     S
C372   H396    1.113   .     S
C372   H395    1.102   .     S
C373   C378    1.413   .     A
C373   H385    1.084   .     S
C374   H392    1.106   .     S
C374   H391    1.111   .     S
C374   H393    1.110   .     S
C375   H401    1.113   .     S
C375   C379    1.512   .     S
C375   H400    1.098   .     S
C375   C376    1.531   .     S
C376   H398    1.107   .     S
C376   H399    1.111   .     S
C376   H397    1.111   .     S
C377   H386    1.084   .     S
C377   C379    1.413   .     A
C378   N409    1.395   .     A
C379   N410    1.391   .     A
C380   N409    1.371   .     A
C380   C382    1.418   .     A
C380   H387    1.078   .     S
C381   N410    1.369   .     A
C381   H388    1.081   .     S
C382   H389    1.083   .     S
H383   C217    1.086   1_655 S
N409   Zn420   2.016   .     S
N410   Zn419   2.016   .     S
O411   Zn419   1.989   .     S
O412   Zn420   1.989   .     S
O413   Zn420   2.006   .     S
O414   Zn419   2.006   .     S
O415   Zn419   1.955   .     S
O416   Zn420   1.955   .     S
O417   Zn420   1.980   .     S
O418   Zn419   1.980   .     S
C421   O483    1.293   .     A
C421   C434    1.442   .     S
C421   O481    1.290   .     A
C422   C424    1.411   .     A
C422   C451    1.418   .     A
C422   H460    1.083   .     S
C423   C443    1.388   .     A
C423   C452    1.410   .     A
C424   C447    1.389   .     A
C424   C3      1.514   1_556 S
C425   O487    1.288   .     A
C425   O485    1.275   .     A
C425   C427    1.402   .     S
C426   O488    1.288   .     A
C426   O486    1.276   .     A
C426   C428    1.403   .     S
C427   C568    1.337   1_455 S
C427   H593    1.086   1_455 S
C428   C497    1.337   .     S
C428   H534    1.088   .     S
C429   C440    1.396   .     A
C429   H472    1.084   .     S
C429   C431    1.379   .     A
C430   C441    1.397   .     A
C430   C433    1.382   .     A
C430   H473    1.084   .     S
C431   H474    1.083   .     S
C431   C434    1.401   .     A
C432   C435    1.434   .     S
C432   O484    1.292   .     A
C432   O482    1.287   .     A
C433   C435    1.400   .     A
C433   H475    1.084   .     S
C434   C436    1.400   .     A
C435   C437    1.395   .     A
C436   H476    1.083   .     S
C436   C438    1.383   .     A
C437   C439    1.380   .     A
C437   H477    1.080   .     S
C438   C440    1.399   .     A
C438   H478    1.083   .     S
C439   C441    1.400   .     A
C439   H454    1.084   .     S
C440   C651    1.442   1_545 S
C441   C650    1.442   .     S
C442   C448    1.509   .     S
C442   C444    1.528   .     S
C442   H466    1.113   .     S
C442   H465    1.102   .     S
C443   C448    1.413   .     A
C443   H455    1.084   .     S
C444   H462    1.106   .     S
C444   H461    1.111   .     S
C444   H463    1.110   .     S
C445   H471    1.113   .     S
C445   C449    1.512   .     S
C445   H470    1.098   .     S
C445   C446    1.531   .     S
C446   H468    1.107   .     S
C446   H469    1.111   .     S
C446   H467    1.111   .     S
C447   H456    1.084   .     S
C447   C449    1.413   .     A
C448   N479    1.395   .     A
C449   N480    1.391   .     A
C450   N479    1.371   .     A
C450   C452    1.418   .     A
C450   H457    1.078   .     S
C451   N480    1.369   .     A
C451   H458    1.081   .     S
C452   H459    1.083   .     S
H453   C497    1.086   .     S
H464   C568    1.088   1_455 S
N479   Zn490   2.016   .     S
N480   Zn489   2.016   .     S
O481   Zn489   1.989   .     S
O482   Zn490   1.989   .     S
O483   Zn490   2.006   .     S
O484   Zn489   2.006   .     S
O485   Zn489   1.955   .     S
O486   Zn490   1.955   .     S
O487   Zn490   1.980   .     S
O488   Zn489   1.980   .     S
C491   O553    1.293   .     A
C491   C504    1.442   .     S
C491   O551    1.290   .     A
C492   C494    1.411   .     A
C492   C521    1.418   .     A
C492   H530    1.083   .     S
C493   C513    1.388   .     A
C493   C522    1.410   .     A
C494   C517    1.389   .     A
C494   C73     1.514   1_556 S
C495   O557    1.288   .     A
C495   O555    1.275   .     A
C495   C497    1.402   .     S
C496   O558    1.288   .     A
C496   O556    1.276   .     A
C496   C498    1.403   .     S
C498   C567    1.337   .     S
C498   H604    1.088   .     S
C499   C510    1.396   .     A
C499   H542    1.084   .     S
C499   C501    1.379   .     A
C500   C511    1.397   .     A
C500   C503    1.382   .     A
C500   H543    1.084   .     S
C501   H544    1.083   .     S
C501   C504    1.401   .     A
C502   C505    1.434   .     S
C502   O554    1.292   .     A
C502   O552    1.287   .     A
C503   C505    1.400   .     A
C503   H545    1.084   .     S
C504   C506    1.400   .     A
C505   C507    1.395   .     A
C506   H546    1.083   .     S
C506   C508    1.383   .     A
C507   C509    1.380   .     A
C507   H547    1.080   .     S
C508   C510    1.399   .     A
C508   H548    1.083   .     S
C509   C511    1.400   .     A
C509   H524    1.084   .     S
C510   C721    1.442   1_545 S
C511   C720    1.442   .     S
C512   C518    1.509   .     S
C512   C514    1.528   .     S
C512   H536    1.113   .     S
C512   H535    1.102   .     S
C513   C518    1.413   .     A
C513   H525    1.084   .     S
C514   H532    1.106   .     S
C514   H531    1.111   .     S
C514   H533    1.110   .     S
C515   H541    1.113   .     S
C515   C519    1.512   .     S
C515   H540    1.098   .     S
C515   C516    1.531   .     S
C516   H538    1.107   .     S
C516   H539    1.111   .     S
C516   H537    1.111   .     S
C517   H526    1.084   .     S
C517   C519    1.413   .     A
C518   N549    1.395   .     A
C519   N550    1.391   .     A
C520   N549    1.371   .     A
C520   C522    1.418   .     A
C520   H527    1.078   .     S
C521   N550    1.369   .     A
C521   H528    1.081   .     S
C522   H529    1.083   .     S
H523   C567    1.086   .     S
N549   Zn560   2.016   .     S
N550   Zn559   2.016   .     S
O551   Zn559   1.989   .     S
O552   Zn560   1.989   .     S
O553   Zn560   2.006   .     S
O554   Zn559   2.006   .     S
O555   Zn559   1.955   .     S
O556   Zn560   1.955   .     S
O557   Zn560   1.980   .     S
O558   Zn559   1.980   .     S
C561   O623    1.293   .     A
C561   C574    1.442   .     S
C561   O621    1.290   .     A
C562   C564    1.411   .     A
C562   C591    1.418   .     A
C562   H600    1.083   .     S
C563   C583    1.388   .     A
C563   C592    1.410   .     A
C564   C587    1.389   .     A
C564   C143    1.514   1_556 S
C565   O627    1.288   .     A
C565   O625    1.275   .     A
C565   C567    1.402   .     S
C566   O628    1.288   .     A
C566   O626    1.276   .     A
C566   C568    1.403   .     S
C568   C427    1.337   1_655 S
C568   H464    1.088   1_655 S
C569   C580    1.396   .     A
C569   H612    1.084   .     S
C569   C571    1.379   .     A
C570   C581    1.397   .     A
C570   C573    1.382   .     A
C570   H613    1.084   .     S
C571   H614    1.083   .     S
C571   C574    1.401   .     A
C572   C575    1.434   .     S
C572   O624    1.292   .     A
C572   O622    1.287   .     A
C573   C575    1.400   .     A
C573   H615    1.084   .     S
C574   C576    1.400   .     A
C575   C577    1.395   .     A
C576   H616    1.083   .     S
C576   C578    1.383   .     A
C577   C579    1.380   .     A
C577   H617    1.080   .     S
C578   C580    1.399   .     A
C578   H618    1.083   .     S
C579   C581    1.400   .     A
C579   H594    1.084   .     S
C580   C791    1.442   1_545 S
C581   C790    1.442   .     S
C582   C588    1.509   .     S
C582   C584    1.528   .     S
C582   H606    1.113   .     S
C582   H605    1.102   .     S
C583   C588    1.413   .     A
C583   H595    1.084   .     S
C584   H602    1.106   .     S
C584   H601    1.111   .     S
C584   H603    1.110   .     S
C585   H611    1.113   .     S
C585   C589    1.512   .     S
C585   H610    1.098   .     S
C585   C586    1.531   .     S
C586   H608    1.107   .     S
C586   H609    1.111   .     S
C586   H607    1.111   .     S
C587   H596    1.084   .     S
C587   C589    1.413   .     A
C588   N619    1.395   .     A
C589   N620    1.391   .     A
C590   N619    1.371   .     A
C590   C592    1.418   .     A
C590   H597    1.078   .     S
C591   N620    1.369   .     A
C591   H598    1.081   .     S
C592   H599    1.083   .     S
H593   C427    1.086   1_655 S
N619   Zn630   2.016   .     S
N620   Zn629   2.016   .     S
O621   Zn629   1.989   .     S
O622   Zn630   1.989   .     S
O623   Zn630   2.006   .     S
O624   Zn629   2.006   .     S
O625   Zn629   1.955   .     S
O626   Zn630   1.955   .     S
O627   Zn630   1.980   .     S
O628   Zn629   1.980   .     S
C631   O693    1.293   .     A
C631   C644    1.442   .     S
C631   O691    1.290   .     A
C632   C634    1.411   .     A
C632   C661    1.418   .     A
C632   H670    1.083   .     S
C633   C653    1.388   .     A
C633   C662    1.410   .     A
C634   C657    1.389   .     A
C634   C213    1.514   1_556 S
C635   O697    1.288   .     A
C635   O695    1.275   .     A
C635   C637    1.402   .     S
C636   O698    1.288   .     A
C636   O696    1.276   .     A
C636   C638    1.403   .     S
C637   C778    1.337   1_455 S
C637   H803    1.086   1_455 S
C638   C707    1.337   .     S
C638   H744    1.088   .     S
C639   C650    1.396   .     A
C639   H682    1.084   .     S
C639   C641    1.379   .     A
C640   C651    1.397   .     A
C640   C643    1.382   .     A
C640   H683    1.084   .     S
C641   H684    1.083   .     S
C641   C644    1.401   .     A
C642   C645    1.434   .     S
C642   O694    1.292   .     A
C642   O692    1.287   .     A
C643   C645    1.400   .     A
C643   H685    1.084   .     S
C644   C646    1.400   .     A
C645   C647    1.395   .     A
C646   H686    1.083   .     S
C646   C648    1.383   .     A
C647   C649    1.380   .     A
C647   H687    1.080   .     S
C648   C650    1.399   .     A
C648   H688    1.083   .     S
C649   C651    1.400   .     A
C649   H664    1.084   .     S
C651   C440    1.442   1_565 S
C652   C658    1.509   .     S
C652   C654    1.528   .     S
C652   H676    1.113   .     S
C652   H675    1.102   .     S
C653   C658    1.413   .     A
C653   H665    1.084   .     S
C654   H672    1.106   .     S
C654   H671    1.111   .     S
C654   H673    1.110   .     S
C655   H681    1.113   .     S
C655   C659    1.512   .     S
C655   H680    1.098   .     S
C655   C656    1.531   .     S
C656   H678    1.107   .     S
C656   H679    1.111   .     S
C656   H677    1.111   .     S
C657   H666    1.084   .     S
C657   C659    1.413   .     A
C658   N689    1.395   .     A
C659   N690    1.391   .     A
C660   N689    1.371   .     A
C660   C662    1.418   .     A
C660   H667    1.078   .     S
C661   N690    1.369   .     A
C661   H668    1.081   .     S
C662   H669    1.083   .     S
H663   C707    1.086   .     S
H674   C778    1.088   1_455 S
N689   Zn700   2.016   .     S
N690   Zn699   2.016   .     S
O691   Zn699   1.989   .     S
O692   Zn700   1.989   .     S
O693   Zn700   2.006   .     S
O694   Zn699   2.006   .     S
O695   Zn699   1.955   .     S
O696   Zn700   1.955   .     S
O697   Zn700   1.980   .     S
O698   Zn699   1.980   .     S
C701   O763    1.293   .     A
C701   C714    1.442   .     S
C701   O761    1.290   .     A
C702   C704    1.411   .     A
C702   C731    1.418   .     A
C702   H740    1.083   .     S
C703   C723    1.388   .     A
C703   C732    1.410   .     A
C704   C727    1.389   .     A
C704   C283    1.514   1_556 S
C705   O767    1.288   .     A
C705   O765    1.275   .     A
C705   C707    1.402   .     S
C706   O768    1.288   .     A
C706   O766    1.276   .     A
C706   C708    1.403   .     S
C708   C777    1.337   .     S
C708   H814    1.088   .     S
C709   C720    1.396   .     A
C709   H752    1.084   .     S
C709   C711    1.379   .     A
C710   C721    1.397   .     A
C710   C713    1.382   .     A
C710   H753    1.084   .     S
C711   H754    1.083   .     S
C711   C714    1.401   .     A
C712   C715    1.434   .     S
C712   O764    1.292   .     A
C712   O762    1.287   .     A
C713   C715    1.400   .     A
C713   H755    1.084   .     S
C714   C716    1.400   .     A
C715   C717    1.395   .     A
C716   H756    1.083   .     S
C716   C718    1.383   .     A
C717   C719    1.380   .     A
C717   H757    1.080   .     S
C718   C720    1.399   .     A
C718   H758    1.083   .     S
C719   C721    1.400   .     A
C719   H734    1.084   .     S
C721   C510    1.442   1_565 S
C722   C728    1.509   .     S
C722   C724    1.528   .     S
C722   H746    1.113   .     S
C722   H745    1.102   .     S
C723   C728    1.413   .     A
C723   H735    1.084   .     S
C724   H742    1.106   .     S
C724   H741    1.111   .     S
C724   H743    1.110   .     S
C725   H751    1.113   .     S
C725   C729    1.512   .     S
C725   H750    1.098   .     S
C725   C726    1.531   .     S
C726   H748    1.107   .     S
C726   H749    1.111   .     S
C726   H747    1.111   .     S
C727   H736    1.084   .     S
C727   C729    1.413   .     A
C728   N759    1.395   .     A
C729   N760    1.391   .     A
C730   N759    1.371   .     A
C730   C732    1.418   .     A
C730   H737    1.078   .     S
C731   N760    1.369   .     A
C731   H738    1.081   .     S
C732   H739    1.083   .     S
H733   C777    1.086   .     S
N759   Zn770   2.016   .     S
N760   Zn769   2.016   .     S
O761   Zn769   1.989   .     S
O762   Zn770   1.989   .     S
O763   Zn770   2.006   .     S
O764   Zn769   2.006   .     S
O765   Zn769   1.955   .     S
O766   Zn770   1.955   .     S
O767   Zn770   1.980   .     S
O768   Zn769   1.980   .     S
C771   O833    1.293   .     A
C771   C784    1.442   .     S
C771   O831    1.290   .     A
C772   C774    1.411   .     A
C772   C801    1.418   .     A
C772   H810    1.083   .     S
C773   C793    1.388   .     A
C773   C802    1.410   .     A
C774   C797    1.389   .     A
C774   C353    1.514   1_556 S
C775   O837    1.288   .     A
C775   O835    1.275   .     A
C775   C777    1.402   .     S
C776   O838    1.288   .     A
C776   O836    1.276   .     A
C776   C778    1.403   .     S
C778   C637    1.337   1_655 S
C778   H674    1.088   1_655 S
C779   C790    1.396   .     A
C779   H822    1.084   .     S
C779   C781    1.379   .     A
C780   C791    1.397   .     A
C780   C783    1.382   .     A
C780   H823    1.084   .     S
C781   H824    1.083   .     S
C781   C784    1.401   .     A
C782   C785    1.434   .     S
C782   O834    1.292   .     A
C782   O832    1.287   .     A
C783   C785    1.400   .     A
C783   H825    1.084   .     S
C784   C786    1.400   .     A
C785   C787    1.395   .     A
C786   H826    1.083   .     S
C786   C788    1.383   .     A
C787   C789    1.380   .     A
C787   H827    1.080   .     S
C788   C790    1.399   .     A
C788   H828    1.083   .     S
C789   C791    1.400   .     A
C789   H804    1.084   .     S
C791   C580    1.442   1_565 S
C792   C798    1.509   .     S
C792   C794    1.528   .     S
C792   H816    1.113   .     S
C792   H815    1.102   .     S
C793   C798    1.413   .     A
C793   H805    1.084   .     S
C794   H812    1.106   .     S
C794   H811    1.111   .     S
C794   H813    1.110   .     S
C795   H821    1.113   .     S
C795   C799    1.512   .     S
C795   H820    1.098   .     S
C795   C796    1.531   .     S
C796   H818    1.107   .     S
C796   H819    1.111   .     S
C796   H817    1.111   .     S
C797   H806    1.084   .     S
C797   C799    1.413   .     A
C798   N829    1.395   .     A
C799   N830    1.391   .     A
C800   N829    1.371   .     A
C800   C802    1.418   .     A
C800   H807    1.078   .     S
C801   N830    1.369   .     A
C801   H808    1.081   .     S
C802   H809    1.083   .     S
H803   C637    1.086   1_655 S
N829   Zn840   2.016   .     S
N830   Zn839   2.016   .     S
O831   Zn839   1.989   .     S
O832   Zn840   1.989   .     S
O833   Zn840   2.006   .     S
O834   Zn839   2.006   .     S
O835   Zn839   1.955   .     S
O836   Zn840   1.955   .     S
O837   Zn840   1.980   .     S
O838   Zn839   1.980   .     S
