data_str_m3_o1_o17_pcu_sym.85
_audit_creation_date              2020-01-03
_audit_creation_method            'Materials Studio'
_symmetry_space_group_name_H-M    'P1'
_symmetry_Int_Tables_number       1
_symmetry_cell_setting            triclinic
loop_
_symmetry_equiv_pos_as_xyz
  x,y,z
_cell_length_a                    32.3634
_cell_length_b                    29.7564
_cell_length_c                    29.8314
_cell_angle_alpha                 89.7393
_cell_angle_beta                  91.1751
_cell_angle_gamma                 90.0718
loop_
_atom_site_label
_atom_site_type_symbol
_atom_site_fract_x
_atom_site_fract_y
_atom_site_fract_z
_atom_site_U_iso_or_equiv
_atom_site_adp_type
_atom_site_occupancy
O1     O     0.10559   0.20487   0.24999   0.00000  Uiso   1.00
O2     O     0.22774   0.12846   0.25001   0.00000  Uiso   1.00
O3     O     0.22774   0.20487   0.25000   0.00000  Uiso   1.00
O4     O     0.10559   0.12846   0.24999   0.00000  Uiso   1.00
C5     C     0.08671   0.16665   0.25056   0.00000  Uiso   1.00
C6     C     0.24663   0.16669   0.24944   0.00000  Uiso   1.00
O7     O     0.16666   0.20489   0.18392   0.00000  Uiso   1.00
O8     O     0.16667   0.12844   0.31607   0.00000  Uiso   1.00
O9     O     0.16667   0.20489   0.31607   0.00000  Uiso   1.00
O10    O     0.16666   0.12844   0.18392   0.00000  Uiso   1.00
C11    C     0.16647   0.16671   0.16362   0.00000  Uiso   1.00
C12    C     0.16686   0.16662   0.33638   0.00000  Uiso   1.00
Zn13   Zn    0.16667   0.21771   0.25000   0.00000  Uiso   1.00
Zn14   Zn    0.16667   0.11563   0.25000   0.00000  Uiso   1.00
C15    C     0.19980   0.14699   0.40744   0.00000  Uiso   1.00
C16    C     0.13353   0.18635   0.09256   0.00000  Uiso   1.00
C17    C     0.16687   0.16669   0.38405   0.00000  Uiso   1.00
C18    C     0.16646   0.16664   0.11595   0.00000  Uiso   1.00
C19    C     0.13420   0.18709   0.40566   0.00000  Uiso   1.00
C20    C     0.19913   0.14624   0.09434   0.00000  Uiso   1.00
C21    C     0.13369   0.18725   0.45225   0.00000  Uiso   1.00
C22    C     0.19964   0.14608   0.04775   0.00000  Uiso   1.00
C23    C     0.16675   0.16676   0.47658   0.00000  Uiso   1.00
C24    C     0.16659   0.16658   0.02342   0.00000  Uiso   1.00
C25    C     0.20000   0.14652   0.45404   0.00000  Uiso   1.00
C26    C     0.13333   0.18681   0.04595   0.00000  Uiso   1.00
C27    C     0.10094   0.20722   0.47498   0.00000  Uiso   1.00
C28    C     0.23240   0.12612   0.02502   0.00000  Uiso   1.00
C29    C     0.10073   0.20695   0.02147   0.00000  Uiso   1.00
C30    C     0.23260   0.12638   0.47853   0.00000  Uiso   1.00
C31    C     0.02108   0.12564   0.25044   0.00000  Uiso   1.00
C32    C     0.31226   0.20770   0.24956   0.00000  Uiso   1.00
C33    C     0.31214   0.12567   0.24875   0.00000  Uiso   1.00
C34    C     0.02120   0.20766   0.25125   0.00000  Uiso   1.00
C35    C     0.29081   0.16670   0.24894   0.00000  Uiso   1.00
C36    C     0.04252   0.16664   0.25106   0.00000  Uiso   1.00
C37    C     0.18408   0.02377   0.28498   0.00000  Uiso   1.00
C38    C     0.14925   0.30957   0.21502   0.00000  Uiso   1.00
C39    C     0.14928   0.02406   0.21498   0.00000  Uiso   1.00
C40    C     0.18406   0.30927   0.28502   0.00000  Uiso   1.00
N41    N     0.16667   0.28573   0.25000   0.00000  Uiso   1.00
N42    N     0.16667   0.04760   0.25000   0.00000  Uiso   1.00
F43    F     0.23188   0.12964   0.38444   0.00000  Uiso   1.00
F44    F     0.10145   0.20369   0.11556   0.00000  Uiso   1.00
F45    F     0.10291   0.20592   0.38088   0.00000  Uiso   1.00
F46    F     0.23042   0.12741   0.11912   0.00000  Uiso   1.00
F47    F     0.06891   0.22711   0.45246   0.00000  Uiso   1.00
F48    F     0.26442   0.10623   0.04754   0.00000  Uiso   1.00
F49    F     0.06857   0.22670   0.04228   0.00000  Uiso   1.00
F50    F     0.26476   0.10663   0.45772   0.00000  Uiso   1.00
F51    F     0.04056   0.08523   0.25173   0.00000  Uiso   1.00
F52    F     0.29277   0.24810   0.24827   0.00000  Uiso   1.00
F53    F     0.29253   0.08532   0.24662   0.00000  Uiso   1.00
F54    F     0.04080   0.24801   0.25338   0.00000  Uiso   1.00
N55    N     0.20351   0.04697   0.32148   0.00000  Uiso   1.00
O56    O     0.24146   0.06063   0.31798   0.00000  Uiso   1.00
O57    O     0.18655   0.04655   0.36064   0.00000  Uiso   1.00
N58    N     0.12983   0.28637   0.17852   0.00000  Uiso   1.00
O59    O     0.09187   0.27271   0.18202   0.00000  Uiso   1.00
O60    O     0.14679   0.28678   0.13936   0.00000  Uiso   1.00
N61    N     0.13033   0.04755   0.17812   0.00000  Uiso   1.00
O62    O     0.14748   0.04720   0.13906   0.00000  Uiso   1.00
O63    O     0.09323   0.06358   0.18172   0.00000  Uiso   1.00
N64    N     0.20300   0.28578   0.32188   0.00000  Uiso   1.00
O65    O     0.18585   0.28613   0.36094   0.00000  Uiso   1.00
O66    O     0.24010   0.26975   0.31828   0.00000  Uiso   1.00
O67    O     0.43892   0.20487   0.24999   0.00000  Uiso   1.00
O68    O     0.56108   0.12846   0.25001   0.00000  Uiso   1.00
O69    O     0.56108   0.20487   0.25000   0.00000  Uiso   1.00
O70    O     0.43892   0.12846   0.24999   0.00000  Uiso   1.00
C71    C     0.42004   0.16665   0.25056   0.00000  Uiso   1.00
C72    C     0.57996   0.16669   0.24944   0.00000  Uiso   1.00
O73    O     0.49999   0.20489   0.18392   0.00000  Uiso   1.00
O74    O     0.50001   0.12844   0.31607   0.00000  Uiso   1.00
O75    O     0.50001   0.20489   0.31607   0.00000  Uiso   1.00
O76    O     0.49999   0.12844   0.18392   0.00000  Uiso   1.00
C77    C     0.49980   0.16671   0.16362   0.00000  Uiso   1.00
C78    C     0.50020   0.16662   0.33638   0.00000  Uiso   1.00
Zn79   Zn    0.50000   0.21771   0.25000   0.00000  Uiso   1.00
Zn80   Zn    0.50000   0.11563   0.25000   0.00000  Uiso   1.00
C81    C     0.53313   0.14699   0.40744   0.00000  Uiso   1.00
C82    C     0.46687   0.18635   0.09256   0.00000  Uiso   1.00
C83    C     0.50021   0.16669   0.38405   0.00000  Uiso   1.00
C84    C     0.49979   0.16664   0.11595   0.00000  Uiso   1.00
C85    C     0.46753   0.18709   0.40566   0.00000  Uiso   1.00
C86    C     0.53247   0.14624   0.09434   0.00000  Uiso   1.00
C87    C     0.46702   0.18725   0.45225   0.00000  Uiso   1.00
C88    C     0.53297   0.14608   0.04775   0.00000  Uiso   1.00
C89    C     0.50008   0.16676   0.47658   0.00000  Uiso   1.00
C90    C     0.49992   0.16658   0.02342   0.00000  Uiso   1.00
C91    C     0.53334   0.14652   0.45404   0.00000  Uiso   1.00
C92    C     0.46666   0.18681   0.04595   0.00000  Uiso   1.00
C93    C     0.43427   0.20722   0.47498   0.00000  Uiso   1.00
C94    C     0.56573   0.12612   0.02502   0.00000  Uiso   1.00
C95    C     0.43407   0.20695   0.02147   0.00000  Uiso   1.00
C96    C     0.56593   0.12638   0.47853   0.00000  Uiso   1.00
C97    C     0.35441   0.12564   0.25044   0.00000  Uiso   1.00
C98    C     0.64559   0.20770   0.24956   0.00000  Uiso   1.00
C99    C     0.64547   0.12567   0.24875   0.00000  Uiso   1.00
C100   C     0.35453   0.20766   0.25125   0.00000  Uiso   1.00
C101   C     0.62415   0.16670   0.24894   0.00000  Uiso   1.00
C102   C     0.37585   0.16664   0.25106   0.00000  Uiso   1.00
C103   C     0.51741   0.02377   0.28498   0.00000  Uiso   1.00
C104   C     0.48259   0.30957   0.21502   0.00000  Uiso   1.00
C105   C     0.48261   0.02406   0.21498   0.00000  Uiso   1.00
C106   C     0.51739   0.30927   0.28502   0.00000  Uiso   1.00
N107   N     0.50000   0.28573   0.25000   0.00000  Uiso   1.00
N108   N     0.50000   0.04760   0.25000   0.00000  Uiso   1.00
F109   F     0.56522   0.12964   0.38444   0.00000  Uiso   1.00
F110   F     0.43478   0.20369   0.11556   0.00000  Uiso   1.00
F111   F     0.43624   0.20592   0.38088   0.00000  Uiso   1.00
F112   F     0.56376   0.12741   0.11912   0.00000  Uiso   1.00
F113   F     0.40224   0.22711   0.45246   0.00000  Uiso   1.00
F114   F     0.59776   0.10623   0.04754   0.00000  Uiso   1.00
F115   F     0.40190   0.22670   0.04228   0.00000  Uiso   1.00
F116   F     0.59810   0.10663   0.45772   0.00000  Uiso   1.00
F117   F     0.37390   0.08523   0.25173   0.00000  Uiso   1.00
F118   F     0.62610   0.24810   0.24827   0.00000  Uiso   1.00
F119   F     0.62586   0.08532   0.24662   0.00000  Uiso   1.00
F120   F     0.37414   0.24801   0.25338   0.00000  Uiso   1.00
N121   N     0.53684   0.04697   0.32148   0.00000  Uiso   1.00
O122   O     0.57479   0.06063   0.31798   0.00000  Uiso   1.00
O123   O     0.51988   0.04655   0.36064   0.00000  Uiso   1.00
N124   N     0.46316   0.28637   0.17852   0.00000  Uiso   1.00
O125   O     0.42521   0.27271   0.18202   0.00000  Uiso   1.00
O126   O     0.48012   0.28678   0.13936   0.00000  Uiso   1.00
N127   N     0.46367   0.04755   0.17812   0.00000  Uiso   1.00
O128   O     0.48081   0.04720   0.13906   0.00000  Uiso   1.00
O129   O     0.42656   0.06358   0.18172   0.00000  Uiso   1.00
N130   N     0.53633   0.28578   0.32188   0.00000  Uiso   1.00
O131   O     0.51919   0.28613   0.36094   0.00000  Uiso   1.00
O132   O     0.57344   0.26975   0.31828   0.00000  Uiso   1.00
O133   O     0.77226   0.20487   0.24999   0.00000  Uiso   1.00
O134   O     0.89441   0.12846   0.25001   0.00000  Uiso   1.00
O135   O     0.89441   0.20487   0.25000   0.00000  Uiso   1.00
O136   O     0.77226   0.12846   0.24999   0.00000  Uiso   1.00
C137   C     0.75337   0.16665   0.25056   0.00000  Uiso   1.00
C138   C     0.91329   0.16669   0.24944   0.00000  Uiso   1.00
O139   O     0.83333   0.20489   0.18392   0.00000  Uiso   1.00
O140   O     0.83334   0.12844   0.31607   0.00000  Uiso   1.00
O141   O     0.83334   0.20489   0.31607   0.00000  Uiso   1.00
O142   O     0.83333   0.12844   0.18392   0.00000  Uiso   1.00
C143   C     0.83314   0.16671   0.16362   0.00000  Uiso   1.00
C144   C     0.83353   0.16662   0.33638   0.00000  Uiso   1.00
Zn145  Zn    0.83333   0.21771   0.25000   0.00000  Uiso   1.00
Zn146  Zn    0.83333   0.11563   0.25000   0.00000  Uiso   1.00
C147   C     0.86647   0.14699   0.40744   0.00000  Uiso   1.00
C148   C     0.80020   0.18635   0.09256   0.00000  Uiso   1.00
C149   C     0.83354   0.16669   0.38405   0.00000  Uiso   1.00
C150   C     0.83312   0.16664   0.11595   0.00000  Uiso   1.00
C151   C     0.80087   0.18709   0.40566   0.00000  Uiso   1.00
C152   C     0.86580   0.14624   0.09434   0.00000  Uiso   1.00
C153   C     0.80036   0.18725   0.45225   0.00000  Uiso   1.00
C154   C     0.86631   0.14608   0.04775   0.00000  Uiso   1.00
C155   C     0.83341   0.16676   0.47658   0.00000  Uiso   1.00
C156   C     0.83325   0.16658   0.02342   0.00000  Uiso   1.00
C157   C     0.86667   0.14652   0.45404   0.00000  Uiso   1.00
C158   C     0.80000   0.18681   0.04595   0.00000  Uiso   1.00
C159   C     0.76760   0.20722   0.47498   0.00000  Uiso   1.00
C160   C     0.89906   0.12612   0.02502   0.00000  Uiso   1.00
C161   C     0.76740   0.20695   0.02147   0.00000  Uiso   1.00
C162   C     0.89927   0.12638   0.47853   0.00000  Uiso   1.00
C163   C     0.68774   0.12564   0.25044   0.00000  Uiso   1.00
C164   C     0.97892   0.20770   0.24956   0.00000  Uiso   1.00
C165   C     0.97880   0.12567   0.24875   0.00000  Uiso   1.00
C166   C     0.68786   0.20766   0.25125   0.00000  Uiso   1.00
C167   C     0.95748   0.16670   0.24894   0.00000  Uiso   1.00
C168   C     0.70919   0.16664   0.25106   0.00000  Uiso   1.00
C169   C     0.85075   0.02377   0.28498   0.00000  Uiso   1.00
C170   C     0.81592   0.30957   0.21502   0.00000  Uiso   1.00
C171   C     0.81594   0.02406   0.21498   0.00000  Uiso   1.00
C172   C     0.85072   0.30927   0.28502   0.00000  Uiso   1.00
N173   N     0.83333   0.28573   0.25000   0.00000  Uiso   1.00
N174   N     0.83333   0.04760   0.25000   0.00000  Uiso   1.00
F175   F     0.89855   0.12964   0.38444   0.00000  Uiso   1.00
F176   F     0.76811   0.20369   0.11556   0.00000  Uiso   1.00
F177   F     0.76958   0.20592   0.38088   0.00000  Uiso   1.00
F178   F     0.89709   0.12741   0.11912   0.00000  Uiso   1.00
F179   F     0.73558   0.22711   0.45246   0.00000  Uiso   1.00
F180   F     0.93109   0.10623   0.04754   0.00000  Uiso   1.00
F181   F     0.73524   0.22670   0.04228   0.00000  Uiso   1.00
F182   F     0.93143   0.10663   0.45772   0.00000  Uiso   1.00
F183   F     0.70723   0.08523   0.25173   0.00000  Uiso   1.00
F184   F     0.95944   0.24810   0.24827   0.00000  Uiso   1.00
F185   F     0.95920   0.08532   0.24662   0.00000  Uiso   1.00
F186   F     0.70747   0.24801   0.25338   0.00000  Uiso   1.00
N187   N     0.87017   0.04697   0.32148   0.00000  Uiso   1.00
O188   O     0.90813   0.06063   0.31798   0.00000  Uiso   1.00
O189   O     0.85321   0.04655   0.36064   0.00000  Uiso   1.00
N190   N     0.79649   0.28637   0.17852   0.00000  Uiso   1.00
O191   O     0.75854   0.27271   0.18202   0.00000  Uiso   1.00
O192   O     0.81345   0.28678   0.13936   0.00000  Uiso   1.00
N193   N     0.79700   0.04755   0.17812   0.00000  Uiso   1.00
O194   O     0.81415   0.04720   0.13906   0.00000  Uiso   1.00
O195   O     0.75990   0.06358   0.18172   0.00000  Uiso   1.00
N196   N     0.86967   0.28578   0.32188   0.00000  Uiso   1.00
O197   O     0.85252   0.28613   0.36094   0.00000  Uiso   1.00
O198   O     0.90677   0.26975   0.31828   0.00000  Uiso   1.00
O199   O     0.10559   0.53821   0.24999   0.00000  Uiso   1.00
O200   O     0.22774   0.46179   0.25001   0.00000  Uiso   1.00
O201   O     0.22774   0.53821   0.25000   0.00000  Uiso   1.00
O202   O     0.10559   0.46179   0.24999   0.00000  Uiso   1.00
C203   C     0.08671   0.49998   0.25056   0.00000  Uiso   1.00
C204   C     0.24663   0.50002   0.24944   0.00000  Uiso   1.00
O205   O     0.16666   0.53823   0.18392   0.00000  Uiso   1.00
O206   O     0.16667   0.46177   0.31607   0.00000  Uiso   1.00
O207   O     0.16667   0.53823   0.31607   0.00000  Uiso   1.00
O208   O     0.16666   0.46177   0.18392   0.00000  Uiso   1.00
C209   C     0.16647   0.50004   0.16362   0.00000  Uiso   1.00
C210   C     0.16686   0.49996   0.33638   0.00000  Uiso   1.00
Zn211  Zn    0.16667   0.55104   0.25000   0.00000  Uiso   1.00
Zn212  Zn    0.16667   0.44896   0.25000   0.00000  Uiso   1.00
C213   C     0.19980   0.48032   0.40744   0.00000  Uiso   1.00
C214   C     0.13353   0.51968   0.09256   0.00000  Uiso   1.00
C215   C     0.16687   0.50003   0.38405   0.00000  Uiso   1.00
C216   C     0.16646   0.49997   0.11595   0.00000  Uiso   1.00
C217   C     0.13420   0.52043   0.40566   0.00000  Uiso   1.00
C218   C     0.19913   0.47957   0.09434   0.00000  Uiso   1.00
C219   C     0.13369   0.52059   0.45225   0.00000  Uiso   1.00
C220   C     0.19964   0.47941   0.04775   0.00000  Uiso   1.00
C221   C     0.16675   0.50009   0.47658   0.00000  Uiso   1.00
C222   C     0.16659   0.49991   0.02342   0.00000  Uiso   1.00
C223   C     0.20000   0.47986   0.45404   0.00000  Uiso   1.00
C224   C     0.13333   0.52014   0.04595   0.00000  Uiso   1.00
C225   C     0.10094   0.54055   0.47498   0.00000  Uiso   1.00
C226   C     0.23240   0.45945   0.02502   0.00000  Uiso   1.00
C227   C     0.10073   0.54029   0.02147   0.00000  Uiso   1.00
C228   C     0.23260   0.45971   0.47853   0.00000  Uiso   1.00
C229   C     0.02108   0.45897   0.25044   0.00000  Uiso   1.00
C230   C     0.31226   0.54103   0.24956   0.00000  Uiso   1.00
C231   C     0.31214   0.45901   0.24875   0.00000  Uiso   1.00
C232   C     0.02120   0.54099   0.25125   0.00000  Uiso   1.00
C233   C     0.29081   0.50003   0.24894   0.00000  Uiso   1.00
C234   C     0.04252   0.49997   0.25106   0.00000  Uiso   1.00
C235   C     0.18408   0.35710   0.28498   0.00000  Uiso   1.00
C236   C     0.14925   0.64290   0.21502   0.00000  Uiso   1.00
C237   C     0.14928   0.35739   0.21498   0.00000  Uiso   1.00
C238   C     0.18406   0.64261   0.28502   0.00000  Uiso   1.00
N239   N     0.16667   0.61907   0.25000   0.00000  Uiso   1.00
N240   N     0.16667   0.38093   0.25000   0.00000  Uiso   1.00
F241   F     0.23188   0.46298   0.38444   0.00000  Uiso   1.00
F242   F     0.10145   0.53702   0.11556   0.00000  Uiso   1.00
F243   F     0.10291   0.53925   0.38088   0.00000  Uiso   1.00
F244   F     0.23042   0.46075   0.11912   0.00000  Uiso   1.00
F245   F     0.06891   0.56044   0.45246   0.00000  Uiso   1.00
F246   F     0.26442   0.43956   0.04754   0.00000  Uiso   1.00
F247   F     0.06857   0.56004   0.04228   0.00000  Uiso   1.00
F248   F     0.26476   0.43996   0.45772   0.00000  Uiso   1.00
F249   F     0.04056   0.41856   0.25173   0.00000  Uiso   1.00
F250   F     0.29277   0.58144   0.24827   0.00000  Uiso   1.00
F251   F     0.29253   0.41865   0.24662   0.00000  Uiso   1.00
F252   F     0.04080   0.58135   0.25338   0.00000  Uiso   1.00
N253   N     0.20351   0.38030   0.32148   0.00000  Uiso   1.00
O254   O     0.24146   0.39396   0.31798   0.00000  Uiso   1.00
O255   O     0.18655   0.37988   0.36064   0.00000  Uiso   1.00
N256   N     0.12983   0.61970   0.17852   0.00000  Uiso   1.00
O257   O     0.09187   0.60604   0.18202   0.00000  Uiso   1.00
O258   O     0.14679   0.62012   0.13936   0.00000  Uiso   1.00
N259   N     0.13033   0.38088   0.17812   0.00000  Uiso   1.00
O260   O     0.14748   0.38053   0.13906   0.00000  Uiso   1.00
O261   O     0.09323   0.39692   0.18172   0.00000  Uiso   1.00
N262   N     0.20300   0.61912   0.32188   0.00000  Uiso   1.00
O263   O     0.18585   0.61947   0.36094   0.00000  Uiso   1.00
O264   O     0.24010   0.60308   0.31828   0.00000  Uiso   1.00
O265   O     0.43892   0.53821   0.24999   0.00000  Uiso   1.00
O266   O     0.56108   0.46179   0.25001   0.00000  Uiso   1.00
O267   O     0.56108   0.53821   0.25000   0.00000  Uiso   1.00
O268   O     0.43892   0.46179   0.24999   0.00000  Uiso   1.00
C269   C     0.42004   0.49998   0.25056   0.00000  Uiso   1.00
C270   C     0.57996   0.50002   0.24944   0.00000  Uiso   1.00
O271   O     0.49999   0.53823   0.18392   0.00000  Uiso   1.00
O272   O     0.50001   0.46177   0.31607   0.00000  Uiso   1.00
O273   O     0.50001   0.53823   0.31607   0.00000  Uiso   1.00
O274   O     0.49999   0.46177   0.18392   0.00000  Uiso   1.00
C275   C     0.49980   0.50004   0.16362   0.00000  Uiso   1.00
C276   C     0.50020   0.49996   0.33638   0.00000  Uiso   1.00
Zn277  Zn    0.50000   0.55104   0.25000   0.00000  Uiso   1.00
Zn278  Zn    0.50000   0.44896   0.25000   0.00000  Uiso   1.00
C279   C     0.53313   0.48032   0.40744   0.00000  Uiso   1.00
C280   C     0.46687   0.51968   0.09256   0.00000  Uiso   1.00
C281   C     0.50021   0.50003   0.38405   0.00000  Uiso   1.00
C282   C     0.49979   0.49997   0.11595   0.00000  Uiso   1.00
C283   C     0.46753   0.52043   0.40566   0.00000  Uiso   1.00
C284   C     0.53247   0.47957   0.09434   0.00000  Uiso   1.00
C285   C     0.46702   0.52059   0.45225   0.00000  Uiso   1.00
C286   C     0.53297   0.47941   0.04775   0.00000  Uiso   1.00
C287   C     0.50008   0.50009   0.47658   0.00000  Uiso   1.00
C288   C     0.49992   0.49991   0.02342   0.00000  Uiso   1.00
C289   C     0.53334   0.47986   0.45404   0.00000  Uiso   1.00
C290   C     0.46666   0.52014   0.04595   0.00000  Uiso   1.00
C291   C     0.43427   0.54055   0.47498   0.00000  Uiso   1.00
C292   C     0.56573   0.45945   0.02502   0.00000  Uiso   1.00
C293   C     0.43407   0.54029   0.02147   0.00000  Uiso   1.00
C294   C     0.56593   0.45971   0.47853   0.00000  Uiso   1.00
C295   C     0.35441   0.45897   0.25044   0.00000  Uiso   1.00
C296   C     0.64559   0.54103   0.24956   0.00000  Uiso   1.00
C297   C     0.64547   0.45901   0.24875   0.00000  Uiso   1.00
C298   C     0.35453   0.54099   0.25125   0.00000  Uiso   1.00
C299   C     0.62415   0.50003   0.24894   0.00000  Uiso   1.00
C300   C     0.37585   0.49997   0.25106   0.00000  Uiso   1.00
C301   C     0.51741   0.35710   0.28498   0.00000  Uiso   1.00
C302   C     0.48259   0.64290   0.21502   0.00000  Uiso   1.00
C303   C     0.48261   0.35739   0.21498   0.00000  Uiso   1.00
C304   C     0.51739   0.64261   0.28502   0.00000  Uiso   1.00
N305   N     0.50000   0.61907   0.25000   0.00000  Uiso   1.00
N306   N     0.50000   0.38093   0.25000   0.00000  Uiso   1.00
F307   F     0.56522   0.46298   0.38444   0.00000  Uiso   1.00
F308   F     0.43478   0.53702   0.11556   0.00000  Uiso   1.00
F309   F     0.43624   0.53925   0.38088   0.00000  Uiso   1.00
F310   F     0.56376   0.46075   0.11912   0.00000  Uiso   1.00
F311   F     0.40224   0.56044   0.45246   0.00000  Uiso   1.00
F312   F     0.59776   0.43956   0.04754   0.00000  Uiso   1.00
F313   F     0.40190   0.56004   0.04228   0.00000  Uiso   1.00
F314   F     0.59810   0.43996   0.45772   0.00000  Uiso   1.00
F315   F     0.37390   0.41856   0.25173   0.00000  Uiso   1.00
F316   F     0.62610   0.58144   0.24827   0.00000  Uiso   1.00
F317   F     0.62586   0.41865   0.24662   0.00000  Uiso   1.00
F318   F     0.37414   0.58135   0.25338   0.00000  Uiso   1.00
N319   N     0.53684   0.38030   0.32148   0.00000  Uiso   1.00
O320   O     0.57479   0.39396   0.31798   0.00000  Uiso   1.00
O321   O     0.51988   0.37988   0.36064   0.00000  Uiso   1.00
N322   N     0.46316   0.61970   0.17852   0.00000  Uiso   1.00
O323   O     0.42521   0.60604   0.18202   0.00000  Uiso   1.00
O324   O     0.48012   0.62012   0.13936   0.00000  Uiso   1.00
N325   N     0.46367   0.38088   0.17812   0.00000  Uiso   1.00
O326   O     0.48081   0.38053   0.13906   0.00000  Uiso   1.00
O327   O     0.42656   0.39692   0.18172   0.00000  Uiso   1.00
N328   N     0.53633   0.61912   0.32188   0.00000  Uiso   1.00
O329   O     0.51919   0.61947   0.36094   0.00000  Uiso   1.00
O330   O     0.57344   0.60308   0.31828   0.00000  Uiso   1.00
O331   O     0.77226   0.53821   0.24999   0.00000  Uiso   1.00
O332   O     0.89441   0.46179   0.25001   0.00000  Uiso   1.00
O333   O     0.89441   0.53821   0.25000   0.00000  Uiso   1.00
O334   O     0.77226   0.46179   0.24999   0.00000  Uiso   1.00
C335   C     0.75337   0.49998   0.25056   0.00000  Uiso   1.00
C336   C     0.91329   0.50002   0.24944   0.00000  Uiso   1.00
O337   O     0.83333   0.53823   0.18392   0.00000  Uiso   1.00
O338   O     0.83334   0.46177   0.31607   0.00000  Uiso   1.00
O339   O     0.83334   0.53823   0.31607   0.00000  Uiso   1.00
O340   O     0.83333   0.46177   0.18392   0.00000  Uiso   1.00
C341   C     0.83314   0.50004   0.16362   0.00000  Uiso   1.00
C342   C     0.83353   0.49996   0.33638   0.00000  Uiso   1.00
Zn343  Zn    0.83333   0.55104   0.25000   0.00000  Uiso   1.00
Zn344  Zn    0.83333   0.44896   0.25000   0.00000  Uiso   1.00
C345   C     0.86647   0.48032   0.40744   0.00000  Uiso   1.00
C346   C     0.80020   0.51968   0.09256   0.00000  Uiso   1.00
C347   C     0.83354   0.50003   0.38405   0.00000  Uiso   1.00
C348   C     0.83312   0.49997   0.11595   0.00000  Uiso   1.00
C349   C     0.80087   0.52043   0.40566   0.00000  Uiso   1.00
C350   C     0.86580   0.47957   0.09434   0.00000  Uiso   1.00
C351   C     0.80036   0.52059   0.45225   0.00000  Uiso   1.00
C352   C     0.86631   0.47941   0.04775   0.00000  Uiso   1.00
C353   C     0.83341   0.50009   0.47658   0.00000  Uiso   1.00
C354   C     0.83325   0.49991   0.02342   0.00000  Uiso   1.00
C355   C     0.86667   0.47986   0.45404   0.00000  Uiso   1.00
C356   C     0.80000   0.52014   0.04595   0.00000  Uiso   1.00
C357   C     0.76760   0.54055   0.47498   0.00000  Uiso   1.00
C358   C     0.89906   0.45945   0.02502   0.00000  Uiso   1.00
C359   C     0.76740   0.54029   0.02147   0.00000  Uiso   1.00
C360   C     0.89927   0.45971   0.47853   0.00000  Uiso   1.00
C361   C     0.68774   0.45897   0.25044   0.00000  Uiso   1.00
C362   C     0.97892   0.54103   0.24956   0.00000  Uiso   1.00
C363   C     0.97880   0.45901   0.24875   0.00000  Uiso   1.00
C364   C     0.68786   0.54099   0.25125   0.00000  Uiso   1.00
C365   C     0.95748   0.50003   0.24894   0.00000  Uiso   1.00
C366   C     0.70919   0.49997   0.25106   0.00000  Uiso   1.00
C367   C     0.85075   0.35710   0.28498   0.00000  Uiso   1.00
C368   C     0.81592   0.64290   0.21502   0.00000  Uiso   1.00
C369   C     0.81594   0.35739   0.21498   0.00000  Uiso   1.00
C370   C     0.85072   0.64261   0.28502   0.00000  Uiso   1.00
N371   N     0.83333   0.61907   0.25000   0.00000  Uiso   1.00
N372   N     0.83333   0.38093   0.25000   0.00000  Uiso   1.00
F373   F     0.89855   0.46298   0.38444   0.00000  Uiso   1.00
F374   F     0.76811   0.53702   0.11556   0.00000  Uiso   1.00
F375   F     0.76958   0.53925   0.38088   0.00000  Uiso   1.00
F376   F     0.89709   0.46075   0.11912   0.00000  Uiso   1.00
F377   F     0.73558   0.56044   0.45246   0.00000  Uiso   1.00
F378   F     0.93109   0.43956   0.04754   0.00000  Uiso   1.00
F379   F     0.73524   0.56004   0.04228   0.00000  Uiso   1.00
F380   F     0.93143   0.43996   0.45772   0.00000  Uiso   1.00
F381   F     0.70723   0.41856   0.25173   0.00000  Uiso   1.00
F382   F     0.95944   0.58144   0.24827   0.00000  Uiso   1.00
F383   F     0.95920   0.41865   0.24662   0.00000  Uiso   1.00
F384   F     0.70747   0.58135   0.25338   0.00000  Uiso   1.00
N385   N     0.87017   0.38030   0.32148   0.00000  Uiso   1.00
O386   O     0.90813   0.39396   0.31798   0.00000  Uiso   1.00
O387   O     0.85321   0.37988   0.36064   0.00000  Uiso   1.00
N388   N     0.79649   0.61970   0.17852   0.00000  Uiso   1.00
O389   O     0.75854   0.60604   0.18202   0.00000  Uiso   1.00
O390   O     0.81345   0.62012   0.13936   0.00000  Uiso   1.00
N391   N     0.79700   0.38088   0.17812   0.00000  Uiso   1.00
O392   O     0.81415   0.38053   0.13906   0.00000  Uiso   1.00
O393   O     0.75990   0.39692   0.18172   0.00000  Uiso   1.00
N394   N     0.86967   0.61912   0.32188   0.00000  Uiso   1.00
O395   O     0.85252   0.61947   0.36094   0.00000  Uiso   1.00
O396   O     0.90677   0.60308   0.31828   0.00000  Uiso   1.00
O397   O     0.10559   0.87154   0.24999   0.00000  Uiso   1.00
O398   O     0.22774   0.79513   0.25001   0.00000  Uiso   1.00
O399   O     0.22774   0.87154   0.25000   0.00000  Uiso   1.00
O400   O     0.10559   0.79513   0.24999   0.00000  Uiso   1.00
C401   C     0.08671   0.83331   0.25056   0.00000  Uiso   1.00
C402   C     0.24663   0.83335   0.24944   0.00000  Uiso   1.00
O403   O     0.16666   0.87156   0.18392   0.00000  Uiso   1.00
O404   O     0.16667   0.79511   0.31607   0.00000  Uiso   1.00
O405   O     0.16667   0.87156   0.31607   0.00000  Uiso   1.00
O406   O     0.16666   0.79511   0.18392   0.00000  Uiso   1.00
C407   C     0.16647   0.83338   0.16362   0.00000  Uiso   1.00
C408   C     0.16686   0.83329   0.33638   0.00000  Uiso   1.00
Zn409  Zn    0.16667   0.88437   0.25000   0.00000  Uiso   1.00
Zn410  Zn    0.16667   0.78229   0.25000   0.00000  Uiso   1.00
C411   C     0.19980   0.81365   0.40744   0.00000  Uiso   1.00
C412   C     0.13353   0.85301   0.09256   0.00000  Uiso   1.00
C413   C     0.16687   0.83336   0.38405   0.00000  Uiso   1.00
C414   C     0.16646   0.83331   0.11595   0.00000  Uiso   1.00
C415   C     0.13420   0.85376   0.40566   0.00000  Uiso   1.00
C416   C     0.19913   0.81291   0.09434   0.00000  Uiso   1.00
C417   C     0.13369   0.85392   0.45225   0.00000  Uiso   1.00
C418   C     0.19964   0.81275   0.04775   0.00000  Uiso   1.00
C419   C     0.16675   0.83342   0.47658   0.00000  Uiso   1.00
C420   C     0.16659   0.83325   0.02342   0.00000  Uiso   1.00
C421   C     0.20000   0.81319   0.45404   0.00000  Uiso   1.00
C422   C     0.13333   0.85348   0.04595   0.00000  Uiso   1.00
C423   C     0.10094   0.87388   0.47498   0.00000  Uiso   1.00
C424   C     0.23240   0.79278   0.02502   0.00000  Uiso   1.00
C425   C     0.10073   0.87362   0.02147   0.00000  Uiso   1.00
C426   C     0.23260   0.79305   0.47853   0.00000  Uiso   1.00
C427   C     0.02108   0.79230   0.25044   0.00000  Uiso   1.00
C428   C     0.31226   0.87436   0.24956   0.00000  Uiso   1.00
C429   C     0.31214   0.79234   0.24875   0.00000  Uiso   1.00
C430   C     0.02120   0.87433   0.25125   0.00000  Uiso   1.00
C431   C     0.29081   0.83336   0.24894   0.00000  Uiso   1.00
C432   C     0.04252   0.83330   0.25106   0.00000  Uiso   1.00
C433   C     0.18408   0.69043   0.28498   0.00000  Uiso   1.00
C434   C     0.14925   0.97623   0.21502   0.00000  Uiso   1.00
C435   C     0.14928   0.69073   0.21498   0.00000  Uiso   1.00
C436   C     0.18406   0.97594   0.28502   0.00000  Uiso   1.00
N437   N     0.16667   0.95240   0.25000   0.00000  Uiso   1.00
N438   N     0.16667   0.71427   0.25000   0.00000  Uiso   1.00
F439   F     0.23188   0.79631   0.38444   0.00000  Uiso   1.00
F440   F     0.10145   0.87036   0.11556   0.00000  Uiso   1.00
F441   F     0.10291   0.87259   0.38088   0.00000  Uiso   1.00
F442   F     0.23042   0.79408   0.11912   0.00000  Uiso   1.00
F443   F     0.06891   0.89377   0.45246   0.00000  Uiso   1.00
F444   F     0.26442   0.77289   0.04754   0.00000  Uiso   1.00
F445   F     0.06857   0.89337   0.04228   0.00000  Uiso   1.00
F446   F     0.26476   0.77330   0.45772   0.00000  Uiso   1.00
F447   F     0.04056   0.75190   0.25173   0.00000  Uiso   1.00
F448   F     0.29277   0.91477   0.24827   0.00000  Uiso   1.00
F449   F     0.29253   0.75199   0.24662   0.00000  Uiso   1.00
F450   F     0.04080   0.91468   0.25338   0.00000  Uiso   1.00
N451   N     0.20351   0.71363   0.32148   0.00000  Uiso   1.00
O452   O     0.24146   0.72729   0.31798   0.00000  Uiso   1.00
O453   O     0.18655   0.71322   0.36064   0.00000  Uiso   1.00
N454   N     0.12983   0.95303   0.17852   0.00000  Uiso   1.00
O455   O     0.09187   0.93937   0.18202   0.00000  Uiso   1.00
O456   O     0.14679   0.95345   0.13936   0.00000  Uiso   1.00
N457   N     0.13033   0.71422   0.17812   0.00000  Uiso   1.00
O458   O     0.14748   0.71387   0.13906   0.00000  Uiso   1.00
O459   O     0.09323   0.73025   0.18172   0.00000  Uiso   1.00
N460   N     0.20300   0.95245   0.32188   0.00000  Uiso   1.00
O461   O     0.18585   0.95280   0.36094   0.00000  Uiso   1.00
O462   O     0.24010   0.93642   0.31828   0.00000  Uiso   1.00
O463   O     0.43892   0.87154   0.24999   0.00000  Uiso   1.00
O464   O     0.56108   0.79513   0.25001   0.00000  Uiso   1.00
O465   O     0.56108   0.87154   0.25000   0.00000  Uiso   1.00
O466   O     0.43892   0.79513   0.24999   0.00000  Uiso   1.00
C467   C     0.42004   0.83331   0.25056   0.00000  Uiso   1.00
C468   C     0.57996   0.83335   0.24944   0.00000  Uiso   1.00
O469   O     0.49999   0.87156   0.18392   0.00000  Uiso   1.00
O470   O     0.50001   0.79511   0.31607   0.00000  Uiso   1.00
O471   O     0.50001   0.87156   0.31607   0.00000  Uiso   1.00
O472   O     0.49999   0.79511   0.18392   0.00000  Uiso   1.00
C473   C     0.49980   0.83338   0.16362   0.00000  Uiso   1.00
C474   C     0.50020   0.83329   0.33638   0.00000  Uiso   1.00
Zn475  Zn    0.50000   0.88437   0.25000   0.00000  Uiso   1.00
Zn476  Zn    0.50000   0.78229   0.25000   0.00000  Uiso   1.00
C477   C     0.53313   0.81365   0.40744   0.00000  Uiso   1.00
C478   C     0.46687   0.85301   0.09256   0.00000  Uiso   1.00
C479   C     0.50021   0.83336   0.38405   0.00000  Uiso   1.00
C480   C     0.49979   0.83331   0.11595   0.00000  Uiso   1.00
C481   C     0.46753   0.85376   0.40566   0.00000  Uiso   1.00
C482   C     0.53247   0.81291   0.09434   0.00000  Uiso   1.00
C483   C     0.46702   0.85392   0.45225   0.00000  Uiso   1.00
C484   C     0.53297   0.81275   0.04775   0.00000  Uiso   1.00
C485   C     0.50008   0.83342   0.47658   0.00000  Uiso   1.00
C486   C     0.49992   0.83325   0.02342   0.00000  Uiso   1.00
C487   C     0.53334   0.81319   0.45404   0.00000  Uiso   1.00
C488   C     0.46666   0.85348   0.04595   0.00000  Uiso   1.00
C489   C     0.43427   0.87388   0.47498   0.00000  Uiso   1.00
C490   C     0.56573   0.79278   0.02502   0.00000  Uiso   1.00
C491   C     0.43407   0.87362   0.02147   0.00000  Uiso   1.00
C492   C     0.56593   0.79305   0.47853   0.00000  Uiso   1.00
C493   C     0.35441   0.79230   0.25044   0.00000  Uiso   1.00
C494   C     0.64559   0.87436   0.24956   0.00000  Uiso   1.00
C495   C     0.64547   0.79234   0.24875   0.00000  Uiso   1.00
C496   C     0.35453   0.87433   0.25125   0.00000  Uiso   1.00
C497   C     0.62415   0.83336   0.24894   0.00000  Uiso   1.00
C498   C     0.37585   0.83330   0.25106   0.00000  Uiso   1.00
C499   C     0.51741   0.69043   0.28498   0.00000  Uiso   1.00
C500   C     0.48259   0.97623   0.21502   0.00000  Uiso   1.00
C501   C     0.48261   0.69073   0.21498   0.00000  Uiso   1.00
C502   C     0.51739   0.97594   0.28502   0.00000  Uiso   1.00
N503   N     0.50000   0.95240   0.25000   0.00000  Uiso   1.00
N504   N     0.50000   0.71427   0.25000   0.00000  Uiso   1.00
F505   F     0.56522   0.79631   0.38444   0.00000  Uiso   1.00
F506   F     0.43478   0.87036   0.11556   0.00000  Uiso   1.00
F507   F     0.43624   0.87259   0.38088   0.00000  Uiso   1.00
F508   F     0.56376   0.79408   0.11912   0.00000  Uiso   1.00
F509   F     0.40224   0.89377   0.45246   0.00000  Uiso   1.00
F510   F     0.59776   0.77289   0.04754   0.00000  Uiso   1.00
F511   F     0.40190   0.89337   0.04228   0.00000  Uiso   1.00
F512   F     0.59810   0.77330   0.45772   0.00000  Uiso   1.00
F513   F     0.37390   0.75190   0.25173   0.00000  Uiso   1.00
F514   F     0.62610   0.91477   0.24827   0.00000  Uiso   1.00
F515   F     0.62586   0.75199   0.24662   0.00000  Uiso   1.00
F516   F     0.37414   0.91468   0.25338   0.00000  Uiso   1.00
N517   N     0.53684   0.71363   0.32148   0.00000  Uiso   1.00
O518   O     0.57479   0.72729   0.31798   0.00000  Uiso   1.00
O519   O     0.51988   0.71322   0.36064   0.00000  Uiso   1.00
N520   N     0.46316   0.95303   0.17852   0.00000  Uiso   1.00
O521   O     0.42521   0.93937   0.18202   0.00000  Uiso   1.00
O522   O     0.48012   0.95345   0.13936   0.00000  Uiso   1.00
N523   N     0.46367   0.71422   0.17812   0.00000  Uiso   1.00
O524   O     0.48081   0.71387   0.13906   0.00000  Uiso   1.00
O525   O     0.42656   0.73025   0.18172   0.00000  Uiso   1.00
N526   N     0.53633   0.95245   0.32188   0.00000  Uiso   1.00
O527   O     0.51919   0.95280   0.36094   0.00000  Uiso   1.00
O528   O     0.57344   0.93642   0.31828   0.00000  Uiso   1.00
O529   O     0.77226   0.87154   0.24999   0.00000  Uiso   1.00
O530   O     0.89441   0.79513   0.25001   0.00000  Uiso   1.00
O531   O     0.89441   0.87154   0.25000   0.00000  Uiso   1.00
O532   O     0.77226   0.79513   0.24999   0.00000  Uiso   1.00
C533   C     0.75337   0.83331   0.25056   0.00000  Uiso   1.00
C534   C     0.91329   0.83335   0.24944   0.00000  Uiso   1.00
O535   O     0.83333   0.87156   0.18392   0.00000  Uiso   1.00
O536   O     0.83334   0.79511   0.31607   0.00000  Uiso   1.00
O537   O     0.83334   0.87156   0.31607   0.00000  Uiso   1.00
O538   O     0.83333   0.79511   0.18392   0.00000  Uiso   1.00
C539   C     0.83314   0.83338   0.16362   0.00000  Uiso   1.00
C540   C     0.83353   0.83329   0.33638   0.00000  Uiso   1.00
Zn541  Zn    0.83333   0.88437   0.25000   0.00000  Uiso   1.00
Zn542  Zn    0.83333   0.78229   0.25000   0.00000  Uiso   1.00
C543   C     0.86647   0.81365   0.40744   0.00000  Uiso   1.00
C544   C     0.80020   0.85301   0.09256   0.00000  Uiso   1.00
C545   C     0.83354   0.83336   0.38405   0.00000  Uiso   1.00
C546   C     0.83312   0.83331   0.11595   0.00000  Uiso   1.00
C547   C     0.80087   0.85376   0.40566   0.00000  Uiso   1.00
C548   C     0.86580   0.81291   0.09434   0.00000  Uiso   1.00
C549   C     0.80036   0.85392   0.45225   0.00000  Uiso   1.00
C550   C     0.86631   0.81275   0.04775   0.00000  Uiso   1.00
C551   C     0.83341   0.83342   0.47658   0.00000  Uiso   1.00
C552   C     0.83325   0.83325   0.02342   0.00000  Uiso   1.00
C553   C     0.86667   0.81319   0.45404   0.00000  Uiso   1.00
C554   C     0.80000   0.85348   0.04595   0.00000  Uiso   1.00
C555   C     0.76760   0.87388   0.47498   0.00000  Uiso   1.00
C556   C     0.89906   0.79278   0.02502   0.00000  Uiso   1.00
C557   C     0.76740   0.87362   0.02147   0.00000  Uiso   1.00
C558   C     0.89927   0.79305   0.47853   0.00000  Uiso   1.00
C559   C     0.68774   0.79230   0.25044   0.00000  Uiso   1.00
C560   C     0.97892   0.87436   0.24956   0.00000  Uiso   1.00
C561   C     0.97880   0.79234   0.24875   0.00000  Uiso   1.00
C562   C     0.68786   0.87433   0.25125   0.00000  Uiso   1.00
C563   C     0.95748   0.83336   0.24894   0.00000  Uiso   1.00
C564   C     0.70919   0.83330   0.25106   0.00000  Uiso   1.00
C565   C     0.85075   0.69043   0.28498   0.00000  Uiso   1.00
C566   C     0.81592   0.97623   0.21502   0.00000  Uiso   1.00
C567   C     0.81594   0.69073   0.21498   0.00000  Uiso   1.00
C568   C     0.85072   0.97594   0.28502   0.00000  Uiso   1.00
N569   N     0.83333   0.95240   0.25000   0.00000  Uiso   1.00
N570   N     0.83333   0.71427   0.25000   0.00000  Uiso   1.00
F571   F     0.89855   0.79631   0.38444   0.00000  Uiso   1.00
F572   F     0.76811   0.87036   0.11556   0.00000  Uiso   1.00
F573   F     0.76958   0.87259   0.38088   0.00000  Uiso   1.00
F574   F     0.89709   0.79408   0.11912   0.00000  Uiso   1.00
F575   F     0.73558   0.89377   0.45246   0.00000  Uiso   1.00
F576   F     0.93109   0.77289   0.04754   0.00000  Uiso   1.00
F577   F     0.73524   0.89337   0.04228   0.00000  Uiso   1.00
F578   F     0.93143   0.77330   0.45772   0.00000  Uiso   1.00
F579   F     0.70723   0.75190   0.25173   0.00000  Uiso   1.00
F580   F     0.95944   0.91477   0.24827   0.00000  Uiso   1.00
F581   F     0.95920   0.75199   0.24662   0.00000  Uiso   1.00
F582   F     0.70747   0.91468   0.25338   0.00000  Uiso   1.00
N583   N     0.87017   0.71363   0.32148   0.00000  Uiso   1.00
O584   O     0.90813   0.72729   0.31798   0.00000  Uiso   1.00
O585   O     0.85321   0.71322   0.36064   0.00000  Uiso   1.00
N586   N     0.79649   0.95303   0.17852   0.00000  Uiso   1.00
O587   O     0.75854   0.93937   0.18202   0.00000  Uiso   1.00
O588   O     0.81345   0.95345   0.13936   0.00000  Uiso   1.00
N589   N     0.79700   0.71422   0.17812   0.00000  Uiso   1.00
O590   O     0.81415   0.71387   0.13906   0.00000  Uiso   1.00
O591   O     0.75990   0.73025   0.18172   0.00000  Uiso   1.00
N592   N     0.86967   0.95245   0.32188   0.00000  Uiso   1.00
O593   O     0.85252   0.95280   0.36094   0.00000  Uiso   1.00
O594   O     0.90677   0.93642   0.31828   0.00000  Uiso   1.00
O595   O     0.10559   0.20487   0.74999   0.00000  Uiso   1.00
O596   O     0.22774   0.12846   0.75001   0.00000  Uiso   1.00
O597   O     0.22774   0.20487   0.75000   0.00000  Uiso   1.00
O598   O     0.10559   0.12846   0.74999   0.00000  Uiso   1.00
C599   C     0.08671   0.16665   0.75056   0.00000  Uiso   1.00
C600   C     0.24663   0.16669   0.74944   0.00000  Uiso   1.00
O601   O     0.16666   0.20489   0.68392   0.00000  Uiso   1.00
O602   O     0.16667   0.12844   0.81607   0.00000  Uiso   1.00
O603   O     0.16667   0.20489   0.81607   0.00000  Uiso   1.00
O604   O     0.16666   0.12844   0.68392   0.00000  Uiso   1.00
C605   C     0.16647   0.16671   0.66362   0.00000  Uiso   1.00
C606   C     0.16686   0.16662   0.83638   0.00000  Uiso   1.00
Zn607  Zn    0.16667   0.21771   0.75000   0.00000  Uiso   1.00
Zn608  Zn    0.16667   0.11563   0.75000   0.00000  Uiso   1.00
C609   C     0.19980   0.14699   0.90744   0.00000  Uiso   1.00
C610   C     0.13353   0.18635   0.59256   0.00000  Uiso   1.00
C611   C     0.16687   0.16669   0.88405   0.00000  Uiso   1.00
C612   C     0.16646   0.16664   0.61595   0.00000  Uiso   1.00
C613   C     0.13420   0.18709   0.90566   0.00000  Uiso   1.00
C614   C     0.19913   0.14624   0.59434   0.00000  Uiso   1.00
C615   C     0.13369   0.18725   0.95225   0.00000  Uiso   1.00
C616   C     0.19964   0.14608   0.54775   0.00000  Uiso   1.00
C617   C     0.16675   0.16676   0.97658   0.00000  Uiso   1.00
C618   C     0.16659   0.16658   0.52342   0.00000  Uiso   1.00
C619   C     0.20000   0.14652   0.95404   0.00000  Uiso   1.00
C620   C     0.13333   0.18681   0.54595   0.00000  Uiso   1.00
C621   C     0.10094   0.20722   0.97498   0.00000  Uiso   1.00
C622   C     0.23240   0.12612   0.52502   0.00000  Uiso   1.00
C623   C     0.10073   0.20695   0.52147   0.00000  Uiso   1.00
C624   C     0.23260   0.12638   0.97853   0.00000  Uiso   1.00
C625   C     0.02108   0.12564   0.75044   0.00000  Uiso   1.00
C626   C     0.31226   0.20770   0.74956   0.00000  Uiso   1.00
C627   C     0.31214   0.12567   0.74875   0.00000  Uiso   1.00
C628   C     0.02120   0.20766   0.75125   0.00000  Uiso   1.00
C629   C     0.29081   0.16670   0.74894   0.00000  Uiso   1.00
C630   C     0.04252   0.16664   0.75106   0.00000  Uiso   1.00
C631   C     0.18408   0.02377   0.78498   0.00000  Uiso   1.00
C632   C     0.14925   0.30957   0.71502   0.00000  Uiso   1.00
C633   C     0.14928   0.02406   0.71498   0.00000  Uiso   1.00
C634   C     0.18406   0.30927   0.78502   0.00000  Uiso   1.00
N635   N     0.16667   0.28573   0.75000   0.00000  Uiso   1.00
N636   N     0.16667   0.04760   0.75000   0.00000  Uiso   1.00
F637   F     0.23188   0.12964   0.88444   0.00000  Uiso   1.00
F638   F     0.10145   0.20369   0.61556   0.00000  Uiso   1.00
F639   F     0.10291   0.20592   0.88088   0.00000  Uiso   1.00
F640   F     0.23042   0.12741   0.61912   0.00000  Uiso   1.00
F641   F     0.06891   0.22711   0.95246   0.00000  Uiso   1.00
F642   F     0.26442   0.10623   0.54754   0.00000  Uiso   1.00
F643   F     0.06857   0.22670   0.54228   0.00000  Uiso   1.00
F644   F     0.26476   0.10663   0.95772   0.00000  Uiso   1.00
F645   F     0.04056   0.08523   0.75173   0.00000  Uiso   1.00
F646   F     0.29277   0.24810   0.74827   0.00000  Uiso   1.00
F647   F     0.29253   0.08532   0.74662   0.00000  Uiso   1.00
F648   F     0.04080   0.24801   0.75338   0.00000  Uiso   1.00
N649   N     0.20351   0.04697   0.82148   0.00000  Uiso   1.00
O650   O     0.24146   0.06063   0.81798   0.00000  Uiso   1.00
O651   O     0.18655   0.04655   0.86064   0.00000  Uiso   1.00
N652   N     0.12983   0.28637   0.67852   0.00000  Uiso   1.00
O653   O     0.09187   0.27271   0.68202   0.00000  Uiso   1.00
O654   O     0.14679   0.28678   0.63936   0.00000  Uiso   1.00
N655   N     0.13033   0.04755   0.67812   0.00000  Uiso   1.00
O656   O     0.14748   0.04720   0.63906   0.00000  Uiso   1.00
O657   O     0.09323   0.06358   0.68172   0.00000  Uiso   1.00
N658   N     0.20300   0.28578   0.82188   0.00000  Uiso   1.00
O659   O     0.18585   0.28613   0.86094   0.00000  Uiso   1.00
O660   O     0.24010   0.26975   0.81828   0.00000  Uiso   1.00
O661   O     0.43892   0.20487   0.74999   0.00000  Uiso   1.00
O662   O     0.56108   0.12846   0.75001   0.00000  Uiso   1.00
O663   O     0.56108   0.20487   0.75000   0.00000  Uiso   1.00
O664   O     0.43892   0.12846   0.74999   0.00000  Uiso   1.00
C665   C     0.42004   0.16665   0.75056   0.00000  Uiso   1.00
C666   C     0.57996   0.16669   0.74944   0.00000  Uiso   1.00
O667   O     0.49999   0.20489   0.68392   0.00000  Uiso   1.00
O668   O     0.50001   0.12844   0.81607   0.00000  Uiso   1.00
O669   O     0.50001   0.20489   0.81607   0.00000  Uiso   1.00
O670   O     0.49999   0.12844   0.68392   0.00000  Uiso   1.00
C671   C     0.49980   0.16671   0.66362   0.00000  Uiso   1.00
C672   C     0.50020   0.16662   0.83638   0.00000  Uiso   1.00
Zn673  Zn    0.50000   0.21771   0.75000   0.00000  Uiso   1.00
Zn674  Zn    0.50000   0.11563   0.75000   0.00000  Uiso   1.00
C675   C     0.53313   0.14699   0.90744   0.00000  Uiso   1.00
C676   C     0.46687   0.18635   0.59256   0.00000  Uiso   1.00
C677   C     0.50021   0.16669   0.88405   0.00000  Uiso   1.00
C678   C     0.49979   0.16664   0.61595   0.00000  Uiso   1.00
C679   C     0.46753   0.18709   0.90566   0.00000  Uiso   1.00
C680   C     0.53247   0.14624   0.59434   0.00000  Uiso   1.00
C681   C     0.46702   0.18725   0.95225   0.00000  Uiso   1.00
C682   C     0.53297   0.14608   0.54775   0.00000  Uiso   1.00
C683   C     0.50008   0.16676   0.97658   0.00000  Uiso   1.00
C684   C     0.49992   0.16658   0.52342   0.00000  Uiso   1.00
C685   C     0.53334   0.14652   0.95404   0.00000  Uiso   1.00
C686   C     0.46666   0.18681   0.54595   0.00000  Uiso   1.00
C687   C     0.43427   0.20722   0.97498   0.00000  Uiso   1.00
C688   C     0.56573   0.12612   0.52502   0.00000  Uiso   1.00
C689   C     0.43407   0.20695   0.52147   0.00000  Uiso   1.00
C690   C     0.56593   0.12638   0.97853   0.00000  Uiso   1.00
C691   C     0.35441   0.12564   0.75044   0.00000  Uiso   1.00
C692   C     0.64559   0.20770   0.74956   0.00000  Uiso   1.00
C693   C     0.64547   0.12567   0.74875   0.00000  Uiso   1.00
C694   C     0.35453   0.20766   0.75125   0.00000  Uiso   1.00
C695   C     0.62415   0.16670   0.74894   0.00000  Uiso   1.00
C696   C     0.37585   0.16664   0.75106   0.00000  Uiso   1.00
C697   C     0.51741   0.02377   0.78498   0.00000  Uiso   1.00
C698   C     0.48259   0.30957   0.71502   0.00000  Uiso   1.00
C699   C     0.48261   0.02406   0.71498   0.00000  Uiso   1.00
C700   C     0.51739   0.30927   0.78502   0.00000  Uiso   1.00
N701   N     0.50000   0.28573   0.75000   0.00000  Uiso   1.00
N702   N     0.50000   0.04760   0.75000   0.00000  Uiso   1.00
F703   F     0.56522   0.12964   0.88444   0.00000  Uiso   1.00
F704   F     0.43478   0.20369   0.61556   0.00000  Uiso   1.00
F705   F     0.43624   0.20592   0.88088   0.00000  Uiso   1.00
F706   F     0.56376   0.12741   0.61912   0.00000  Uiso   1.00
F707   F     0.40224   0.22711   0.95246   0.00000  Uiso   1.00
F708   F     0.59776   0.10623   0.54754   0.00000  Uiso   1.00
F709   F     0.40190   0.22670   0.54228   0.00000  Uiso   1.00
F710   F     0.59810   0.10663   0.95772   0.00000  Uiso   1.00
F711   F     0.37390   0.08523   0.75173   0.00000  Uiso   1.00
F712   F     0.62610   0.24810   0.74827   0.00000  Uiso   1.00
F713   F     0.62586   0.08532   0.74662   0.00000  Uiso   1.00
F714   F     0.37414   0.24801   0.75338   0.00000  Uiso   1.00
N715   N     0.53684   0.04697   0.82148   0.00000  Uiso   1.00
O716   O     0.57479   0.06063   0.81798   0.00000  Uiso   1.00
O717   O     0.51988   0.04655   0.86064   0.00000  Uiso   1.00
N718   N     0.46316   0.28637   0.67852   0.00000  Uiso   1.00
O719   O     0.42521   0.27271   0.68202   0.00000  Uiso   1.00
O720   O     0.48012   0.28678   0.63936   0.00000  Uiso   1.00
N721   N     0.46367   0.04755   0.67812   0.00000  Uiso   1.00
O722   O     0.48081   0.04720   0.63906   0.00000  Uiso   1.00
O723   O     0.42656   0.06358   0.68172   0.00000  Uiso   1.00
N724   N     0.53633   0.28578   0.82188   0.00000  Uiso   1.00
O725   O     0.51919   0.28613   0.86094   0.00000  Uiso   1.00
O726   O     0.57344   0.26975   0.81828   0.00000  Uiso   1.00
O727   O     0.77226   0.20487   0.74999   0.00000  Uiso   1.00
O728   O     0.89441   0.12846   0.75001   0.00000  Uiso   1.00
O729   O     0.89441   0.20487   0.75000   0.00000  Uiso   1.00
O730   O     0.77226   0.12846   0.74999   0.00000  Uiso   1.00
C731   C     0.75337   0.16665   0.75056   0.00000  Uiso   1.00
C732   C     0.91329   0.16669   0.74944   0.00000  Uiso   1.00
O733   O     0.83333   0.20489   0.68392   0.00000  Uiso   1.00
O734   O     0.83334   0.12844   0.81607   0.00000  Uiso   1.00
O735   O     0.83334   0.20489   0.81607   0.00000  Uiso   1.00
O736   O     0.83333   0.12844   0.68392   0.00000  Uiso   1.00
C737   C     0.83314   0.16671   0.66362   0.00000  Uiso   1.00
C738   C     0.83353   0.16662   0.83638   0.00000  Uiso   1.00
Zn739  Zn    0.83333   0.21771   0.75000   0.00000  Uiso   1.00
Zn740  Zn    0.83333   0.11563   0.75000   0.00000  Uiso   1.00
C741   C     0.86647   0.14699   0.90744   0.00000  Uiso   1.00
C742   C     0.80020   0.18635   0.59256   0.00000  Uiso   1.00
C743   C     0.83354   0.16669   0.88405   0.00000  Uiso   1.00
C744   C     0.83312   0.16664   0.61595   0.00000  Uiso   1.00
C745   C     0.80087   0.18709   0.90566   0.00000  Uiso   1.00
C746   C     0.86580   0.14624   0.59434   0.00000  Uiso   1.00
C747   C     0.80036   0.18725   0.95225   0.00000  Uiso   1.00
C748   C     0.86631   0.14608   0.54775   0.00000  Uiso   1.00
C749   C     0.83341   0.16676   0.97658   0.00000  Uiso   1.00
C750   C     0.83325   0.16658   0.52342   0.00000  Uiso   1.00
C751   C     0.86667   0.14652   0.95404   0.00000  Uiso   1.00
C752   C     0.80000   0.18681   0.54595   0.00000  Uiso   1.00
C753   C     0.76760   0.20722   0.97498   0.00000  Uiso   1.00
C754   C     0.89906   0.12612   0.52502   0.00000  Uiso   1.00
C755   C     0.76740   0.20695   0.52147   0.00000  Uiso   1.00
C756   C     0.89927   0.12638   0.97853   0.00000  Uiso   1.00
C757   C     0.68774   0.12564   0.75044   0.00000  Uiso   1.00
C758   C     0.97892   0.20770   0.74956   0.00000  Uiso   1.00
C759   C     0.97880   0.12567   0.74875   0.00000  Uiso   1.00
C760   C     0.68786   0.20766   0.75125   0.00000  Uiso   1.00
C761   C     0.95748   0.16670   0.74894   0.00000  Uiso   1.00
C762   C     0.70919   0.16664   0.75106   0.00000  Uiso   1.00
C763   C     0.85075   0.02377   0.78498   0.00000  Uiso   1.00
C764   C     0.81592   0.30957   0.71502   0.00000  Uiso   1.00
C765   C     0.81594   0.02406   0.71498   0.00000  Uiso   1.00
C766   C     0.85072   0.30927   0.78502   0.00000  Uiso   1.00
N767   N     0.83333   0.28573   0.75000   0.00000  Uiso   1.00
N768   N     0.83333   0.04760   0.75000   0.00000  Uiso   1.00
F769   F     0.89855   0.12964   0.88444   0.00000  Uiso   1.00
F770   F     0.76811   0.20369   0.61556   0.00000  Uiso   1.00
F771   F     0.76958   0.20592   0.88088   0.00000  Uiso   1.00
F772   F     0.89709   0.12741   0.61912   0.00000  Uiso   1.00
F773   F     0.73558   0.22711   0.95246   0.00000  Uiso   1.00
F774   F     0.93109   0.10623   0.54754   0.00000  Uiso   1.00
F775   F     0.73524   0.22670   0.54228   0.00000  Uiso   1.00
F776   F     0.93143   0.10663   0.95772   0.00000  Uiso   1.00
F777   F     0.70723   0.08523   0.75173   0.00000  Uiso   1.00
F778   F     0.95944   0.24810   0.74827   0.00000  Uiso   1.00
F779   F     0.95920   0.08532   0.74662   0.00000  Uiso   1.00
F780   F     0.70747   0.24801   0.75338   0.00000  Uiso   1.00
N781   N     0.87017   0.04697   0.82148   0.00000  Uiso   1.00
O782   O     0.90813   0.06063   0.81798   0.00000  Uiso   1.00
O783   O     0.85321   0.04655   0.86064   0.00000  Uiso   1.00
N784   N     0.79649   0.28637   0.67852   0.00000  Uiso   1.00
O785   O     0.75854   0.27271   0.68202   0.00000  Uiso   1.00
O786   O     0.81345   0.28678   0.63936   0.00000  Uiso   1.00
N787   N     0.79700   0.04755   0.67812   0.00000  Uiso   1.00
O788   O     0.81415   0.04720   0.63906   0.00000  Uiso   1.00
O789   O     0.75990   0.06358   0.68172   0.00000  Uiso   1.00
N790   N     0.86967   0.28578   0.82188   0.00000  Uiso   1.00
O791   O     0.85252   0.28613   0.86094   0.00000  Uiso   1.00
O792   O     0.90677   0.26975   0.81828   0.00000  Uiso   1.00
O793   O     0.10559   0.53821   0.74999   0.00000  Uiso   1.00
O794   O     0.22774   0.46179   0.75001   0.00000  Uiso   1.00
O795   O     0.22774   0.53821   0.75000   0.00000  Uiso   1.00
O796   O     0.10559   0.46179   0.74999   0.00000  Uiso   1.00
C797   C     0.08671   0.49998   0.75056   0.00000  Uiso   1.00
C798   C     0.24663   0.50002   0.74944   0.00000  Uiso   1.00
O799   O     0.16666   0.53823   0.68392   0.00000  Uiso   1.00
O800   O     0.16667   0.46177   0.81607   0.00000  Uiso   1.00
O801   O     0.16667   0.53823   0.81607   0.00000  Uiso   1.00
O802   O     0.16666   0.46177   0.68392   0.00000  Uiso   1.00
C803   C     0.16647   0.50004   0.66362   0.00000  Uiso   1.00
C804   C     0.16686   0.49996   0.83638   0.00000  Uiso   1.00
Zn805  Zn    0.16667   0.55104   0.75000   0.00000  Uiso   1.00
Zn806  Zn    0.16667   0.44896   0.75000   0.00000  Uiso   1.00
C807   C     0.19980   0.48032   0.90744   0.00000  Uiso   1.00
C808   C     0.13353   0.51968   0.59256   0.00000  Uiso   1.00
C809   C     0.16687   0.50003   0.88405   0.00000  Uiso   1.00
C810   C     0.16646   0.49997   0.61595   0.00000  Uiso   1.00
C811   C     0.13420   0.52043   0.90566   0.00000  Uiso   1.00
C812   C     0.19913   0.47957   0.59434   0.00000  Uiso   1.00
C813   C     0.13369   0.52059   0.95225   0.00000  Uiso   1.00
C814   C     0.19964   0.47941   0.54775   0.00000  Uiso   1.00
C815   C     0.16675   0.50009   0.97658   0.00000  Uiso   1.00
C816   C     0.16659   0.49991   0.52342   0.00000  Uiso   1.00
C817   C     0.20000   0.47986   0.95404   0.00000  Uiso   1.00
C818   C     0.13333   0.52014   0.54595   0.00000  Uiso   1.00
C819   C     0.10094   0.54055   0.97498   0.00000  Uiso   1.00
C820   C     0.23240   0.45945   0.52502   0.00000  Uiso   1.00
C821   C     0.10073   0.54029   0.52147   0.00000  Uiso   1.00
C822   C     0.23260   0.45971   0.97853   0.00000  Uiso   1.00
C823   C     0.02108   0.45897   0.75044   0.00000  Uiso   1.00
C824   C     0.31226   0.54103   0.74956   0.00000  Uiso   1.00
C825   C     0.31214   0.45901   0.74875   0.00000  Uiso   1.00
C826   C     0.02120   0.54099   0.75125   0.00000  Uiso   1.00
C827   C     0.29081   0.50003   0.74894   0.00000  Uiso   1.00
C828   C     0.04252   0.49997   0.75106   0.00000  Uiso   1.00
C829   C     0.18408   0.35710   0.78498   0.00000  Uiso   1.00
C830   C     0.14925   0.64290   0.71502   0.00000  Uiso   1.00
C831   C     0.14928   0.35739   0.71498   0.00000  Uiso   1.00
C832   C     0.18406   0.64261   0.78502   0.00000  Uiso   1.00
N833   N     0.16667   0.61907   0.75000   0.00000  Uiso   1.00
N834   N     0.16667   0.38093   0.75000   0.00000  Uiso   1.00
F835   F     0.23188   0.46298   0.88444   0.00000  Uiso   1.00
F836   F     0.10145   0.53702   0.61556   0.00000  Uiso   1.00
F837   F     0.10291   0.53925   0.88088   0.00000  Uiso   1.00
F838   F     0.23042   0.46075   0.61912   0.00000  Uiso   1.00
F839   F     0.06891   0.56044   0.95246   0.00000  Uiso   1.00
F840   F     0.26442   0.43956   0.54754   0.00000  Uiso   1.00
F841   F     0.06857   0.56004   0.54228   0.00000  Uiso   1.00
F842   F     0.26476   0.43996   0.95772   0.00000  Uiso   1.00
F843   F     0.04056   0.41856   0.75173   0.00000  Uiso   1.00
F844   F     0.29277   0.58144   0.74827   0.00000  Uiso   1.00
F845   F     0.29253   0.41865   0.74662   0.00000  Uiso   1.00
F846   F     0.04080   0.58135   0.75338   0.00000  Uiso   1.00
N847   N     0.20351   0.38030   0.82148   0.00000  Uiso   1.00
O848   O     0.24146   0.39396   0.81798   0.00000  Uiso   1.00
O849   O     0.18655   0.37988   0.86064   0.00000  Uiso   1.00
N850   N     0.12983   0.61970   0.67852   0.00000  Uiso   1.00
O851   O     0.09187   0.60604   0.68202   0.00000  Uiso   1.00
O852   O     0.14679   0.62012   0.63936   0.00000  Uiso   1.00
N853   N     0.13033   0.38088   0.67812   0.00000  Uiso   1.00
O854   O     0.14748   0.38053   0.63906   0.00000  Uiso   1.00
O855   O     0.09323   0.39692   0.68172   0.00000  Uiso   1.00
N856   N     0.20300   0.61912   0.82188   0.00000  Uiso   1.00
O857   O     0.18585   0.61947   0.86094   0.00000  Uiso   1.00
O858   O     0.24010   0.60308   0.81828   0.00000  Uiso   1.00
O859   O     0.43892   0.53821   0.74999   0.00000  Uiso   1.00
O860   O     0.56108   0.46179   0.75001   0.00000  Uiso   1.00
O861   O     0.56108   0.53821   0.75000   0.00000  Uiso   1.00
O862   O     0.43892   0.46179   0.74999   0.00000  Uiso   1.00
C863   C     0.42004   0.49998   0.75056   0.00000  Uiso   1.00
C864   C     0.57996   0.50002   0.74944   0.00000  Uiso   1.00
O865   O     0.49999   0.53823   0.68392   0.00000  Uiso   1.00
O866   O     0.50001   0.46177   0.81607   0.00000  Uiso   1.00
O867   O     0.50001   0.53823   0.81607   0.00000  Uiso   1.00
O868   O     0.49999   0.46177   0.68392   0.00000  Uiso   1.00
C869   C     0.49980   0.50004   0.66362   0.00000  Uiso   1.00
C870   C     0.50020   0.49996   0.83638   0.00000  Uiso   1.00
Zn871  Zn    0.50000   0.55104   0.75000   0.00000  Uiso   1.00
Zn872  Zn    0.50000   0.44896   0.75000   0.00000  Uiso   1.00
C873   C     0.53313   0.48032   0.90744   0.00000  Uiso   1.00
C874   C     0.46687   0.51968   0.59256   0.00000  Uiso   1.00
C875   C     0.50021   0.50003   0.88405   0.00000  Uiso   1.00
C876   C     0.49979   0.49997   0.61595   0.00000  Uiso   1.00
C877   C     0.46753   0.52043   0.90566   0.00000  Uiso   1.00
C878   C     0.53247   0.47957   0.59434   0.00000  Uiso   1.00
C879   C     0.46702   0.52059   0.95225   0.00000  Uiso   1.00
C880   C     0.53297   0.47941   0.54775   0.00000  Uiso   1.00
C881   C     0.50008   0.50009   0.97658   0.00000  Uiso   1.00
C882   C     0.49992   0.49991   0.52342   0.00000  Uiso   1.00
C883   C     0.53334   0.47986   0.95404   0.00000  Uiso   1.00
C884   C     0.46666   0.52014   0.54595   0.00000  Uiso   1.00
C885   C     0.43427   0.54055   0.97498   0.00000  Uiso   1.00
C886   C     0.56573   0.45945   0.52502   0.00000  Uiso   1.00
C887   C     0.43407   0.54029   0.52147   0.00000  Uiso   1.00
C888   C     0.56593   0.45971   0.97853   0.00000  Uiso   1.00
C889   C     0.35441   0.45897   0.75044   0.00000  Uiso   1.00
C890   C     0.64559   0.54103   0.74956   0.00000  Uiso   1.00
C891   C     0.64547   0.45901   0.74875   0.00000  Uiso   1.00
C892   C     0.35453   0.54099   0.75125   0.00000  Uiso   1.00
C893   C     0.62415   0.50003   0.74894   0.00000  Uiso   1.00
C894   C     0.37585   0.49997   0.75106   0.00000  Uiso   1.00
C895   C     0.51741   0.35710   0.78498   0.00000  Uiso   1.00
C896   C     0.48259   0.64290   0.71502   0.00000  Uiso   1.00
C897   C     0.48261   0.35739   0.71498   0.00000  Uiso   1.00
C898   C     0.51739   0.64261   0.78502   0.00000  Uiso   1.00
N899   N     0.50000   0.61907   0.75000   0.00000  Uiso   1.00
N900   N     0.50000   0.38093   0.75000   0.00000  Uiso   1.00
F901   F     0.56522   0.46298   0.88444   0.00000  Uiso   1.00
F902   F     0.43478   0.53702   0.61556   0.00000  Uiso   1.00
F903   F     0.43624   0.53925   0.88088   0.00000  Uiso   1.00
F904   F     0.56376   0.46075   0.61912   0.00000  Uiso   1.00
F905   F     0.40224   0.56044   0.95246   0.00000  Uiso   1.00
F906   F     0.59776   0.43956   0.54754   0.00000  Uiso   1.00
F907   F     0.40190   0.56004   0.54228   0.00000  Uiso   1.00
F908   F     0.59810   0.43996   0.95772   0.00000  Uiso   1.00
F909   F     0.37390   0.41856   0.75173   0.00000  Uiso   1.00
F910   F     0.62610   0.58144   0.74827   0.00000  Uiso   1.00
F911   F     0.62586   0.41865   0.74662   0.00000  Uiso   1.00
F912   F     0.37414   0.58135   0.75338   0.00000  Uiso   1.00
N913   N     0.53684   0.38030   0.82148   0.00000  Uiso   1.00
O914   O     0.57479   0.39396   0.81798   0.00000  Uiso   1.00
O915   O     0.51988   0.37988   0.86064   0.00000  Uiso   1.00
N916   N     0.46316   0.61970   0.67852   0.00000  Uiso   1.00
O917   O     0.42521   0.60604   0.68202   0.00000  Uiso   1.00
O918   O     0.48012   0.62012   0.63936   0.00000  Uiso   1.00
N919   N     0.46367   0.38088   0.67812   0.00000  Uiso   1.00
O920   O     0.48081   0.38053   0.63906   0.00000  Uiso   1.00
O921   O     0.42656   0.39692   0.68172   0.00000  Uiso   1.00
N922   N     0.53633   0.61912   0.82188   0.00000  Uiso   1.00
O923   O     0.51919   0.61947   0.86094   0.00000  Uiso   1.00
O924   O     0.57344   0.60308   0.81828   0.00000  Uiso   1.00
O925   O     0.77226   0.53821   0.74999   0.00000  Uiso   1.00
O926   O     0.89441   0.46179   0.75001   0.00000  Uiso   1.00
O927   O     0.89441   0.53821   0.75000   0.00000  Uiso   1.00
O928   O     0.77226   0.46179   0.74999   0.00000  Uiso   1.00
C929   C     0.75337   0.49998   0.75056   0.00000  Uiso   1.00
C930   C     0.91329   0.50002   0.74944   0.00000  Uiso   1.00
O931   O     0.83333   0.53823   0.68392   0.00000  Uiso   1.00
O932   O     0.83334   0.46177   0.81607   0.00000  Uiso   1.00
O933   O     0.83334   0.53823   0.81607   0.00000  Uiso   1.00
O934   O     0.83333   0.46177   0.68392   0.00000  Uiso   1.00
C935   C     0.83314   0.50004   0.66362   0.00000  Uiso   1.00
C936   C     0.83353   0.49996   0.83638   0.00000  Uiso   1.00
Zn937  Zn    0.83333   0.55104   0.75000   0.00000  Uiso   1.00
Zn938  Zn    0.83333   0.44896   0.75000   0.00000  Uiso   1.00
C939   C     0.86647   0.48032   0.90744   0.00000  Uiso   1.00
C940   C     0.80020   0.51968   0.59256   0.00000  Uiso   1.00
C941   C     0.83354   0.50003   0.88405   0.00000  Uiso   1.00
C942   C     0.83312   0.49997   0.61595   0.00000  Uiso   1.00
C943   C     0.80087   0.52043   0.90566   0.00000  Uiso   1.00
C944   C     0.86580   0.47957   0.59434   0.00000  Uiso   1.00
C945   C     0.80036   0.52059   0.95225   0.00000  Uiso   1.00
C946   C     0.86631   0.47941   0.54775   0.00000  Uiso   1.00
C947   C     0.83341   0.50009   0.97658   0.00000  Uiso   1.00
C948   C     0.83325   0.49991   0.52342   0.00000  Uiso   1.00
C949   C     0.86667   0.47986   0.95404   0.00000  Uiso   1.00
C950   C     0.80000   0.52014   0.54595   0.00000  Uiso   1.00
C951   C     0.76760   0.54055   0.97498   0.00000  Uiso   1.00
C952   C     0.89906   0.45945   0.52502   0.00000  Uiso   1.00
C953   C     0.76740   0.54029   0.52147   0.00000  Uiso   1.00
C954   C     0.89927   0.45971   0.97853   0.00000  Uiso   1.00
C955   C     0.68774   0.45897   0.75044   0.00000  Uiso   1.00
C956   C     0.97892   0.54103   0.74956   0.00000  Uiso   1.00
C957   C     0.97880   0.45901   0.74875   0.00000  Uiso   1.00
C958   C     0.68786   0.54099   0.75125   0.00000  Uiso   1.00
C959   C     0.95748   0.50003   0.74894   0.00000  Uiso   1.00
C960   C     0.70919   0.49997   0.75106   0.00000  Uiso   1.00
C961   C     0.85075   0.35710   0.78498   0.00000  Uiso   1.00
C962   C     0.81592   0.64290   0.71502   0.00000  Uiso   1.00
C963   C     0.81594   0.35739   0.71498   0.00000  Uiso   1.00
C964   C     0.85072   0.64261   0.78502   0.00000  Uiso   1.00
N965   N     0.83333   0.61907   0.75000   0.00000  Uiso   1.00
N966   N     0.83333   0.38093   0.75000   0.00000  Uiso   1.00
F967   F     0.89855   0.46298   0.88444   0.00000  Uiso   1.00
F968   F     0.76811   0.53702   0.61556   0.00000  Uiso   1.00
F969   F     0.76958   0.53925   0.88088   0.00000  Uiso   1.00
F970   F     0.89709   0.46075   0.61912   0.00000  Uiso   1.00
F971   F     0.73558   0.56044   0.95246   0.00000  Uiso   1.00
F972   F     0.93109   0.43956   0.54754   0.00000  Uiso   1.00
F973   F     0.73524   0.56004   0.54228   0.00000  Uiso   1.00
F974   F     0.93143   0.43996   0.95772   0.00000  Uiso   1.00
F975   F     0.70723   0.41856   0.75173   0.00000  Uiso   1.00
F976   F     0.95944   0.58144   0.74827   0.00000  Uiso   1.00
F977   F     0.95920   0.41865   0.74662   0.00000  Uiso   1.00
F978   F     0.70747   0.58135   0.75338   0.00000  Uiso   1.00
N979   N     0.87017   0.38030   0.82148   0.00000  Uiso   1.00
O980   O     0.90813   0.39396   0.81798   0.00000  Uiso   1.00
O981   O     0.85321   0.37988   0.86064   0.00000  Uiso   1.00
N982   N     0.79649   0.61970   0.67852   0.00000  Uiso   1.00
O983   O     0.75854   0.60604   0.68202   0.00000  Uiso   1.00
O984   O     0.81345   0.62012   0.63936   0.00000  Uiso   1.00
N985   N     0.79700   0.38088   0.67812   0.00000  Uiso   1.00
O986   O     0.81415   0.38053   0.63906   0.00000  Uiso   1.00
O987   O     0.75990   0.39692   0.68172   0.00000  Uiso   1.00
N988   N     0.86967   0.61912   0.82188   0.00000  Uiso   1.00
O989   O     0.85252   0.61947   0.86094   0.00000  Uiso   1.00
O990   O     0.90677   0.60308   0.81828   0.00000  Uiso   1.00
O991   O     0.10559   0.87154   0.74999   0.00000  Uiso   1.00
O992   O     0.22774   0.79513   0.75001   0.00000  Uiso   1.00
O993   O     0.22774   0.87154   0.75000   0.00000  Uiso   1.00
O994   O     0.10559   0.79513   0.74999   0.00000  Uiso   1.00
C995   C     0.08671   0.83331   0.75056   0.00000  Uiso   1.00
C996   C     0.24663   0.83335   0.74944   0.00000  Uiso   1.00
O997   O     0.16666   0.87156   0.68392   0.00000  Uiso   1.00
O998   O     0.16667   0.79511   0.81607   0.00000  Uiso   1.00
O999   O     0.16667   0.87156   0.81607   0.00000  Uiso   1.00
O1000  O     0.16666   0.79511   0.68392   0.00000  Uiso   1.00
C1001  C     0.16647   0.83338   0.66362   0.00000  Uiso   1.00
C1002  C     0.16686   0.83329   0.83638   0.00000  Uiso   1.00
Zn1003 Zn    0.16667   0.88437   0.75000   0.00000  Uiso   1.00
Zn1004 Zn    0.16667   0.78229   0.75000   0.00000  Uiso   1.00
C1005  C     0.19980   0.81365   0.90744   0.00000  Uiso   1.00
C1006  C     0.13353   0.85301   0.59256   0.00000  Uiso   1.00
C1007  C     0.16687   0.83336   0.88405   0.00000  Uiso   1.00
C1008  C     0.16646   0.83331   0.61595   0.00000  Uiso   1.00
C1009  C     0.13420   0.85376   0.90566   0.00000  Uiso   1.00
C1010  C     0.19913   0.81291   0.59434   0.00000  Uiso   1.00
C1011  C     0.13369   0.85392   0.95225   0.00000  Uiso   1.00
C1012  C     0.19964   0.81275   0.54775   0.00000  Uiso   1.00
C1013  C     0.16675   0.83342   0.97658   0.00000  Uiso   1.00
C1014  C     0.16659   0.83325   0.52342   0.00000  Uiso   1.00
C1015  C     0.20000   0.81319   0.95404   0.00000  Uiso   1.00
C1016  C     0.13333   0.85348   0.54595   0.00000  Uiso   1.00
C1017  C     0.10094   0.87388   0.97498   0.00000  Uiso   1.00
C1018  C     0.23240   0.79278   0.52502   0.00000  Uiso   1.00
C1019  C     0.10073   0.87362   0.52147   0.00000  Uiso   1.00
C1020  C     0.23260   0.79305   0.97853   0.00000  Uiso   1.00
C1021  C     0.02108   0.79230   0.75044   0.00000  Uiso   1.00
C1022  C     0.31226   0.87436   0.74956   0.00000  Uiso   1.00
C1023  C     0.31214   0.79234   0.74875   0.00000  Uiso   1.00
C1024  C     0.02120   0.87433   0.75125   0.00000  Uiso   1.00
C1025  C     0.29081   0.83336   0.74894   0.00000  Uiso   1.00
C1026  C     0.04252   0.83330   0.75106   0.00000  Uiso   1.00
C1027  C     0.18408   0.69043   0.78498   0.00000  Uiso   1.00
C1028  C     0.14925   0.97623   0.71502   0.00000  Uiso   1.00
C1029  C     0.14928   0.69073   0.71498   0.00000  Uiso   1.00
C1030  C     0.18406   0.97594   0.78502   0.00000  Uiso   1.00
N1031  N     0.16667   0.95240   0.75000   0.00000  Uiso   1.00
N1032  N     0.16667   0.71427   0.75000   0.00000  Uiso   1.00
F1033  F     0.23188   0.79631   0.88444   0.00000  Uiso   1.00
F1034  F     0.10145   0.87036   0.61556   0.00000  Uiso   1.00
F1035  F     0.10291   0.87259   0.88088   0.00000  Uiso   1.00
F1036  F     0.23042   0.79408   0.61912   0.00000  Uiso   1.00
F1037  F     0.06891   0.89377   0.95246   0.00000  Uiso   1.00
F1038  F     0.26442   0.77289   0.54754   0.00000  Uiso   1.00
F1039  F     0.06857   0.89337   0.54228   0.00000  Uiso   1.00
F1040  F     0.26476   0.77330   0.95772   0.00000  Uiso   1.00
F1041  F     0.04056   0.75190   0.75173   0.00000  Uiso   1.00
F1042  F     0.29277   0.91477   0.74827   0.00000  Uiso   1.00
F1043  F     0.29253   0.75199   0.74662   0.00000  Uiso   1.00
F1044  F     0.04080   0.91468   0.75338   0.00000  Uiso   1.00
N1045  N     0.20351   0.71363   0.82148   0.00000  Uiso   1.00
O1046  O     0.24146   0.72729   0.81798   0.00000  Uiso   1.00
O1047  O     0.18655   0.71322   0.86064   0.00000  Uiso   1.00
N1048  N     0.12983   0.95303   0.67852   0.00000  Uiso   1.00
O1049  O     0.09187   0.93937   0.68202   0.00000  Uiso   1.00
O1050  O     0.14679   0.95345   0.63936   0.00000  Uiso   1.00
N1051  N     0.13033   0.71422   0.67812   0.00000  Uiso   1.00
O1052  O     0.14748   0.71387   0.63906   0.00000  Uiso   1.00
O1053  O     0.09323   0.73025   0.68172   0.00000  Uiso   1.00
N1054  N     0.20300   0.95245   0.82188   0.00000  Uiso   1.00
O1055  O     0.18585   0.95280   0.86094   0.00000  Uiso   1.00
O1056  O     0.24010   0.93642   0.81828   0.00000  Uiso   1.00
O1057  O     0.43892   0.87154   0.74999   0.00000  Uiso   1.00
O1058  O     0.56108   0.79513   0.75001   0.00000  Uiso   1.00
O1059  O     0.56108   0.87154   0.75000   0.00000  Uiso   1.00
O1060  O     0.43892   0.79513   0.74999   0.00000  Uiso   1.00
C1061  C     0.42004   0.83331   0.75056   0.00000  Uiso   1.00
C1062  C     0.57996   0.83335   0.74944   0.00000  Uiso   1.00
O1063  O     0.49999   0.87156   0.68392   0.00000  Uiso   1.00
O1064  O     0.50001   0.79511   0.81607   0.00000  Uiso   1.00
O1065  O     0.50001   0.87156   0.81607   0.00000  Uiso   1.00
O1066  O     0.49999   0.79511   0.68392   0.00000  Uiso   1.00
C1067  C     0.49980   0.83338   0.66362   0.00000  Uiso   1.00
C1068  C     0.50020   0.83329   0.83638   0.00000  Uiso   1.00
Zn1069 Zn    0.50000   0.88437   0.75000   0.00000  Uiso   1.00
Zn1070 Zn    0.50000   0.78229   0.75000   0.00000  Uiso   1.00
C1071  C     0.53313   0.81365   0.90744   0.00000  Uiso   1.00
C1072  C     0.46687   0.85301   0.59256   0.00000  Uiso   1.00
C1073  C     0.50021   0.83336   0.88405   0.00000  Uiso   1.00
C1074  C     0.49979   0.83331   0.61595   0.00000  Uiso   1.00
C1075  C     0.46753   0.85376   0.90566   0.00000  Uiso   1.00
C1076  C     0.53247   0.81291   0.59434   0.00000  Uiso   1.00
C1077  C     0.46702   0.85392   0.95225   0.00000  Uiso   1.00
C1078  C     0.53297   0.81275   0.54775   0.00000  Uiso   1.00
C1079  C     0.50008   0.83342   0.97658   0.00000  Uiso   1.00
C1080  C     0.49992   0.83325   0.52342   0.00000  Uiso   1.00
C1081  C     0.53334   0.81319   0.95404   0.00000  Uiso   1.00
C1082  C     0.46666   0.85348   0.54595   0.00000  Uiso   1.00
C1083  C     0.43427   0.87388   0.97498   0.00000  Uiso   1.00
C1084  C     0.56573   0.79278   0.52502   0.00000  Uiso   1.00
C1085  C     0.43407   0.87362   0.52147   0.00000  Uiso   1.00
C1086  C     0.56593   0.79305   0.97853   0.00000  Uiso   1.00
C1087  C     0.35441   0.79230   0.75044   0.00000  Uiso   1.00
C1088  C     0.64559   0.87436   0.74956   0.00000  Uiso   1.00
C1089  C     0.64547   0.79234   0.74875   0.00000  Uiso   1.00
C1090  C     0.35453   0.87433   0.75125   0.00000  Uiso   1.00
C1091  C     0.62415   0.83336   0.74894   0.00000  Uiso   1.00
C1092  C     0.37585   0.83330   0.75106   0.00000  Uiso   1.00
C1093  C     0.51741   0.69043   0.78498   0.00000  Uiso   1.00
C1094  C     0.48259   0.97623   0.71502   0.00000  Uiso   1.00
C1095  C     0.48261   0.69073   0.71498   0.00000  Uiso   1.00
C1096  C     0.51739   0.97594   0.78502   0.00000  Uiso   1.00
N1097  N     0.50000   0.95240   0.75000   0.00000  Uiso   1.00
N1098  N     0.50000   0.71427   0.75000   0.00000  Uiso   1.00
F1099  F     0.56522   0.79631   0.88444   0.00000  Uiso   1.00
F1100  F     0.43478   0.87036   0.61556   0.00000  Uiso   1.00
F1101  F     0.43624   0.87259   0.88088   0.00000  Uiso   1.00
F1102  F     0.56376   0.79408   0.61912   0.00000  Uiso   1.00
F1103  F     0.40224   0.89377   0.95246   0.00000  Uiso   1.00
F1104  F     0.59776   0.77289   0.54754   0.00000  Uiso   1.00
F1105  F     0.40190   0.89337   0.54228   0.00000  Uiso   1.00
F1106  F     0.59810   0.77330   0.95772   0.00000  Uiso   1.00
F1107  F     0.37390   0.75190   0.75173   0.00000  Uiso   1.00
F1108  F     0.62610   0.91477   0.74827   0.00000  Uiso   1.00
F1109  F     0.62586   0.75199   0.74662   0.00000  Uiso   1.00
F1110  F     0.37414   0.91468   0.75338   0.00000  Uiso   1.00
N1111  N     0.53684   0.71363   0.82148   0.00000  Uiso   1.00
O1112  O     0.57479   0.72729   0.81798   0.00000  Uiso   1.00
O1113  O     0.51988   0.71322   0.86064   0.00000  Uiso   1.00
N1114  N     0.46316   0.95303   0.67852   0.00000  Uiso   1.00
O1115  O     0.42521   0.93937   0.68202   0.00000  Uiso   1.00
O1116  O     0.48012   0.95345   0.63936   0.00000  Uiso   1.00
N1117  N     0.46367   0.71422   0.67812   0.00000  Uiso   1.00
O1118  O     0.48081   0.71387   0.63906   0.00000  Uiso   1.00
O1119  O     0.42656   0.73025   0.68172   0.00000  Uiso   1.00
N1120  N     0.53633   0.95245   0.82188   0.00000  Uiso   1.00
O1121  O     0.51919   0.95280   0.86094   0.00000  Uiso   1.00
O1122  O     0.57344   0.93642   0.81828   0.00000  Uiso   1.00
O1123  O     0.77226   0.87154   0.74999   0.00000  Uiso   1.00
O1124  O     0.89441   0.79513   0.75001   0.00000  Uiso   1.00
O1125  O     0.89441   0.87154   0.75000   0.00000  Uiso   1.00
O1126  O     0.77226   0.79513   0.74999   0.00000  Uiso   1.00
C1127  C     0.75337   0.83331   0.75056   0.00000  Uiso   1.00
C1128  C     0.91329   0.83335   0.74944   0.00000  Uiso   1.00
O1129  O     0.83333   0.87156   0.68392   0.00000  Uiso   1.00
O1130  O     0.83334   0.79511   0.81607   0.00000  Uiso   1.00
O1131  O     0.83334   0.87156   0.81607   0.00000  Uiso   1.00
O1132  O     0.83333   0.79511   0.68392   0.00000  Uiso   1.00
C1133  C     0.83314   0.83338   0.66362   0.00000  Uiso   1.00
C1134  C     0.83353   0.83329   0.83638   0.00000  Uiso   1.00
Zn1135 Zn    0.83333   0.88437   0.75000   0.00000  Uiso   1.00
Zn1136 Zn    0.83333   0.78229   0.75000   0.00000  Uiso   1.00
C1137  C     0.86647   0.81365   0.90744   0.00000  Uiso   1.00
C1138  C     0.80020   0.85301   0.59256   0.00000  Uiso   1.00
C1139  C     0.83354   0.83336   0.88405   0.00000  Uiso   1.00
C1140  C     0.83312   0.83331   0.61595   0.00000  Uiso   1.00
C1141  C     0.80087   0.85376   0.90566   0.00000  Uiso   1.00
C1142  C     0.86580   0.81291   0.59434   0.00000  Uiso   1.00
C1143  C     0.80036   0.85392   0.95225   0.00000  Uiso   1.00
C1144  C     0.86631   0.81275   0.54775   0.00000  Uiso   1.00
C1145  C     0.83341   0.83342   0.97658   0.00000  Uiso   1.00
C1146  C     0.83325   0.83325   0.52342   0.00000  Uiso   1.00
C1147  C     0.86667   0.81319   0.95404   0.00000  Uiso   1.00
C1148  C     0.80000   0.85348   0.54595   0.00000  Uiso   1.00
C1149  C     0.76760   0.87388   0.97498   0.00000  Uiso   1.00
C1150  C     0.89906   0.79278   0.52502   0.00000  Uiso   1.00
C1151  C     0.76740   0.87362   0.52147   0.00000  Uiso   1.00
C1152  C     0.89927   0.79305   0.97853   0.00000  Uiso   1.00
C1153  C     0.68774   0.79230   0.75044   0.00000  Uiso   1.00
C1154  C     0.97892   0.87436   0.74956   0.00000  Uiso   1.00
C1155  C     0.97880   0.79234   0.74875   0.00000  Uiso   1.00
C1156  C     0.68786   0.87433   0.75125   0.00000  Uiso   1.00
C1157  C     0.95748   0.83336   0.74894   0.00000  Uiso   1.00
C1158  C     0.70919   0.83330   0.75106   0.00000  Uiso   1.00
C1159  C     0.85075   0.69043   0.78498   0.00000  Uiso   1.00
C1160  C     0.81592   0.97623   0.71502   0.00000  Uiso   1.00
C1161  C     0.81594   0.69073   0.71498   0.00000  Uiso   1.00
C1162  C     0.85072   0.97594   0.78502   0.00000  Uiso   1.00
N1163  N     0.83333   0.95240   0.75000   0.00000  Uiso   1.00
N1164  N     0.83333   0.71427   0.75000   0.00000  Uiso   1.00
F1165  F     0.89855   0.79631   0.88444   0.00000  Uiso   1.00
F1166  F     0.76811   0.87036   0.61556   0.00000  Uiso   1.00
F1167  F     0.76958   0.87259   0.88088   0.00000  Uiso   1.00
F1168  F     0.89709   0.79408   0.61912   0.00000  Uiso   1.00
F1169  F     0.73558   0.89377   0.95246   0.00000  Uiso   1.00
F1170  F     0.93109   0.77289   0.54754   0.00000  Uiso   1.00
F1171  F     0.73524   0.89337   0.54228   0.00000  Uiso   1.00
F1172  F     0.93143   0.77330   0.95772   0.00000  Uiso   1.00
F1173  F     0.70723   0.75190   0.75173   0.00000  Uiso   1.00
F1174  F     0.95944   0.91477   0.74827   0.00000  Uiso   1.00
F1175  F     0.95920   0.75199   0.74662   0.00000  Uiso   1.00
F1176  F     0.70747   0.91468   0.75338   0.00000  Uiso   1.00
N1177  N     0.87017   0.71363   0.82148   0.00000  Uiso   1.00
O1178  O     0.90813   0.72729   0.81798   0.00000  Uiso   1.00
O1179  O     0.85321   0.71322   0.86064   0.00000  Uiso   1.00
N1180  N     0.79649   0.95303   0.67852   0.00000  Uiso   1.00
O1181  O     0.75854   0.93937   0.68202   0.00000  Uiso   1.00
O1182  O     0.81345   0.95345   0.63936   0.00000  Uiso   1.00
N1183  N     0.79700   0.71422   0.67812   0.00000  Uiso   1.00
O1184  O     0.81415   0.71387   0.63906   0.00000  Uiso   1.00
O1185  O     0.75990   0.73025   0.68172   0.00000  Uiso   1.00
N1186  N     0.86967   0.95245   0.82188   0.00000  Uiso   1.00
O1187  O     0.85252   0.95280   0.86094   0.00000  Uiso   1.00
O1188  O     0.90677   0.93642   0.81828   0.00000  Uiso   1.00
loop_
_geom_bond_atom_site_label_1
_geom_bond_atom_site_label_2
_geom_bond_distance
_geom_bond_site_symmetry_2
_ccdc_geom_bond_type
O1     C5      1.291   .     A
O1     Zn13    2.013   .     S
O2     Zn14    2.013   .     S
O2     C6      1.291   .     A
O3     Zn13    2.014   .     S
O3     C6      1.291   .     A
O4     Zn14    2.014   .     S
O4     C5      1.291   .     A
C5     C36     1.430   .     S
C6     C35     1.430   .     S
O7     C11     1.290   .     A
O7     Zn13    2.009   .     S
O8     C12     1.290   .     A
O8     Zn14    2.009   .     S
O9     C12     1.287   .     A
O9     Zn13    2.006   .     S
O10    C11     1.287   .     A
O10    Zn14    2.006   .     S
C11    C18     1.422   .     S
C12    C17     1.422   .     S
Zn13   N41     2.024   .     S
Zn14   N42     2.024   .     S
C15    F43     1.360   .     S
C15    C25     1.390   .     A
C15    C17     1.391   .     A
C16    F44     1.360   .     S
C16    C18     1.391   .     A
C16    C26     1.390   .     A
C17    C19     1.391   .     A
C18    C20     1.391   .     A
C19    C21     1.390   .     A
C19    F45     1.361   .     S
C20    C22     1.390   .     A
C20    F46     1.361   .     S
C21    C27     1.404   .     A
C21    C23     1.417   .     A
C22    C28     1.404   .     A
C22    C24     1.417   .     A
C23    C25     1.417   .     A
C23    C618    1.397   .     S
C24    C26     1.417   .     A
C24    C617    1.397   1_554 S
C25    C30     1.404   .     A
C26    C29     1.404   .     A
C27    F47     1.358   .     S
C27    C623    1.387   .     S
C28    F48     1.358   .     S
C28    C624    1.387   1_554 S
C29    F49     1.359   .     S
C29    C621    1.387   1_554 S
C30    F50     1.359   .     S
C30    C622    1.387   .     S
C31    C36     1.403   .     A
C31    F51     1.358   .     S
C31    C165    1.368   1_455 S
C32    C35     1.403   .     A
C32    F52     1.358   .     S
C32    C100    1.368   .     S
C33    F53     1.359   .     S
C33    C35     1.403   .     A
C33    C97     1.368   .     S
C34    F54     1.359   .     S
C34    C36     1.403   .     A
C34    C164    1.368   1_455 S
C37    N42     1.371   .     A
C37    N55     1.426   .     S
C37    C436    1.423   1_545 S
C38    N41     1.371   .     A
C38    N58     1.426   .     S
C38    C237    1.423   .     S
C39    N61     1.428   .     S
C39    N42     1.371   .     A
C39    C434    1.423   1_545 S
C40    N41     1.371   .     A
C40    N64     1.428   .     S
C40    C235    1.423   .     S
N55    O56     1.299   .     A
N55    O57     1.301   .     A
N58    O60     1.301   .     A
N58    O59     1.299   .     A
N61    O62     1.301   .     A
N61    O63     1.299   .     A
N64    O65     1.301   .     A
N64    O66     1.299   .     A
O67    C71     1.291   .     A
O67    Zn79    2.013   .     S
O68    Zn80    2.013   .     S
O68    C72     1.291   .     A
O69    Zn79    2.014   .     S
O69    C72     1.291   .     A
O70    Zn80    2.014   .     S
O70    C71     1.291   .     A
C71    C102    1.430   .     S
C72    C101    1.430   .     S
O73    C77     1.290   .     A
O73    Zn79    2.009   .     S
O74    C78     1.290   .     A
O74    Zn80    2.009   .     S
O75    C78     1.287   .     A
O75    Zn79    2.006   .     S
O76    C77     1.287   .     A
O76    Zn80    2.006   .     S
C77    C84     1.422   .     S
C78    C83     1.422   .     S
Zn79   N107    2.024   .     S
Zn80   N108    2.024   .     S
C81    F109    1.360   .     S
C81    C91     1.390   .     A
C81    C83     1.391   .     A
C82    F110    1.360   .     S
C82    C84     1.391   .     A
C82    C92     1.390   .     A
C83    C85     1.391   .     A
C84    C86     1.391   .     A
C85    C87     1.390   .     A
C85    F111    1.361   .     S
C86    C88     1.390   .     A
C86    F112    1.361   .     S
C87    C93     1.404   .     A
C87    C89     1.417   .     A
C88    C94     1.404   .     A
C88    C90     1.417   .     A
C89    C91     1.417   .     A
C89    C684    1.397   .     S
C90    C92     1.417   .     A
C90    C683    1.397   1_554 S
C91    C96     1.404   .     A
C92    C95     1.404   .     A
C93    F113    1.358   .     S
C93    C689    1.387   .     S
C94    F114    1.358   .     S
C94    C690    1.387   1_554 S
C95    F115    1.359   .     S
C95    C687    1.387   1_554 S
C96    F116    1.359   .     S
C96    C688    1.387   .     S
C97    C102    1.403   .     A
C97    F117    1.358   .     S
C98    C101    1.403   .     A
C98    F118    1.358   .     S
C98    C166    1.368   .     S
C99    F119    1.359   .     S
C99    C101    1.403   .     A
C99    C163    1.368   .     S
C100   F120    1.359   .     S
C100   C102    1.403   .     A
C103   N108    1.371   .     A
C103   N121    1.426   .     S
C103   C502    1.423   1_545 S
C104   N107    1.371   .     A
C104   N124    1.426   .     S
C104   C303    1.423   .     S
C105   N127    1.428   .     S
C105   N108    1.371   .     A
C105   C500    1.423   1_545 S
C106   N107    1.371   .     A
C106   N130    1.428   .     S
C106   C301    1.423   .     S
N121   O122    1.299   .     A
N121   O123    1.301   .     A
N124   O126    1.301   .     A
N124   O125    1.299   .     A
N127   O128    1.301   .     A
N127   O129    1.299   .     A
N130   O131    1.301   .     A
N130   O132    1.299   .     A
O133   C137    1.291   .     A
O133   Zn145   2.013   .     S
O134   Zn146   2.013   .     S
O134   C138    1.291   .     A
O135   Zn145   2.014   .     S
O135   C138    1.291   .     A
O136   Zn146   2.014   .     S
O136   C137    1.291   .     A
C137   C168    1.430   .     S
C138   C167    1.430   .     S
O139   C143    1.290   .     A
O139   Zn145   2.009   .     S
O140   C144    1.290   .     A
O140   Zn146   2.009   .     S
O141   C144    1.287   .     A
O141   Zn145   2.006   .     S
O142   C143    1.287   .     A
O142   Zn146   2.006   .     S
C143   C150    1.422   .     S
C144   C149    1.422   .     S
Zn145  N173    2.024   .     S
Zn146  N174    2.024   .     S
C147   F175    1.360   .     S
C147   C157    1.390   .     A
C147   C149    1.391   .     A
C148   F176    1.360   .     S
C148   C150    1.391   .     A
C148   C158    1.390   .     A
C149   C151    1.391   .     A
C150   C152    1.391   .     A
C151   C153    1.390   .     A
C151   F177    1.361   .     S
C152   C154    1.390   .     A
C152   F178    1.361   .     S
C153   C159    1.404   .     A
C153   C155    1.417   .     A
C154   C160    1.404   .     A
C154   C156    1.417   .     A
C155   C157    1.417   .     A
C155   C750    1.397   .     S
C156   C158    1.417   .     A
C156   C749    1.397   1_554 S
C157   C162    1.404   .     A
C158   C161    1.404   .     A
C159   F179    1.358   .     S
C159   C755    1.387   .     S
C160   F180    1.358   .     S
C160   C756    1.387   1_554 S
C161   F181    1.359   .     S
C161   C753    1.387   1_554 S
C162   F182    1.359   .     S
C162   C754    1.387   .     S
C163   C168    1.403   .     A
C163   F183    1.358   .     S
C164   C167    1.403   .     A
C164   F184    1.358   .     S
C164   C34     1.368   1_655 S
C165   F185    1.359   .     S
C165   C167    1.403   .     A
C165   C31     1.368   1_655 S
C166   F186    1.359   .     S
C166   C168    1.403   .     A
C169   N174    1.371   .     A
C169   N187    1.426   .     S
C169   C568    1.423   1_545 S
C170   N173    1.371   .     A
C170   N190    1.426   .     S
C170   C369    1.423   .     S
C171   N193    1.428   .     S
C171   N174    1.371   .     A
C171   C566    1.423   1_545 S
C172   N173    1.371   .     A
C172   N196    1.428   .     S
C172   C367    1.423   .     S
N187   O188    1.299   .     A
N187   O189    1.301   .     A
N190   O192    1.301   .     A
N190   O191    1.299   .     A
N193   O194    1.301   .     A
N193   O195    1.299   .     A
N196   O197    1.301   .     A
N196   O198    1.299   .     A
O199   C203    1.291   .     A
O199   Zn211   2.013   .     S
O200   Zn212   2.013   .     S
O200   C204    1.291   .     A
O201   Zn211   2.014   .     S
O201   C204    1.291   .     A
O202   Zn212   2.014   .     S
O202   C203    1.291   .     A
C203   C234    1.430   .     S
C204   C233    1.430   .     S
O205   C209    1.290   .     A
O205   Zn211   2.009   .     S
O206   C210    1.290   .     A
O206   Zn212   2.009   .     S
O207   C210    1.287   .     A
O207   Zn211   2.006   .     S
O208   C209    1.287   .     A
O208   Zn212   2.006   .     S
C209   C216    1.422   .     S
C210   C215    1.422   .     S
Zn211  N239    2.024   .     S
Zn212  N240    2.024   .     S
C213   F241    1.360   .     S
C213   C223    1.390   .     A
C213   C215    1.391   .     A
C214   F242    1.360   .     S
C214   C216    1.391   .     A
C214   C224    1.390   .     A
C215   C217    1.391   .     A
C216   C218    1.391   .     A
C217   C219    1.390   .     A
C217   F243    1.361   .     S
C218   C220    1.390   .     A
C218   F244    1.361   .     S
C219   C225    1.404   .     A
C219   C221    1.417   .     A
C220   C226    1.404   .     A
C220   C222    1.417   .     A
C221   C223    1.417   .     A
C221   C816    1.397   .     S
C222   C224    1.417   .     A
C222   C815    1.397   1_554 S
C223   C228    1.404   .     A
C224   C227    1.404   .     A
C225   F245    1.358   .     S
C225   C821    1.387   .     S
C226   F246    1.358   .     S
C226   C822    1.387   1_554 S
C227   F247    1.359   .     S
C227   C819    1.387   1_554 S
C228   F248    1.359   .     S
C228   C820    1.387   .     S
C229   C234    1.403   .     A
C229   F249    1.358   .     S
C229   C363    1.368   1_455 S
C230   C233    1.403   .     A
C230   F250    1.358   .     S
C230   C298    1.368   .     S
C231   F251    1.359   .     S
C231   C233    1.403   .     A
C231   C295    1.368   .     S
C232   F252    1.359   .     S
C232   C234    1.403   .     A
C232   C362    1.368   1_455 S
C235   N240    1.371   .     A
C235   N253    1.426   .     S
C236   N239    1.371   .     A
C236   N256    1.426   .     S
C236   C435    1.423   .     S
C237   N259    1.428   .     S
C237   N240    1.371   .     A
C238   N239    1.371   .     A
C238   N262    1.428   .     S
C238   C433    1.423   .     S
N253   O254    1.299   .     A
N253   O255    1.301   .     A
N256   O258    1.301   .     A
N256   O257    1.299   .     A
N259   O260    1.301   .     A
N259   O261    1.299   .     A
N262   O263    1.301   .     A
N262   O264    1.299   .     A
O265   C269    1.291   .     A
O265   Zn277   2.013   .     S
O266   Zn278   2.013   .     S
O266   C270    1.291   .     A
O267   Zn277   2.014   .     S
O267   C270    1.291   .     A
O268   Zn278   2.014   .     S
O268   C269    1.291   .     A
C269   C300    1.430   .     S
C270   C299    1.430   .     S
O271   C275    1.290   .     A
O271   Zn277   2.009   .     S
O272   C276    1.290   .     A
O272   Zn278   2.009   .     S
O273   C276    1.287   .     A
O273   Zn277   2.006   .     S
O274   C275    1.287   .     A
O274   Zn278   2.006   .     S
C275   C282    1.422   .     S
C276   C281    1.422   .     S
Zn277  N305    2.024   .     S
Zn278  N306    2.024   .     S
C279   F307    1.360   .     S
C279   C289    1.390   .     A
C279   C281    1.391   .     A
C280   F308    1.360   .     S
C280   C282    1.391   .     A
C280   C290    1.390   .     A
C281   C283    1.391   .     A
C282   C284    1.391   .     A
C283   C285    1.390   .     A
C283   F309    1.361   .     S
C284   C286    1.390   .     A
C284   F310    1.361   .     S
C285   C291    1.404   .     A
C285   C287    1.417   .     A
C286   C292    1.404   .     A
C286   C288    1.417   .     A
C287   C289    1.417   .     A
C287   C882    1.397   .     S
C288   C290    1.417   .     A
C288   C881    1.397   1_554 S
C289   C294    1.404   .     A
C290   C293    1.404   .     A
C291   F311    1.358   .     S
C291   C887    1.387   .     S
C292   F312    1.358   .     S
C292   C888    1.387   1_554 S
C293   F313    1.359   .     S
C293   C885    1.387   1_554 S
C294   F314    1.359   .     S
C294   C886    1.387   .     S
C295   C300    1.403   .     A
C295   F315    1.358   .     S
C296   C299    1.403   .     A
C296   F316    1.358   .     S
C296   C364    1.368   .     S
C297   F317    1.359   .     S
C297   C299    1.403   .     A
C297   C361    1.368   .     S
C298   F318    1.359   .     S
C298   C300    1.403   .     A
C301   N306    1.371   .     A
C301   N319    1.426   .     S
C302   N305    1.371   .     A
C302   N322    1.426   .     S
C302   C501    1.423   .     S
C303   N325    1.428   .     S
C303   N306    1.371   .     A
C304   N305    1.371   .     A
C304   N328    1.428   .     S
C304   C499    1.423   .     S
N319   O320    1.299   .     A
N319   O321    1.301   .     A
N322   O324    1.301   .     A
N322   O323    1.299   .     A
N325   O326    1.301   .     A
N325   O327    1.299   .     A
N328   O329    1.301   .     A
N328   O330    1.299   .     A
O331   C335    1.291   .     A
O331   Zn343   2.013   .     S
O332   Zn344   2.013   .     S
O332   C336    1.291   .     A
O333   Zn343   2.014   .     S
O333   C336    1.291   .     A
O334   Zn344   2.014   .     S
O334   C335    1.291   .     A
C335   C366    1.430   .     S
C336   C365    1.430   .     S
O337   C341    1.290   .     A
O337   Zn343   2.009   .     S
O338   C342    1.290   .     A
O338   Zn344   2.009   .     S
O339   C342    1.287   .     A
O339   Zn343   2.006   .     S
O340   C341    1.287   .     A
O340   Zn344   2.006   .     S
C341   C348    1.422   .     S
C342   C347    1.422   .     S
Zn343  N371    2.024   .     S
Zn344  N372    2.024   .     S
C345   F373    1.360   .     S
C345   C355    1.390   .     A
C345   C347    1.391   .     A
C346   F374    1.360   .     S
C346   C348    1.391   .     A
C346   C356    1.390   .     A
C347   C349    1.391   .     A
C348   C350    1.391   .     A
C349   C351    1.390   .     A
C349   F375    1.361   .     S
C350   C352    1.390   .     A
C350   F376    1.361   .     S
C351   C357    1.404   .     A
C351   C353    1.417   .     A
C352   C358    1.404   .     A
C352   C354    1.417   .     A
C353   C355    1.417   .     A
C353   C948    1.397   .     S
C354   C356    1.417   .     A
C354   C947    1.397   1_554 S
C355   C360    1.404   .     A
C356   C359    1.404   .     A
C357   F377    1.358   .     S
C357   C953    1.387   .     S
C358   F378    1.358   .     S
C358   C954    1.387   1_554 S
C359   F379    1.359   .     S
C359   C951    1.387   1_554 S
C360   F380    1.359   .     S
C360   C952    1.387   .     S
C361   C366    1.403   .     A
C361   F381    1.358   .     S
C362   C365    1.403   .     A
C362   F382    1.358   .     S
C362   C232    1.368   1_655 S
C363   F383    1.359   .     S
C363   C365    1.403   .     A
C363   C229    1.368   1_655 S
C364   F384    1.359   .     S
C364   C366    1.403   .     A
C367   N372    1.371   .     A
C367   N385    1.426   .     S
C368   N371    1.371   .     A
C368   N388    1.426   .     S
C368   C567    1.423   .     S
C369   N391    1.428   .     S
C369   N372    1.371   .     A
C370   N371    1.371   .     A
C370   N394    1.428   .     S
C370   C565    1.423   .     S
N385   O386    1.299   .     A
N385   O387    1.301   .     A
N388   O390    1.301   .     A
N388   O389    1.299   .     A
N391   O392    1.301   .     A
N391   O393    1.299   .     A
N394   O395    1.301   .     A
N394   O396    1.299   .     A
O397   C401    1.291   .     A
O397   Zn409   2.013   .     S
O398   Zn410   2.013   .     S
O398   C402    1.291   .     A
O399   Zn409   2.014   .     S
O399   C402    1.291   .     A
O400   Zn410   2.014   .     S
O400   C401    1.291   .     A
C401   C432    1.430   .     S
C402   C431    1.430   .     S
O403   C407    1.290   .     A
O403   Zn409   2.009   .     S
O404   C408    1.290   .     A
O404   Zn410   2.009   .     S
O405   C408    1.287   .     A
O405   Zn409   2.006   .     S
O406   C407    1.287   .     A
O406   Zn410   2.006   .     S
C407   C414    1.422   .     S
C408   C413    1.422   .     S
Zn409  N437    2.024   .     S
Zn410  N438    2.024   .     S
C411   F439    1.360   .     S
C411   C421    1.390   .     A
C411   C413    1.391   .     A
C412   F440    1.360   .     S
C412   C414    1.391   .     A
C412   C422    1.390   .     A
C413   C415    1.391   .     A
C414   C416    1.391   .     A
C415   C417    1.390   .     A
C415   F441    1.361   .     S
C416   C418    1.390   .     A
C416   F442    1.361   .     S
C417   C423    1.404   .     A
C417   C419    1.417   .     A
C418   C424    1.404   .     A
C418   C420    1.417   .     A
C419   C421    1.417   .     A
C419   C1014   1.397   .     S
C420   C422    1.417   .     A
C420   C1013   1.397   1_554 S
C421   C426    1.404   .     A
C422   C425    1.404   .     A
C423   F443    1.358   .     S
C423   C1019   1.387   .     S
C424   F444    1.358   .     S
C424   C1020   1.387   1_554 S
C425   F445    1.359   .     S
C425   C1017   1.387   1_554 S
C426   F446    1.359   .     S
C426   C1018   1.387   .     S
C427   C432    1.403   .     A
C427   F447    1.358   .     S
C427   C561    1.368   1_455 S
C428   C431    1.403   .     A
C428   F448    1.358   .     S
C428   C496    1.368   .     S
C429   F449    1.359   .     S
C429   C431    1.403   .     A
C429   C493    1.368   .     S
C430   F450    1.359   .     S
C430   C432    1.403   .     A
C430   C560    1.368   1_455 S
C433   N438    1.371   .     A
C433   N451    1.426   .     S
C434   N437    1.371   .     A
C434   N454    1.426   .     S
C434   C39     1.423   1_565 S
C435   N457    1.428   .     S
C435   N438    1.371   .     A
C436   N437    1.371   .     A
C436   N460    1.428   .     S
C436   C37     1.423   1_565 S
N451   O452    1.299   .     A
N451   O453    1.301   .     A
N454   O456    1.301   .     A
N454   O455    1.299   .     A
N457   O458    1.301   .     A
N457   O459    1.299   .     A
N460   O461    1.301   .     A
N460   O462    1.299   .     A
O463   C467    1.291   .     A
O463   Zn475   2.013   .     S
O464   Zn476   2.013   .     S
O464   C468    1.291   .     A
O465   Zn475   2.014   .     S
O465   C468    1.291   .     A
O466   Zn476   2.014   .     S
O466   C467    1.291   .     A
C467   C498    1.430   .     S
C468   C497    1.430   .     S
O469   C473    1.290   .     A
O469   Zn475   2.009   .     S
O470   C474    1.290   .     A
O470   Zn476   2.009   .     S
O471   C474    1.287   .     A
O471   Zn475   2.006   .     S
O472   C473    1.287   .     A
O472   Zn476   2.006   .     S
C473   C480    1.422   .     S
C474   C479    1.422   .     S
Zn475  N503    2.024   .     S
Zn476  N504    2.024   .     S
C477   F505    1.360   .     S
C477   C487    1.390   .     A
C477   C479    1.391   .     A
C478   F506    1.360   .     S
C478   C480    1.391   .     A
C478   C488    1.390   .     A
C479   C481    1.391   .     A
C480   C482    1.391   .     A
C481   C483    1.390   .     A
C481   F507    1.361   .     S
C482   C484    1.390   .     A
C482   F508    1.361   .     S
C483   C489    1.404   .     A
C483   C485    1.417   .     A
C484   C490    1.404   .     A
C484   C486    1.417   .     A
C485   C487    1.417   .     A
C485   C1080   1.397   .     S
C486   C488    1.417   .     A
C486   C1079   1.397   1_554 S
C487   C492    1.404   .     A
C488   C491    1.404   .     A
C489   F509    1.358   .     S
C489   C1085   1.387   .     S
C490   F510    1.358   .     S
C490   C1086   1.387   1_554 S
C491   F511    1.359   .     S
C491   C1083   1.387   1_554 S
C492   F512    1.359   .     S
C492   C1084   1.387   .     S
C493   C498    1.403   .     A
C493   F513    1.358   .     S
C494   C497    1.403   .     A
C494   F514    1.358   .     S
C494   C562    1.368   .     S
C495   F515    1.359   .     S
C495   C497    1.403   .     A
C495   C559    1.368   .     S
C496   F516    1.359   .     S
C496   C498    1.403   .     A
C499   N504    1.371   .     A
C499   N517    1.426   .     S
C500   N503    1.371   .     A
C500   N520    1.426   .     S
C500   C105    1.423   1_565 S
C501   N523    1.428   .     S
C501   N504    1.371   .     A
C502   N503    1.371   .     A
C502   N526    1.428   .     S
C502   C103    1.423   1_565 S
N517   O518    1.299   .     A
N517   O519    1.301   .     A
N520   O522    1.301   .     A
N520   O521    1.299   .     A
N523   O524    1.301   .     A
N523   O525    1.299   .     A
N526   O527    1.301   .     A
N526   O528    1.299   .     A
O529   C533    1.291   .     A
O529   Zn541   2.013   .     S
O530   Zn542   2.013   .     S
O530   C534    1.291   .     A
O531   Zn541   2.014   .     S
O531   C534    1.291   .     A
O532   Zn542   2.014   .     S
O532   C533    1.291   .     A
C533   C564    1.430   .     S
C534   C563    1.430   .     S
O535   C539    1.290   .     A
O535   Zn541   2.009   .     S
O536   C540    1.290   .     A
O536   Zn542   2.009   .     S
O537   C540    1.287   .     A
O537   Zn541   2.006   .     S
O538   C539    1.287   .     A
O538   Zn542   2.006   .     S
C539   C546    1.422   .     S
C540   C545    1.422   .     S
Zn541  N569    2.024   .     S
Zn542  N570    2.024   .     S
C543   F571    1.360   .     S
C543   C553    1.390   .     A
C543   C545    1.391   .     A
C544   F572    1.360   .     S
C544   C546    1.391   .     A
C544   C554    1.390   .     A
C545   C547    1.391   .     A
C546   C548    1.391   .     A
C547   C549    1.390   .     A
C547   F573    1.361   .     S
C548   C550    1.390   .     A
C548   F574    1.361   .     S
C549   C555    1.404   .     A
C549   C551    1.417   .     A
C550   C556    1.404   .     A
C550   C552    1.417   .     A
C551   C553    1.417   .     A
C551   C1146   1.397   .     S
C552   C554    1.417   .     A
C552   C1145   1.397   1_554 S
C553   C558    1.404   .     A
C554   C557    1.404   .     A
C555   F575    1.358   .     S
C555   C1151   1.387   .     S
C556   F576    1.358   .     S
C556   C1152   1.387   1_554 S
C557   F577    1.359   .     S
C557   C1149   1.387   1_554 S
C558   F578    1.359   .     S
C558   C1150   1.387   .     S
C559   C564    1.403   .     A
C559   F579    1.358   .     S
C560   C563    1.403   .     A
C560   F580    1.358   .     S
C560   C430    1.368   1_655 S
C561   F581    1.359   .     S
C561   C563    1.403   .     A
C561   C427    1.368   1_655 S
C562   F582    1.359   .     S
C562   C564    1.403   .     A
C565   N570    1.371   .     A
C565   N583    1.426   .     S
C566   N569    1.371   .     A
C566   N586    1.426   .     S
C566   C171    1.423   1_565 S
C567   N589    1.428   .     S
C567   N570    1.371   .     A
C568   N569    1.371   .     A
C568   N592    1.428   .     S
C568   C169    1.423   1_565 S
N583   O584    1.299   .     A
N583   O585    1.301   .     A
N586   O588    1.301   .     A
N586   O587    1.299   .     A
N589   O590    1.301   .     A
N589   O591    1.299   .     A
N592   O593    1.301   .     A
N592   O594    1.299   .     A
O595   C599    1.291   .     A
O595   Zn607   2.013   .     S
O596   Zn608   2.013   .     S
O596   C600    1.291   .     A
O597   Zn607   2.014   .     S
O597   C600    1.291   .     A
O598   Zn608   2.014   .     S
O598   C599    1.291   .     A
C599   C630    1.430   .     S
C600   C629    1.430   .     S
O601   C605    1.290   .     A
O601   Zn607   2.009   .     S
O602   C606    1.290   .     A
O602   Zn608   2.009   .     S
O603   C606    1.287   .     A
O603   Zn607   2.006   .     S
O604   C605    1.287   .     A
O604   Zn608   2.006   .     S
C605   C612    1.422   .     S
C606   C611    1.422   .     S
Zn607  N635    2.024   .     S
Zn608  N636    2.024   .     S
C609   F637    1.360   .     S
C609   C619    1.390   .     A
C609   C611    1.391   .     A
C610   F638    1.360   .     S
C610   C612    1.391   .     A
C610   C620    1.390   .     A
C611   C613    1.391   .     A
C612   C614    1.391   .     A
C613   C615    1.390   .     A
C613   F639    1.361   .     S
C614   C616    1.390   .     A
C614   F640    1.361   .     S
C615   C621    1.404   .     A
C615   C617    1.417   .     A
C616   C622    1.404   .     A
C616   C618    1.417   .     A
C617   C619    1.417   .     A
C617   C24     1.397   1_556 S
C618   C620    1.417   .     A
C619   C624    1.404   .     A
C620   C623    1.404   .     A
C621   F641    1.358   .     S
C621   C29     1.387   1_556 S
C622   F642    1.358   .     S
C623   F643    1.359   .     S
C624   F644    1.359   .     S
C624   C28     1.387   1_556 S
C625   C630    1.403   .     A
C625   F645    1.358   .     S
C625   C759    1.368   1_455 S
C626   C629    1.403   .     A
C626   F646    1.358   .     S
C626   C694    1.368   .     S
C627   F647    1.359   .     S
C627   C629    1.403   .     A
C627   C691    1.368   .     S
C628   F648    1.359   .     S
C628   C630    1.403   .     A
C628   C758    1.368   1_455 S
C631   N636    1.371   .     A
C631   N649    1.426   .     S
C631   C1030   1.423   1_545 S
C632   N635    1.371   .     A
C632   N652    1.426   .     S
C632   C831    1.423   .     S
C633   N655    1.428   .     S
C633   N636    1.371   .     A
C633   C1028   1.423   1_545 S
C634   N635    1.371   .     A
C634   N658    1.428   .     S
C634   C829    1.423   .     S
N649   O650    1.299   .     A
N649   O651    1.301   .     A
N652   O654    1.301   .     A
N652   O653    1.299   .     A
N655   O656    1.301   .     A
N655   O657    1.299   .     A
N658   O659    1.301   .     A
N658   O660    1.299   .     A
O661   C665    1.291   .     A
O661   Zn673   2.013   .     S
O662   Zn674   2.013   .     S
O662   C666    1.291   .     A
O663   Zn673   2.014   .     S
O663   C666    1.291   .     A
O664   Zn674   2.014   .     S
O664   C665    1.291   .     A
C665   C696    1.430   .     S
C666   C695    1.430   .     S
O667   C671    1.290   .     A
O667   Zn673   2.009   .     S
O668   C672    1.290   .     A
O668   Zn674   2.009   .     S
O669   C672    1.287   .     A
O669   Zn673   2.006   .     S
O670   C671    1.287   .     A
O670   Zn674   2.006   .     S
C671   C678    1.422   .     S
C672   C677    1.422   .     S
Zn673  N701    2.024   .     S
Zn674  N702    2.024   .     S
C675   F703    1.360   .     S
C675   C685    1.390   .     A
C675   C677    1.391   .     A
C676   F704    1.360   .     S
C676   C678    1.391   .     A
C676   C686    1.390   .     A
C677   C679    1.391   .     A
C678   C680    1.391   .     A
C679   C681    1.390   .     A
C679   F705    1.361   .     S
C680   C682    1.390   .     A
C680   F706    1.361   .     S
C681   C687    1.404   .     A
C681   C683    1.417   .     A
C682   C688    1.404   .     A
C682   C684    1.417   .     A
C683   C685    1.417   .     A
C683   C90     1.397   1_556 S
C684   C686    1.417   .     A
C685   C690    1.404   .     A
C686   C689    1.404   .     A
C687   F707    1.358   .     S
C687   C95     1.387   1_556 S
C688   F708    1.358   .     S
C689   F709    1.359   .     S
C690   F710    1.359   .     S
C690   C94     1.387   1_556 S
C691   C696    1.403   .     A
C691   F711    1.358   .     S
C692   C695    1.403   .     A
C692   F712    1.358   .     S
C692   C760    1.368   .     S
C693   F713    1.359   .     S
C693   C695    1.403   .     A
C693   C757    1.368   .     S
C694   F714    1.359   .     S
C694   C696    1.403   .     A
C697   N702    1.371   .     A
C697   N715    1.426   .     S
C697   C1096   1.423   1_545 S
C698   N701    1.371   .     A
C698   N718    1.426   .     S
C698   C897    1.423   .     S
C699   N721    1.428   .     S
C699   N702    1.371   .     A
C699   C1094   1.423   1_545 S
C700   N701    1.371   .     A
C700   N724    1.428   .     S
C700   C895    1.423   .     S
N715   O716    1.299   .     A
N715   O717    1.301   .     A
N718   O720    1.301   .     A
N718   O719    1.299   .     A
N721   O722    1.301   .     A
N721   O723    1.299   .     A
N724   O725    1.301   .     A
N724   O726    1.299   .     A
O727   C731    1.291   .     A
O727   Zn739   2.013   .     S
O728   Zn740   2.013   .     S
O728   C732    1.291   .     A
O729   Zn739   2.014   .     S
O729   C732    1.291   .     A
O730   Zn740   2.014   .     S
O730   C731    1.291   .     A
C731   C762    1.430   .     S
C732   C761    1.430   .     S
O733   C737    1.290   .     A
O733   Zn739   2.009   .     S
O734   C738    1.290   .     A
O734   Zn740   2.009   .     S
O735   C738    1.287   .     A
O735   Zn739   2.006   .     S
O736   C737    1.287   .     A
O736   Zn740   2.006   .     S
C737   C744    1.422   .     S
C738   C743    1.422   .     S
Zn739  N767    2.024   .     S
Zn740  N768    2.024   .     S
C741   F769    1.360   .     S
C741   C751    1.390   .     A
C741   C743    1.391   .     A
C742   F770    1.360   .     S
C742   C744    1.391   .     A
C742   C752    1.390   .     A
C743   C745    1.391   .     A
C744   C746    1.391   .     A
C745   C747    1.390   .     A
C745   F771    1.361   .     S
C746   C748    1.390   .     A
C746   F772    1.361   .     S
C747   C753    1.404   .     A
C747   C749    1.417   .     A
C748   C754    1.404   .     A
C748   C750    1.417   .     A
C749   C751    1.417   .     A
C749   C156    1.397   1_556 S
C750   C752    1.417   .     A
C751   C756    1.404   .     A
C752   C755    1.404   .     A
C753   F773    1.358   .     S
C753   C161    1.387   1_556 S
C754   F774    1.358   .     S
C755   F775    1.359   .     S
C756   F776    1.359   .     S
C756   C160    1.387   1_556 S
C757   C762    1.403   .     A
C757   F777    1.358   .     S
C758   C761    1.403   .     A
C758   F778    1.358   .     S
C758   C628    1.368   1_655 S
C759   F779    1.359   .     S
C759   C761    1.403   .     A
C759   C625    1.368   1_655 S
C760   F780    1.359   .     S
C760   C762    1.403   .     A
C763   N768    1.371   .     A
C763   N781    1.426   .     S
C763   C1162   1.423   1_545 S
C764   N767    1.371   .     A
C764   N784    1.426   .     S
C764   C963    1.423   .     S
C765   N787    1.428   .     S
C765   N768    1.371   .     A
C765   C1160   1.423   1_545 S
C766   N767    1.371   .     A
C766   N790    1.428   .     S
C766   C961    1.423   .     S
N781   O782    1.299   .     A
N781   O783    1.301   .     A
N784   O786    1.301   .     A
N784   O785    1.299   .     A
N787   O788    1.301   .     A
N787   O789    1.299   .     A
N790   O791    1.301   .     A
N790   O792    1.299   .     A
O793   C797    1.291   .     A
O793   Zn805   2.013   .     S
O794   Zn806   2.013   .     S
O794   C798    1.291   .     A
O795   Zn805   2.014   .     S
O795   C798    1.291   .     A
O796   Zn806   2.014   .     S
O796   C797    1.291   .     A
C797   C828    1.430   .     S
C798   C827    1.430   .     S
O799   C803    1.290   .     A
O799   Zn805   2.009   .     S
O800   C804    1.290   .     A
O800   Zn806   2.009   .     S
O801   C804    1.287   .     A
O801   Zn805   2.006   .     S
O802   C803    1.287   .     A
O802   Zn806   2.006   .     S
C803   C810    1.422   .     S
C804   C809    1.422   .     S
Zn805  N833    2.024   .     S
Zn806  N834    2.024   .     S
C807   F835    1.360   .     S
C807   C817    1.390   .     A
C807   C809    1.391   .     A
C808   F836    1.360   .     S
C808   C810    1.391   .     A
C808   C818    1.390   .     A
C809   C811    1.391   .     A
C810   C812    1.391   .     A
C811   C813    1.390   .     A
C811   F837    1.361   .     S
C812   C814    1.390   .     A
C812   F838    1.361   .     S
C813   C819    1.404   .     A
C813   C815    1.417   .     A
C814   C820    1.404   .     A
C814   C816    1.417   .     A
C815   C817    1.417   .     A
C815   C222    1.397   1_556 S
C816   C818    1.417   .     A
C817   C822    1.404   .     A
C818   C821    1.404   .     A
C819   F839    1.358   .     S
C819   C227    1.387   1_556 S
C820   F840    1.358   .     S
C821   F841    1.359   .     S
C822   F842    1.359   .     S
C822   C226    1.387   1_556 S
C823   C828    1.403   .     A
C823   F843    1.358   .     S
C823   C957    1.368   1_455 S
C824   C827    1.403   .     A
C824   F844    1.358   .     S
C824   C892    1.368   .     S
C825   F845    1.359   .     S
C825   C827    1.403   .     A
C825   C889    1.368   .     S
C826   F846    1.359   .     S
C826   C828    1.403   .     A
C826   C956    1.368   1_455 S
C829   N834    1.371   .     A
C829   N847    1.426   .     S
C830   N833    1.371   .     A
C830   N850    1.426   .     S
C830   C1029   1.423   .     S
C831   N853    1.428   .     S
C831   N834    1.371   .     A
C832   N833    1.371   .     A
C832   N856    1.428   .     S
C832   C1027   1.423   .     S
N847   O848    1.299   .     A
N847   O849    1.301   .     A
N850   O852    1.301   .     A
N850   O851    1.299   .     A
N853   O854    1.301   .     A
N853   O855    1.299   .     A
N856   O857    1.301   .     A
N856   O858    1.299   .     A
O859   C863    1.291   .     A
O859   Zn871   2.013   .     S
O860   Zn872   2.013   .     S
O860   C864    1.291   .     A
O861   Zn871   2.014   .     S
O861   C864    1.291   .     A
O862   Zn872   2.014   .     S
O862   C863    1.291   .     A
C863   C894    1.430   .     S
C864   C893    1.430   .     S
O865   C869    1.290   .     A
O865   Zn871   2.009   .     S
O866   C870    1.290   .     A
O866   Zn872   2.009   .     S
O867   C870    1.287   .     A
O867   Zn871   2.006   .     S
O868   C869    1.287   .     A
O868   Zn872   2.006   .     S
C869   C876    1.422   .     S
C870   C875    1.422   .     S
Zn871  N899    2.024   .     S
Zn872  N900    2.024   .     S
C873   F901    1.360   .     S
C873   C883    1.390   .     A
C873   C875    1.391   .     A
C874   F902    1.360   .     S
C874   C876    1.391   .     A
C874   C884    1.390   .     A
C875   C877    1.391   .     A
C876   C878    1.391   .     A
C877   C879    1.390   .     A
C877   F903    1.361   .     S
C878   C880    1.390   .     A
C878   F904    1.361   .     S
C879   C885    1.404   .     A
C879   C881    1.417   .     A
C880   C886    1.404   .     A
C880   C882    1.417   .     A
C881   C883    1.417   .     A
C881   C288    1.397   1_556 S
C882   C884    1.417   .     A
C883   C888    1.404   .     A
C884   C887    1.404   .     A
C885   F905    1.358   .     S
C885   C293    1.387   1_556 S
C886   F906    1.358   .     S
C887   F907    1.359   .     S
C888   F908    1.359   .     S
C888   C292    1.387   1_556 S
C889   C894    1.403   .     A
C889   F909    1.358   .     S
C890   C893    1.403   .     A
C890   F910    1.358   .     S
C890   C958    1.368   .     S
C891   F911    1.359   .     S
C891   C893    1.403   .     A
C891   C955    1.368   .     S
C892   F912    1.359   .     S
C892   C894    1.403   .     A
C895   N900    1.371   .     A
C895   N913    1.426   .     S
C896   N899    1.371   .     A
C896   N916    1.426   .     S
C896   C1095   1.423   .     S
C897   N919    1.428   .     S
C897   N900    1.371   .     A
C898   N899    1.371   .     A
C898   N922    1.428   .     S
C898   C1093   1.423   .     S
N913   O914    1.299   .     A
N913   O915    1.301   .     A
N916   O918    1.301   .     A
N916   O917    1.299   .     A
N919   O920    1.301   .     A
N919   O921    1.299   .     A
N922   O923    1.301   .     A
N922   O924    1.299   .     A
O925   C929    1.291   .     A
O925   Zn937   2.013   .     S
O926   Zn938   2.013   .     S
O926   C930    1.291   .     A
O927   Zn937   2.014   .     S
O927   C930    1.291   .     A
O928   Zn938   2.014   .     S
O928   C929    1.291   .     A
C929   C960    1.430   .     S
C930   C959    1.430   .     S
O931   C935    1.290   .     A
O931   Zn937   2.009   .     S
O932   C936    1.290   .     A
O932   Zn938   2.009   .     S
O933   C936    1.287   .     A
O933   Zn937   2.006   .     S
O934   C935    1.287   .     A
O934   Zn938   2.006   .     S
C935   C942    1.422   .     S
C936   C941    1.422   .     S
Zn937  N965    2.024   .     S
Zn938  N966    2.024   .     S
C939   F967    1.360   .     S
C939   C949    1.390   .     A
C939   C941    1.391   .     A
C940   F968    1.360   .     S
C940   C942    1.391   .     A
C940   C950    1.390   .     A
C941   C943    1.391   .     A
C942   C944    1.391   .     A
C943   C945    1.390   .     A
C943   F969    1.361   .     S
C944   C946    1.390   .     A
C944   F970    1.361   .     S
C945   C951    1.404   .     A
C945   C947    1.417   .     A
C946   C952    1.404   .     A
C946   C948    1.417   .     A
C947   C949    1.417   .     A
C947   C354    1.397   1_556 S
C948   C950    1.417   .     A
C949   C954    1.404   .     A
C950   C953    1.404   .     A
C951   F971    1.358   .     S
C951   C359    1.387   1_556 S
C952   F972    1.358   .     S
C953   F973    1.359   .     S
C954   F974    1.359   .     S
C954   C358    1.387   1_556 S
C955   C960    1.403   .     A
C955   F975    1.358   .     S
C956   C959    1.403   .     A
C956   F976    1.358   .     S
C956   C826    1.368   1_655 S
C957   F977    1.359   .     S
C957   C959    1.403   .     A
C957   C823    1.368   1_655 S
C958   F978    1.359   .     S
C958   C960    1.403   .     A
C961   N966    1.371   .     A
C961   N979    1.426   .     S
C962   N965    1.371   .     A
C962   N982    1.426   .     S
C962   C1161   1.423   .     S
C963   N985    1.428   .     S
C963   N966    1.371   .     A
C964   N965    1.371   .     A
C964   N988    1.428   .     S
C964   C1159   1.423   .     S
N979   O980    1.299   .     A
N979   O981    1.301   .     A
N982   O984    1.301   .     A
N982   O983    1.299   .     A
N985   O986    1.301   .     A
N985   O987    1.299   .     A
N988   O989    1.301   .     A
N988   O990    1.299   .     A
O991   C995    1.291   .     A
O991   Zn1003  2.013   .     S
O992   Zn1004  2.013   .     S
O992   C996    1.291   .     A
O993   Zn1003  2.014   .     S
O993   C996    1.291   .     A
O994   Zn1004  2.014   .     S
O994   C995    1.291   .     A
C995   C1026   1.430   .     S
C996   C1025   1.430   .     S
O997   C1001   1.290   .     A
O997   Zn1003  2.009   .     S
O998   C1002   1.290   .     A
O998   Zn1004  2.009   .     S
O999   C1002   1.287   .     A
O999   Zn1003  2.006   .     S
O1000  C1001   1.287   .     A
O1000  Zn1004  2.006   .     S
C1001  C1008   1.422   .     S
C1002  C1007   1.422   .     S
Zn1003 N1031   2.024   .     S
Zn1004 N1032   2.024   .     S
C1005  F1033   1.360   .     S
C1005  C1015   1.390   .     A
C1005  C1007   1.391   .     A
C1006  F1034   1.360   .     S
C1006  C1008   1.391   .     A
C1006  C1016   1.390   .     A
C1007  C1009   1.391   .     A
C1008  C1010   1.391   .     A
C1009  C1011   1.390   .     A
C1009  F1035   1.361   .     S
C1010  C1012   1.390   .     A
C1010  F1036   1.361   .     S
C1011  C1017   1.404   .     A
C1011  C1013   1.417   .     A
C1012  C1018   1.404   .     A
C1012  C1014   1.417   .     A
C1013  C1015   1.417   .     A
C1013  C420    1.397   1_556 S
C1014  C1016   1.417   .     A
C1015  C1020   1.404   .     A
C1016  C1019   1.404   .     A
C1017  F1037   1.358   .     S
C1017  C425    1.387   1_556 S
C1018  F1038   1.358   .     S
C1019  F1039   1.359   .     S
C1020  F1040   1.359   .     S
C1020  C424    1.387   1_556 S
C1021  C1026   1.403   .     A
C1021  F1041   1.358   .     S
C1021  C1155   1.368   1_455 S
C1022  C1025   1.403   .     A
C1022  F1042   1.358   .     S
C1022  C1090   1.368   .     S
C1023  F1043   1.359   .     S
C1023  C1025   1.403   .     A
C1023  C1087   1.368   .     S
C1024  F1044   1.359   .     S
C1024  C1026   1.403   .     A
C1024  C1154   1.368   1_455 S
C1027  N1032   1.371   .     A
C1027  N1045   1.426   .     S
C1028  N1031   1.371   .     A
C1028  N1048   1.426   .     S
C1028  C633    1.423   1_565 S
C1029  N1051   1.428   .     S
C1029  N1032   1.371   .     A
C1030  N1031   1.371   .     A
C1030  N1054   1.428   .     S
C1030  C631    1.423   1_565 S
N1045  O1046   1.299   .     A
N1045  O1047   1.301   .     A
N1048  O1050   1.301   .     A
N1048  O1049   1.299   .     A
N1051  O1052   1.301   .     A
N1051  O1053   1.299   .     A
N1054  O1055   1.301   .     A
N1054  O1056   1.299   .     A
O1057  C1061   1.291   .     A
O1057  Zn1069  2.013   .     S
O1058  Zn1070  2.013   .     S
O1058  C1062   1.291   .     A
O1059  Zn1069  2.014   .     S
O1059  C1062   1.291   .     A
O1060  Zn1070  2.014   .     S
O1060  C1061   1.291   .     A
C1061  C1092   1.430   .     S
C1062  C1091   1.430   .     S
O1063  C1067   1.290   .     A
O1063  Zn1069  2.009   .     S
O1064  C1068   1.290   .     A
O1064  Zn1070  2.009   .     S
O1065  C1068   1.287   .     A
O1065  Zn1069  2.006   .     S
O1066  C1067   1.287   .     A
O1066  Zn1070  2.006   .     S
C1067  C1074   1.422   .     S
C1068  C1073   1.422   .     S
Zn1069 N1097   2.024   .     S
Zn1070 N1098   2.024   .     S
C1071  F1099   1.360   .     S
C1071  C1081   1.390   .     A
C1071  C1073   1.391   .     A
C1072  F1100   1.360   .     S
C1072  C1074   1.391   .     A
C1072  C1082   1.390   .     A
C1073  C1075   1.391   .     A
C1074  C1076   1.391   .     A
C1075  C1077   1.390   .     A
C1075  F1101   1.361   .     S
C1076  C1078   1.390   .     A
C1076  F1102   1.361   .     S
C1077  C1083   1.404   .     A
C1077  C1079   1.417   .     A
C1078  C1084   1.404   .     A
C1078  C1080   1.417   .     A
C1079  C1081   1.417   .     A
C1079  C486    1.397   1_556 S
C1080  C1082   1.417   .     A
C1081  C1086   1.404   .     A
C1082  C1085   1.404   .     A
C1083  F1103   1.358   .     S
C1083  C491    1.387   1_556 S
C1084  F1104   1.358   .     S
C1085  F1105   1.359   .     S
C1086  F1106   1.359   .     S
C1086  C490    1.387   1_556 S
C1087  C1092   1.403   .     A
C1087  F1107   1.358   .     S
C1088  C1091   1.403   .     A
C1088  F1108   1.358   .     S
C1088  C1156   1.368   .     S
C1089  F1109   1.359   .     S
C1089  C1091   1.403   .     A
C1089  C1153   1.368   .     S
C1090  F1110   1.359   .     S
C1090  C1092   1.403   .     A
C1093  N1098   1.371   .     A
C1093  N1111   1.426   .     S
C1094  N1097   1.371   .     A
C1094  N1114   1.426   .     S
C1094  C699    1.423   1_565 S
C1095  N1117   1.428   .     S
C1095  N1098   1.371   .     A
C1096  N1097   1.371   .     A
C1096  N1120   1.428   .     S
C1096  C697    1.423   1_565 S
N1111  O1112   1.299   .     A
N1111  O1113   1.301   .     A
N1114  O1116   1.301   .     A
N1114  O1115   1.299   .     A
N1117  O1118   1.301   .     A
N1117  O1119   1.299   .     A
N1120  O1121   1.301   .     A
N1120  O1122   1.299   .     A
O1123  C1127   1.291   .     A
O1123  Zn1135  2.013   .     S
O1124  Zn1136  2.013   .     S
O1124  C1128   1.291   .     A
O1125  Zn1135  2.014   .     S
O1125  C1128   1.291   .     A
O1126  Zn1136  2.014   .     S
O1126  C1127   1.291   .     A
C1127  C1158   1.430   .     S
C1128  C1157   1.430   .     S
O1129  C1133   1.290   .     A
O1129  Zn1135  2.009   .     S
O1130  C1134   1.290   .     A
O1130  Zn1136  2.009   .     S
O1131  C1134   1.287   .     A
O1131  Zn1135  2.006   .     S
O1132  C1133   1.287   .     A
O1132  Zn1136  2.006   .     S
C1133  C1140   1.422   .     S
C1134  C1139   1.422   .     S
Zn1135 N1163   2.024   .     S
Zn1136 N1164   2.024   .     S
C1137  F1165   1.360   .     S
C1137  C1147   1.390   .     A
C1137  C1139   1.391   .     A
C1138  F1166   1.360   .     S
C1138  C1140   1.391   .     A
C1138  C1148   1.390   .     A
C1139  C1141   1.391   .     A
C1140  C1142   1.391   .     A
C1141  C1143   1.390   .     A
C1141  F1167   1.361   .     S
C1142  C1144   1.390   .     A
C1142  F1168   1.361   .     S
C1143  C1149   1.404   .     A
C1143  C1145   1.417   .     A
C1144  C1150   1.404   .     A
C1144  C1146   1.417   .     A
C1145  C1147   1.417   .     A
C1145  C552    1.397   1_556 S
C1146  C1148   1.417   .     A
C1147  C1152   1.404   .     A
C1148  C1151   1.404   .     A
C1149  F1169   1.358   .     S
C1149  C557    1.387   1_556 S
C1150  F1170   1.358   .     S
C1151  F1171   1.359   .     S
C1152  F1172   1.359   .     S
C1152  C556    1.387   1_556 S
C1153  C1158   1.403   .     A
C1153  F1173   1.358   .     S
C1154  C1157   1.403   .     A
C1154  F1174   1.358   .     S
C1154  C1024   1.368   1_655 S
C1155  F1175   1.359   .     S
C1155  C1157   1.403   .     A
C1155  C1021   1.368   1_655 S
C1156  F1176   1.359   .     S
C1156  C1158   1.403   .     A
C1159  N1164   1.371   .     A
C1159  N1177   1.426   .     S
C1160  N1163   1.371   .     A
C1160  N1180   1.426   .     S
C1160  C765    1.423   1_565 S
C1161  N1183   1.428   .     S
C1161  N1164   1.371   .     A
C1162  N1163   1.371   .     A
C1162  N1186   1.428   .     S
C1162  C763    1.423   1_565 S
N1177  O1178   1.299   .     A
N1177  O1179   1.301   .     A
N1180  O1182   1.301   .     A
N1180  O1181   1.299   .     A
N1183  O1184   1.301   .     A
N1183  O1185   1.299   .     A
N1186  O1187   1.301   .     A
N1186  O1188   1.299   .     A
