data_str_m3_o2_o10_pcu_sym.16
_audit_creation_date              2020-01-03
_audit_creation_method            'Materials Studio'
_symmetry_space_group_name_H-M    'P1'
_symmetry_Int_Tables_number       1
_symmetry_cell_setting            triclinic
loop_
_symmetry_equiv_pos_as_xyz
  x,y,z
_cell_length_a                    25.7795
_cell_length_b                    29.6352
_cell_length_c                    28.4750
_cell_angle_alpha                 89.5947
_cell_angle_beta                  97.1279
_cell_angle_gamma                 90.7215
loop_
_atom_site_label
_atom_site_type_symbol
_atom_site_fract_x
_atom_site_fract_y
_atom_site_fract_z
_atom_site_U_iso_or_equiv
_atom_site_adp_type
_atom_site_occupancy
C1     C     0.16567   0.16344   0.24994   0.00000  Uiso   1.00
C2     C     0.12630   0.23000   0.44361   0.00000  Uiso   1.00
C3     C     0.16708   0.24930   0.02668   0.00000  Uiso   1.00
C4     C     0.16746   0.24973   0.47349   0.00000  Uiso   1.00
C5     C     0.06742   0.24874   0.23825   0.00000  Uiso   1.00
C6     C     0.26593   0.25164   0.26174   0.00000  Uiso   1.00
C7     C     0.01359   0.23961   0.23459   0.00000  Uiso   1.00
C8     C     0.31981   0.26101   0.26530   0.00000  Uiso   1.00
C9     C     0.11638   0.04979   0.28319   0.00000  Uiso   1.00
C10    C     0.10612   0.44697   0.21393   0.00000  Uiso   1.00
C11    C     0.12975   0.09550   0.28435   0.00000  Uiso   1.00
C12    C     0.16599   0.33631   0.24987   0.00000  Uiso   1.00
C13    C     0.11918   0.40145   0.21412   0.00000  Uiso   1.00
C14    C     0.15602   0.11500   0.24878   0.00000  Uiso   1.00
C15    C     0.15677   0.38418   0.24917   0.00000  Uiso   1.00
C16    C     0.16789   0.08875   0.21055   0.00000  Uiso   1.00
C17    C     0.18130   0.41191   0.28524   0.00000  Uiso   1.00
C18    C     0.15410   0.04337   0.20909   0.00000  Uiso   1.00
C19    C     0.16951   0.45740   0.28440   0.00000  Uiso   1.00
C20    C     0.13020   0.02368   0.24569   0.00000  Uiso   1.00
C21    C     0.13240   0.47492   0.24918   0.00000  Uiso   1.00
C22    C     0.32707   0.19958   0.20541   0.00000  Uiso   1.00
C23    C     0.14171   0.21498   0.05034   0.00000  Uiso   1.00
C24    C     0.00640   0.30118   0.29430   0.00000  Uiso   1.00
C25    C     0.08874   0.02949   0.32113   0.00000  Uiso   1.00
C26    C     0.06545   0.46496   0.17727   0.00000  Uiso   1.00
C27    C     0.25062   0.09553   0.18025   0.00000  Uiso   1.00
C28    C     0.20313   0.38966   0.36676   0.00000  Uiso   1.00
C29    C     0.22383   0.31875   0.13162   0.00000  Uiso   1.00
C30    C     0.08465   0.20383   0.36557   0.00000  Uiso   1.00
C31    C     0.20836   0.26993   0.45165   0.00000  Uiso   1.00
C32    C     0.14151   0.21625   0.09982   0.00000  Uiso   1.00
C33    C     0.20690   0.27009   0.40198   0.00000  Uiso   1.00
C34    C     0.19270   0.28337   0.10424   0.00000  Uiso   1.00
C35    C     0.12680   0.22925   0.39418   0.00000  Uiso   1.00
C36    C     0.19196   0.28380   0.05465   0.00000  Uiso   1.00
H37    H     0.11936   0.11600   0.31297   0.00000  Uiso   1.00
H38    H     0.09379   0.21456   0.45862   0.00000  Uiso   1.00
H39    H     0.29102   0.18256   0.21125   0.00000  Uiso   1.00
H40    H     0.04184   0.31895   0.28766   0.00000  Uiso   1.00
H41    H     0.07621   0.49439   0.31921   0.00000  Uiso   1.00
H42    H     0.05341   0.49984   0.17832   0.00000  Uiso   1.00
H43    H     0.17796   0.10044   0.14102   0.00000  Uiso   1.00
H44    H     0.25521   0.05883   0.17444   0.00000  Uiso   1.00
H45    H     0.26943   0.10438   0.21630   0.00000  Uiso   1.00
H46    H     0.27066   0.11450   0.15382   0.00000  Uiso   1.00
H47    H     0.25507   0.41246   0.32200   0.00000  Uiso   1.00
H48    H     0.09939   0.37908   0.18753   0.00000  Uiso   1.00
H49    H     0.19472   0.42314   0.38127   0.00000  Uiso   1.00
H50    H     0.23448   0.37349   0.39120   0.00000  Uiso   1.00
H51    H     0.16748   0.36796   0.36483   0.00000  Uiso   1.00
H52    H     0.24091   0.31281   0.16752   0.00000  Uiso   1.00
H53    H     0.09146   0.18791   0.33308   0.00000  Uiso   1.00
H54    H     0.16559   0.02261   0.18098   0.00000  Uiso   1.00
H55    H     0.19065   0.47956   0.31048   0.00000  Uiso   1.00
H56    H     0.12258   0.18682   0.03108   0.00000  Uiso   1.00
H57    H     0.24188   0.28507   0.47258   0.00000  Uiso   1.00
H58    H     0.12162   0.18976   0.11716   0.00000  Uiso   1.00
H59    H     0.23852   0.28589   0.38604   0.00000  Uiso   1.00
H60    H     0.21140   0.31109   0.03808   0.00000  Uiso   1.00
N61    N     0.16667   0.24999   0.12623   0.00000  Uiso   1.00
N62    N     0.16667   0.25001   0.37376   0.00000  Uiso   1.00
N63    N     0.19586   0.10714   0.17473   0.00000  Uiso   1.00
N64    N     0.22018   0.39478   0.32045   0.00000  Uiso   1.00
O65    O     0.16667   0.18454   0.28974   0.00000  Uiso   1.00
O66    O     0.31584   0.31557   0.32538   0.00000  Uiso   1.00
O67    O     0.07930   0.05177   0.35491   0.00000  Uiso   1.00
O68    O     0.04460   0.44094   0.14553   0.00000  Uiso   1.00
O69    O     0.23203   0.35529   0.11366   0.00000  Uiso   1.00
O70    O     0.04155   0.19937   0.37875   0.00000  Uiso   1.00
O71    O     0.16666   0.31547   0.21026   0.00000  Uiso   1.00
O72    O     0.16667   0.18453   0.21026   0.00000  Uiso   1.00
O73    O     0.16666   0.31547   0.28974   0.00000  Uiso   1.00
O74    O     0.09058   0.25000   0.28044   0.00000  Uiso   1.00
O75    O     0.24275   0.25000   0.21955   0.00000  Uiso   1.00
O76    O     0.09058   0.25000   0.20096   0.00000  Uiso   1.00
O77    O     0.24275   0.25001   0.29903   0.00000  Uiso   1.00
O78    O     0.01833   0.18451   0.17514   0.00000  Uiso   1.00
Zn79   Zn    0.16667   0.25001   0.30307   0.00000  Uiso   1.00
Zn80   Zn    0.16667   0.25000   0.19693   0.00000  Uiso   1.00
C81    C     0.49901   0.16344   0.24994   0.00000  Uiso   1.00
C82    C     0.45963   0.23000   0.44361   0.00000  Uiso   1.00
C83    C     0.50041   0.24930   0.02668   0.00000  Uiso   1.00
C84    C     0.50080   0.24973   0.47349   0.00000  Uiso   1.00
C85    C     0.40076   0.24874   0.23825   0.00000  Uiso   1.00
C86    C     0.59926   0.25164   0.26174   0.00000  Uiso   1.00
C87    C     0.34692   0.23961   0.23459   0.00000  Uiso   1.00
C88    C     0.65314   0.26101   0.26530   0.00000  Uiso   1.00
C89    C     0.44972   0.04979   0.28319   0.00000  Uiso   1.00
C90    C     0.43945   0.44697   0.21393   0.00000  Uiso   1.00
C91    C     0.46308   0.09550   0.28435   0.00000  Uiso   1.00
C92    C     0.49932   0.33631   0.24987   0.00000  Uiso   1.00
C93    C     0.45251   0.40145   0.21412   0.00000  Uiso   1.00
C94    C     0.48935   0.11500   0.24878   0.00000  Uiso   1.00
C95    C     0.49011   0.38418   0.24917   0.00000  Uiso   1.00
C96    C     0.50122   0.08875   0.21055   0.00000  Uiso   1.00
C97    C     0.51463   0.41191   0.28524   0.00000  Uiso   1.00
C98    C     0.48744   0.04337   0.20909   0.00000  Uiso   1.00
C99    C     0.50285   0.45740   0.28440   0.00000  Uiso   1.00
C100   C     0.46353   0.02368   0.24569   0.00000  Uiso   1.00
C101   C     0.46574   0.47492   0.24918   0.00000  Uiso   1.00
C102   C     0.66040   0.19958   0.20541   0.00000  Uiso   1.00
C103   C     0.47505   0.21498   0.05034   0.00000  Uiso   1.00
C104   C     0.33973   0.30118   0.29430   0.00000  Uiso   1.00
C105   C     0.42207   0.02949   0.32113   0.00000  Uiso   1.00
C106   C     0.39878   0.46496   0.17727   0.00000  Uiso   1.00
C107   C     0.58395   0.09553   0.18025   0.00000  Uiso   1.00
C108   C     0.53646   0.38966   0.36676   0.00000  Uiso   1.00
C109   C     0.55717   0.31875   0.13162   0.00000  Uiso   1.00
C110   C     0.41798   0.20383   0.36557   0.00000  Uiso   1.00
C111   C     0.54169   0.26993   0.45165   0.00000  Uiso   1.00
C112   C     0.47484   0.21625   0.09982   0.00000  Uiso   1.00
C113   C     0.54023   0.27009   0.40198   0.00000  Uiso   1.00
C114   C     0.52604   0.28337   0.10424   0.00000  Uiso   1.00
C115   C     0.46013   0.22925   0.39418   0.00000  Uiso   1.00
C116   C     0.52529   0.28380   0.05465   0.00000  Uiso   1.00
H117   H     0.45270   0.11600   0.31297   0.00000  Uiso   1.00
H118   H     0.42712   0.21456   0.45862   0.00000  Uiso   1.00
H119   H     0.62436   0.18256   0.21125   0.00000  Uiso   1.00
H120   H     0.37518   0.31895   0.28766   0.00000  Uiso   1.00
H121   H     0.40954   0.49439   0.31921   0.00000  Uiso   1.00
H122   H     0.38674   0.49984   0.17832   0.00000  Uiso   1.00
H123   H     0.51129   0.10044   0.14102   0.00000  Uiso   1.00
H124   H     0.58854   0.05883   0.17444   0.00000  Uiso   1.00
H125   H     0.60276   0.10438   0.21630   0.00000  Uiso   1.00
H126   H     0.60399   0.11450   0.15382   0.00000  Uiso   1.00
H127   H     0.58840   0.41246   0.32200   0.00000  Uiso   1.00
H128   H     0.43272   0.37908   0.18753   0.00000  Uiso   1.00
H129   H     0.52805   0.42314   0.38127   0.00000  Uiso   1.00
H130   H     0.56781   0.37349   0.39120   0.00000  Uiso   1.00
H131   H     0.50082   0.36796   0.36483   0.00000  Uiso   1.00
H132   H     0.57424   0.31281   0.16752   0.00000  Uiso   1.00
H133   H     0.42479   0.18791   0.33308   0.00000  Uiso   1.00
H134   H     0.49892   0.02261   0.18098   0.00000  Uiso   1.00
H135   H     0.52398   0.47956   0.31048   0.00000  Uiso   1.00
H136   H     0.45591   0.18682   0.03108   0.00000  Uiso   1.00
H137   H     0.57521   0.28507   0.47258   0.00000  Uiso   1.00
H138   H     0.45495   0.18976   0.11716   0.00000  Uiso   1.00
H139   H     0.57186   0.28589   0.38604   0.00000  Uiso   1.00
H140   H     0.54473   0.31109   0.03808   0.00000  Uiso   1.00
N141   N     0.50000   0.24999   0.12623   0.00000  Uiso   1.00
N142   N     0.50000   0.25001   0.37376   0.00000  Uiso   1.00
N143   N     0.52919   0.10714   0.17473   0.00000  Uiso   1.00
N144   N     0.55351   0.39478   0.32045   0.00000  Uiso   1.00
O145   O     0.50000   0.18454   0.28974   0.00000  Uiso   1.00
O146   O     0.64917   0.31557   0.32538   0.00000  Uiso   1.00
O147   O     0.41264   0.05177   0.35491   0.00000  Uiso   1.00
O148   O     0.37793   0.44094   0.14553   0.00000  Uiso   1.00
O149   O     0.56537   0.35529   0.11366   0.00000  Uiso   1.00
O150   O     0.37488   0.19937   0.37875   0.00000  Uiso   1.00
O151   O     0.50000   0.31547   0.21026   0.00000  Uiso   1.00
O152   O     0.50000   0.18453   0.21026   0.00000  Uiso   1.00
O153   O     0.50000   0.31547   0.28974   0.00000  Uiso   1.00
O154   O     0.42392   0.25000   0.28044   0.00000  Uiso   1.00
O155   O     0.57608   0.25000   0.21955   0.00000  Uiso   1.00
O156   O     0.42392   0.25000   0.20096   0.00000  Uiso   1.00
O157   O     0.57608   0.25001   0.29903   0.00000  Uiso   1.00
O158   O     0.35166   0.18451   0.17514   0.00000  Uiso   1.00
Zn159  Zn    0.50000   0.25001   0.30307   0.00000  Uiso   1.00
Zn160  Zn    0.50000   0.25000   0.19693   0.00000  Uiso   1.00
C161   C     0.83234   0.16344   0.24994   0.00000  Uiso   1.00
C162   C     0.79297   0.23000   0.44361   0.00000  Uiso   1.00
C163   C     0.83374   0.24930   0.02668   0.00000  Uiso   1.00
C164   C     0.83413   0.24973   0.47349   0.00000  Uiso   1.00
C165   C     0.73409   0.24874   0.23825   0.00000  Uiso   1.00
C166   C     0.93259   0.25164   0.26174   0.00000  Uiso   1.00
C167   C     0.68025   0.23961   0.23459   0.00000  Uiso   1.00
C168   C     0.98648   0.26101   0.26530   0.00000  Uiso   1.00
C169   C     0.78305   0.04979   0.28319   0.00000  Uiso   1.00
C170   C     0.77278   0.44697   0.21393   0.00000  Uiso   1.00
C171   C     0.79642   0.09550   0.28435   0.00000  Uiso   1.00
C172   C     0.83266   0.33631   0.24987   0.00000  Uiso   1.00
C173   C     0.78585   0.40145   0.21412   0.00000  Uiso   1.00
C174   C     0.82269   0.11500   0.24878   0.00000  Uiso   1.00
C175   C     0.82344   0.38418   0.24917   0.00000  Uiso   1.00
C176   C     0.83455   0.08875   0.21055   0.00000  Uiso   1.00
C177   C     0.84797   0.41191   0.28524   0.00000  Uiso   1.00
C178   C     0.82077   0.04337   0.20909   0.00000  Uiso   1.00
C179   C     0.83618   0.45740   0.28440   0.00000  Uiso   1.00
C180   C     0.79687   0.02368   0.24569   0.00000  Uiso   1.00
C181   C     0.79907   0.47492   0.24918   0.00000  Uiso   1.00
C182   C     0.99374   0.19958   0.20541   0.00000  Uiso   1.00
C183   C     0.80838   0.21498   0.05034   0.00000  Uiso   1.00
C184   C     0.67306   0.30118   0.29430   0.00000  Uiso   1.00
C185   C     0.75540   0.02949   0.32113   0.00000  Uiso   1.00
C186   C     0.73212   0.46496   0.17727   0.00000  Uiso   1.00
C187   C     0.91728   0.09553   0.18025   0.00000  Uiso   1.00
C188   C     0.86980   0.38966   0.36676   0.00000  Uiso   1.00
C189   C     0.89050   0.31875   0.13162   0.00000  Uiso   1.00
C190   C     0.75132   0.20383   0.36557   0.00000  Uiso   1.00
C191   C     0.87503   0.26993   0.45165   0.00000  Uiso   1.00
C192   C     0.80818   0.21625   0.09982   0.00000  Uiso   1.00
C193   C     0.87357   0.27009   0.40198   0.00000  Uiso   1.00
C194   C     0.85937   0.28337   0.10424   0.00000  Uiso   1.00
C195   C     0.79347   0.22925   0.39418   0.00000  Uiso   1.00
C196   C     0.85862   0.28380   0.05465   0.00000  Uiso   1.00
H197   H     0.78603   0.11600   0.31297   0.00000  Uiso   1.00
H198   H     0.76046   0.21456   0.45862   0.00000  Uiso   1.00
H199   H     0.95769   0.18256   0.21125   0.00000  Uiso   1.00
H200   H     0.70851   0.31895   0.28766   0.00000  Uiso   1.00
H201   H     0.74287   0.49439   0.31921   0.00000  Uiso   1.00
H202   H     0.72007   0.49984   0.17832   0.00000  Uiso   1.00
H203   H     0.84463   0.10044   0.14102   0.00000  Uiso   1.00
H204   H     0.92188   0.05883   0.17444   0.00000  Uiso   1.00
H205   H     0.93610   0.10438   0.21630   0.00000  Uiso   1.00
H206   H     0.93732   0.11450   0.15382   0.00000  Uiso   1.00
H207   H     0.92173   0.41246   0.32200   0.00000  Uiso   1.00
H208   H     0.76606   0.37908   0.18753   0.00000  Uiso   1.00
H209   H     0.86139   0.42314   0.38127   0.00000  Uiso   1.00
H210   H     0.90114   0.37349   0.39120   0.00000  Uiso   1.00
H211   H     0.83415   0.36796   0.36483   0.00000  Uiso   1.00
H212   H     0.90757   0.31281   0.16752   0.00000  Uiso   1.00
H213   H     0.75812   0.18791   0.33308   0.00000  Uiso   1.00
H214   H     0.83226   0.02261   0.18098   0.00000  Uiso   1.00
H215   H     0.85732   0.47956   0.31048   0.00000  Uiso   1.00
H216   H     0.78925   0.18682   0.03108   0.00000  Uiso   1.00
H217   H     0.90854   0.28507   0.47258   0.00000  Uiso   1.00
H218   H     0.78829   0.18976   0.11716   0.00000  Uiso   1.00
H219   H     0.90519   0.28589   0.38604   0.00000  Uiso   1.00
H220   H     0.87806   0.31109   0.03808   0.00000  Uiso   1.00
N221   N     0.83333   0.24999   0.12623   0.00000  Uiso   1.00
N222   N     0.83333   0.25001   0.37376   0.00000  Uiso   1.00
N223   N     0.86252   0.10714   0.17473   0.00000  Uiso   1.00
N224   N     0.88684   0.39478   0.32045   0.00000  Uiso   1.00
O225   O     0.83334   0.18454   0.28974   0.00000  Uiso   1.00
O226   O     0.98250   0.31557   0.32538   0.00000  Uiso   1.00
O227   O     0.74597   0.05177   0.35491   0.00000  Uiso   1.00
O228   O     0.71126   0.44094   0.14553   0.00000  Uiso   1.00
O229   O     0.89870   0.35529   0.11366   0.00000  Uiso   1.00
O230   O     0.70822   0.19937   0.37875   0.00000  Uiso   1.00
O231   O     0.83333   0.31547   0.21026   0.00000  Uiso   1.00
O232   O     0.83334   0.18453   0.21026   0.00000  Uiso   1.00
O233   O     0.83333   0.31547   0.28974   0.00000  Uiso   1.00
O234   O     0.75725   0.25000   0.28044   0.00000  Uiso   1.00
O235   O     0.90942   0.25000   0.21955   0.00000  Uiso   1.00
O236   O     0.75725   0.25000   0.20096   0.00000  Uiso   1.00
O237   O     0.90942   0.25001   0.29903   0.00000  Uiso   1.00
O238   O     0.68499   0.18451   0.17514   0.00000  Uiso   1.00
Zn239  Zn    0.83333   0.25001   0.30307   0.00000  Uiso   1.00
Zn240  Zn    0.83333   0.25000   0.19693   0.00000  Uiso   1.00
C241   C     0.16567   0.66344   0.24994   0.00000  Uiso   1.00
C242   C     0.12630   0.73000   0.44361   0.00000  Uiso   1.00
C243   C     0.16708   0.74930   0.02668   0.00000  Uiso   1.00
C244   C     0.16746   0.74973   0.47349   0.00000  Uiso   1.00
C245   C     0.06742   0.74874   0.23825   0.00000  Uiso   1.00
C246   C     0.26593   0.75164   0.26174   0.00000  Uiso   1.00
C247   C     0.01359   0.73961   0.23459   0.00000  Uiso   1.00
C248   C     0.31981   0.76101   0.26530   0.00000  Uiso   1.00
C249   C     0.11638   0.54979   0.28319   0.00000  Uiso   1.00
C250   C     0.10612   0.94697   0.21393   0.00000  Uiso   1.00
C251   C     0.12975   0.59550   0.28435   0.00000  Uiso   1.00
C252   C     0.16599   0.83631   0.24987   0.00000  Uiso   1.00
C253   C     0.11918   0.90145   0.21412   0.00000  Uiso   1.00
C254   C     0.15602   0.61500   0.24878   0.00000  Uiso   1.00
C255   C     0.15677   0.88418   0.24917   0.00000  Uiso   1.00
C256   C     0.16789   0.58875   0.21055   0.00000  Uiso   1.00
C257   C     0.18130   0.91191   0.28524   0.00000  Uiso   1.00
C258   C     0.15410   0.54337   0.20909   0.00000  Uiso   1.00
C259   C     0.16951   0.95740   0.28440   0.00000  Uiso   1.00
C260   C     0.13020   0.52368   0.24569   0.00000  Uiso   1.00
C261   C     0.13240   0.97492   0.24918   0.00000  Uiso   1.00
C262   C     0.32707   0.69958   0.20541   0.00000  Uiso   1.00
C263   C     0.14171   0.71498   0.05034   0.00000  Uiso   1.00
C264   C     0.00640   0.80118   0.29430   0.00000  Uiso   1.00
C265   C     0.08874   0.52949   0.32113   0.00000  Uiso   1.00
C266   C     0.06545   0.96496   0.17727   0.00000  Uiso   1.00
C267   C     0.25062   0.59553   0.18025   0.00000  Uiso   1.00
C268   C     0.20313   0.88966   0.36676   0.00000  Uiso   1.00
C269   C     0.22383   0.81875   0.13162   0.00000  Uiso   1.00
C270   C     0.08465   0.70383   0.36557   0.00000  Uiso   1.00
C271   C     0.20836   0.76993   0.45165   0.00000  Uiso   1.00
C272   C     0.14151   0.71625   0.09982   0.00000  Uiso   1.00
C273   C     0.20690   0.77009   0.40198   0.00000  Uiso   1.00
C274   C     0.19270   0.78337   0.10424   0.00000  Uiso   1.00
C275   C     0.12680   0.72925   0.39418   0.00000  Uiso   1.00
C276   C     0.19196   0.78380   0.05465   0.00000  Uiso   1.00
H277   H     0.11936   0.61600   0.31297   0.00000  Uiso   1.00
H278   H     0.09379   0.71456   0.45862   0.00000  Uiso   1.00
H279   H     0.29102   0.68256   0.21125   0.00000  Uiso   1.00
H280   H     0.04184   0.81895   0.28766   0.00000  Uiso   1.00
H281   H     0.07621   0.99439   0.31921   0.00000  Uiso   1.00
H282   H     0.05341   0.99984   0.17832   0.00000  Uiso   1.00
H283   H     0.17796   0.60044   0.14102   0.00000  Uiso   1.00
H284   H     0.25521   0.55883   0.17444   0.00000  Uiso   1.00
H285   H     0.26943   0.60438   0.21630   0.00000  Uiso   1.00
H286   H     0.27066   0.61450   0.15382   0.00000  Uiso   1.00
H287   H     0.25507   0.91246   0.32200   0.00000  Uiso   1.00
H288   H     0.09939   0.87908   0.18753   0.00000  Uiso   1.00
H289   H     0.19472   0.92314   0.38127   0.00000  Uiso   1.00
H290   H     0.23448   0.87349   0.39120   0.00000  Uiso   1.00
H291   H     0.16748   0.86796   0.36483   0.00000  Uiso   1.00
H292   H     0.24091   0.81281   0.16752   0.00000  Uiso   1.00
H293   H     0.09146   0.68791   0.33308   0.00000  Uiso   1.00
H294   H     0.16559   0.52261   0.18098   0.00000  Uiso   1.00
H295   H     0.19065   0.97956   0.31048   0.00000  Uiso   1.00
H296   H     0.12258   0.68682   0.03108   0.00000  Uiso   1.00
H297   H     0.24188   0.78507   0.47258   0.00000  Uiso   1.00
H298   H     0.12162   0.68976   0.11716   0.00000  Uiso   1.00
H299   H     0.23852   0.78589   0.38604   0.00000  Uiso   1.00
H300   H     0.21140   0.81109   0.03808   0.00000  Uiso   1.00
N301   N     0.16667   0.74999   0.12623   0.00000  Uiso   1.00
N302   N     0.16667   0.75001   0.37376   0.00000  Uiso   1.00
N303   N     0.19586   0.60714   0.17473   0.00000  Uiso   1.00
N304   N     0.22018   0.89478   0.32045   0.00000  Uiso   1.00
O305   O     0.16667   0.68454   0.28974   0.00000  Uiso   1.00
O306   O     0.31584   0.81557   0.32538   0.00000  Uiso   1.00
O307   O     0.07930   0.55177   0.35491   0.00000  Uiso   1.00
O308   O     0.04460   0.94094   0.14553   0.00000  Uiso   1.00
O309   O     0.23203   0.85529   0.11366   0.00000  Uiso   1.00
O310   O     0.04155   0.69937   0.37875   0.00000  Uiso   1.00
O311   O     0.16666   0.81547   0.21026   0.00000  Uiso   1.00
O312   O     0.16667   0.68453   0.21026   0.00000  Uiso   1.00
O313   O     0.16666   0.81547   0.28974   0.00000  Uiso   1.00
O314   O     0.09058   0.75000   0.28044   0.00000  Uiso   1.00
O315   O     0.24275   0.75000   0.21955   0.00000  Uiso   1.00
O316   O     0.09058   0.75000   0.20096   0.00000  Uiso   1.00
O317   O     0.24275   0.75001   0.29903   0.00000  Uiso   1.00
O318   O     0.01833   0.68451   0.17514   0.00000  Uiso   1.00
Zn319  Zn    0.16667   0.75001   0.30307   0.00000  Uiso   1.00
Zn320  Zn    0.16667   0.75000   0.19693   0.00000  Uiso   1.00
C321   C     0.49901   0.66344   0.24994   0.00000  Uiso   1.00
C322   C     0.45963   0.73000   0.44361   0.00000  Uiso   1.00
C323   C     0.50041   0.74930   0.02668   0.00000  Uiso   1.00
C324   C     0.50080   0.74973   0.47349   0.00000  Uiso   1.00
C325   C     0.40076   0.74874   0.23825   0.00000  Uiso   1.00
C326   C     0.59926   0.75164   0.26174   0.00000  Uiso   1.00
C327   C     0.34692   0.73961   0.23459   0.00000  Uiso   1.00
C328   C     0.65314   0.76101   0.26530   0.00000  Uiso   1.00
C329   C     0.44972   0.54979   0.28319   0.00000  Uiso   1.00
C330   C     0.43945   0.94697   0.21393   0.00000  Uiso   1.00
C331   C     0.46308   0.59550   0.28435   0.00000  Uiso   1.00
C332   C     0.49932   0.83631   0.24987   0.00000  Uiso   1.00
C333   C     0.45251   0.90145   0.21412   0.00000  Uiso   1.00
C334   C     0.48935   0.61500   0.24878   0.00000  Uiso   1.00
C335   C     0.49011   0.88418   0.24917   0.00000  Uiso   1.00
C336   C     0.50122   0.58875   0.21055   0.00000  Uiso   1.00
C337   C     0.51463   0.91191   0.28524   0.00000  Uiso   1.00
C338   C     0.48744   0.54337   0.20909   0.00000  Uiso   1.00
C339   C     0.50285   0.95740   0.28440   0.00000  Uiso   1.00
C340   C     0.46353   0.52368   0.24569   0.00000  Uiso   1.00
C341   C     0.46574   0.97492   0.24918   0.00000  Uiso   1.00
C342   C     0.66040   0.69958   0.20541   0.00000  Uiso   1.00
C343   C     0.47505   0.71498   0.05034   0.00000  Uiso   1.00
C344   C     0.33973   0.80118   0.29430   0.00000  Uiso   1.00
C345   C     0.42207   0.52949   0.32113   0.00000  Uiso   1.00
C346   C     0.39878   0.96496   0.17727   0.00000  Uiso   1.00
C347   C     0.58395   0.59553   0.18025   0.00000  Uiso   1.00
C348   C     0.53646   0.88966   0.36676   0.00000  Uiso   1.00
C349   C     0.55717   0.81875   0.13162   0.00000  Uiso   1.00
C350   C     0.41798   0.70383   0.36557   0.00000  Uiso   1.00
C351   C     0.54169   0.76993   0.45165   0.00000  Uiso   1.00
C352   C     0.47484   0.71625   0.09982   0.00000  Uiso   1.00
C353   C     0.54023   0.77009   0.40198   0.00000  Uiso   1.00
C354   C     0.52604   0.78337   0.10424   0.00000  Uiso   1.00
C355   C     0.46013   0.72925   0.39418   0.00000  Uiso   1.00
C356   C     0.52529   0.78380   0.05465   0.00000  Uiso   1.00
H357   H     0.45270   0.61600   0.31297   0.00000  Uiso   1.00
H358   H     0.42712   0.71456   0.45862   0.00000  Uiso   1.00
H359   H     0.62436   0.68256   0.21125   0.00000  Uiso   1.00
H360   H     0.37518   0.81895   0.28766   0.00000  Uiso   1.00
H361   H     0.40954   0.99439   0.31921   0.00000  Uiso   1.00
H362   H     0.38674   0.99984   0.17832   0.00000  Uiso   1.00
H363   H     0.51129   0.60044   0.14102   0.00000  Uiso   1.00
H364   H     0.58854   0.55883   0.17444   0.00000  Uiso   1.00
H365   H     0.60276   0.60438   0.21630   0.00000  Uiso   1.00
H366   H     0.60399   0.61450   0.15382   0.00000  Uiso   1.00
H367   H     0.58840   0.91246   0.32200   0.00000  Uiso   1.00
H368   H     0.43272   0.87908   0.18753   0.00000  Uiso   1.00
H369   H     0.52805   0.92314   0.38127   0.00000  Uiso   1.00
H370   H     0.56781   0.87349   0.39120   0.00000  Uiso   1.00
H371   H     0.50082   0.86796   0.36483   0.00000  Uiso   1.00
H372   H     0.57424   0.81281   0.16752   0.00000  Uiso   1.00
H373   H     0.42479   0.68791   0.33308   0.00000  Uiso   1.00
H374   H     0.49892   0.52261   0.18098   0.00000  Uiso   1.00
H375   H     0.52398   0.97956   0.31048   0.00000  Uiso   1.00
H376   H     0.45591   0.68682   0.03108   0.00000  Uiso   1.00
H377   H     0.57521   0.78507   0.47258   0.00000  Uiso   1.00
H378   H     0.45495   0.68976   0.11716   0.00000  Uiso   1.00
H379   H     0.57186   0.78589   0.38604   0.00000  Uiso   1.00
H380   H     0.54473   0.81109   0.03808   0.00000  Uiso   1.00
N381   N     0.50000   0.74999   0.12623   0.00000  Uiso   1.00
N382   N     0.50000   0.75001   0.37376   0.00000  Uiso   1.00
N383   N     0.52919   0.60714   0.17473   0.00000  Uiso   1.00
N384   N     0.55351   0.89478   0.32045   0.00000  Uiso   1.00
O385   O     0.50000   0.68454   0.28974   0.00000  Uiso   1.00
O386   O     0.64917   0.81557   0.32538   0.00000  Uiso   1.00
O387   O     0.41264   0.55177   0.35491   0.00000  Uiso   1.00
O388   O     0.37793   0.94094   0.14553   0.00000  Uiso   1.00
O389   O     0.56537   0.85529   0.11366   0.00000  Uiso   1.00
O390   O     0.37488   0.69937   0.37875   0.00000  Uiso   1.00
O391   O     0.50000   0.81547   0.21026   0.00000  Uiso   1.00
O392   O     0.50000   0.68453   0.21026   0.00000  Uiso   1.00
O393   O     0.50000   0.81547   0.28974   0.00000  Uiso   1.00
O394   O     0.42392   0.75000   0.28044   0.00000  Uiso   1.00
O395   O     0.57608   0.75000   0.21955   0.00000  Uiso   1.00
O396   O     0.42392   0.75000   0.20096   0.00000  Uiso   1.00
O397   O     0.57608   0.75001   0.29903   0.00000  Uiso   1.00
O398   O     0.35166   0.68451   0.17514   0.00000  Uiso   1.00
Zn399  Zn    0.50000   0.75001   0.30307   0.00000  Uiso   1.00
Zn400  Zn    0.50000   0.75000   0.19693   0.00000  Uiso   1.00
C401   C     0.83234   0.66344   0.24994   0.00000  Uiso   1.00
C402   C     0.79297   0.73000   0.44361   0.00000  Uiso   1.00
C403   C     0.83374   0.74930   0.02668   0.00000  Uiso   1.00
C404   C     0.83413   0.74973   0.47349   0.00000  Uiso   1.00
C405   C     0.73409   0.74874   0.23825   0.00000  Uiso   1.00
C406   C     0.93259   0.75164   0.26174   0.00000  Uiso   1.00
C407   C     0.68025   0.73961   0.23459   0.00000  Uiso   1.00
C408   C     0.98648   0.76101   0.26530   0.00000  Uiso   1.00
C409   C     0.78305   0.54979   0.28319   0.00000  Uiso   1.00
C410   C     0.77278   0.94697   0.21393   0.00000  Uiso   1.00
C411   C     0.79642   0.59550   0.28435   0.00000  Uiso   1.00
C412   C     0.83266   0.83631   0.24987   0.00000  Uiso   1.00
C413   C     0.78585   0.90145   0.21412   0.00000  Uiso   1.00
C414   C     0.82269   0.61500   0.24878   0.00000  Uiso   1.00
C415   C     0.82344   0.88418   0.24917   0.00000  Uiso   1.00
C416   C     0.83455   0.58875   0.21055   0.00000  Uiso   1.00
C417   C     0.84797   0.91191   0.28524   0.00000  Uiso   1.00
C418   C     0.82077   0.54337   0.20909   0.00000  Uiso   1.00
C419   C     0.83618   0.95740   0.28440   0.00000  Uiso   1.00
C420   C     0.79687   0.52368   0.24569   0.00000  Uiso   1.00
C421   C     0.79907   0.97492   0.24918   0.00000  Uiso   1.00
C422   C     0.99374   0.69958   0.20541   0.00000  Uiso   1.00
C423   C     0.80838   0.71498   0.05034   0.00000  Uiso   1.00
C424   C     0.67306   0.80118   0.29430   0.00000  Uiso   1.00
C425   C     0.75540   0.52949   0.32113   0.00000  Uiso   1.00
C426   C     0.73212   0.96496   0.17727   0.00000  Uiso   1.00
C427   C     0.91728   0.59553   0.18025   0.00000  Uiso   1.00
C428   C     0.86980   0.88966   0.36676   0.00000  Uiso   1.00
C429   C     0.89050   0.81875   0.13162   0.00000  Uiso   1.00
C430   C     0.75132   0.70383   0.36557   0.00000  Uiso   1.00
C431   C     0.87503   0.76993   0.45165   0.00000  Uiso   1.00
C432   C     0.80818   0.71625   0.09982   0.00000  Uiso   1.00
C433   C     0.87357   0.77009   0.40198   0.00000  Uiso   1.00
C434   C     0.85937   0.78337   0.10424   0.00000  Uiso   1.00
C435   C     0.79347   0.72925   0.39418   0.00000  Uiso   1.00
C436   C     0.85862   0.78380   0.05465   0.00000  Uiso   1.00
H437   H     0.78603   0.61600   0.31297   0.00000  Uiso   1.00
H438   H     0.76046   0.71456   0.45862   0.00000  Uiso   1.00
H439   H     0.95769   0.68256   0.21125   0.00000  Uiso   1.00
H440   H     0.70851   0.81895   0.28766   0.00000  Uiso   1.00
H441   H     0.74287   0.99439   0.31921   0.00000  Uiso   1.00
H442   H     0.72007   0.99984   0.17832   0.00000  Uiso   1.00
H443   H     0.84463   0.60044   0.14102   0.00000  Uiso   1.00
H444   H     0.92188   0.55883   0.17444   0.00000  Uiso   1.00
H445   H     0.93610   0.60438   0.21630   0.00000  Uiso   1.00
H446   H     0.93732   0.61450   0.15382   0.00000  Uiso   1.00
H447   H     0.92173   0.91246   0.32200   0.00000  Uiso   1.00
H448   H     0.76606   0.87908   0.18753   0.00000  Uiso   1.00
H449   H     0.86139   0.92314   0.38127   0.00000  Uiso   1.00
H450   H     0.90114   0.87349   0.39120   0.00000  Uiso   1.00
H451   H     0.83415   0.86796   0.36483   0.00000  Uiso   1.00
H452   H     0.90757   0.81281   0.16752   0.00000  Uiso   1.00
H453   H     0.75812   0.68791   0.33308   0.00000  Uiso   1.00
H454   H     0.83226   0.52261   0.18098   0.00000  Uiso   1.00
H455   H     0.85732   0.97956   0.31048   0.00000  Uiso   1.00
H456   H     0.78925   0.68682   0.03108   0.00000  Uiso   1.00
H457   H     0.90854   0.78507   0.47258   0.00000  Uiso   1.00
H458   H     0.78829   0.68976   0.11716   0.00000  Uiso   1.00
H459   H     0.90519   0.78589   0.38604   0.00000  Uiso   1.00
H460   H     0.87806   0.81109   0.03808   0.00000  Uiso   1.00
N461   N     0.83333   0.74999   0.12623   0.00000  Uiso   1.00
N462   N     0.83333   0.75001   0.37376   0.00000  Uiso   1.00
N463   N     0.86252   0.60714   0.17473   0.00000  Uiso   1.00
N464   N     0.88684   0.89478   0.32045   0.00000  Uiso   1.00
O465   O     0.83334   0.68454   0.28974   0.00000  Uiso   1.00
O466   O     0.98250   0.81557   0.32538   0.00000  Uiso   1.00
O467   O     0.74597   0.55177   0.35491   0.00000  Uiso   1.00
O468   O     0.71126   0.94094   0.14553   0.00000  Uiso   1.00
O469   O     0.89870   0.85529   0.11366   0.00000  Uiso   1.00
O470   O     0.70822   0.69937   0.37875   0.00000  Uiso   1.00
O471   O     0.83333   0.81547   0.21026   0.00000  Uiso   1.00
O472   O     0.83334   0.68453   0.21026   0.00000  Uiso   1.00
O473   O     0.83333   0.81547   0.28974   0.00000  Uiso   1.00
O474   O     0.75725   0.75000   0.28044   0.00000  Uiso   1.00
O475   O     0.90942   0.75000   0.21955   0.00000  Uiso   1.00
O476   O     0.75725   0.75000   0.20096   0.00000  Uiso   1.00
O477   O     0.90942   0.75001   0.29903   0.00000  Uiso   1.00
O478   O     0.68499   0.68451   0.17514   0.00000  Uiso   1.00
Zn479  Zn    0.83333   0.75001   0.30307   0.00000  Uiso   1.00
Zn480  Zn    0.83333   0.75000   0.19693   0.00000  Uiso   1.00
C481   C     0.16567   0.16344   0.74994   0.00000  Uiso   1.00
C482   C     0.12630   0.23000   0.94361   0.00000  Uiso   1.00
C483   C     0.16708   0.24930   0.52668   0.00000  Uiso   1.00
C484   C     0.16746   0.24973   0.97349   0.00000  Uiso   1.00
C485   C     0.06742   0.24874   0.73825   0.00000  Uiso   1.00
C486   C     0.26593   0.25164   0.76174   0.00000  Uiso   1.00
C487   C     0.01359   0.23961   0.73459   0.00000  Uiso   1.00
C488   C     0.31981   0.26101   0.76530   0.00000  Uiso   1.00
C489   C     0.11638   0.04979   0.78319   0.00000  Uiso   1.00
C490   C     0.10612   0.44697   0.71393   0.00000  Uiso   1.00
C491   C     0.12975   0.09550   0.78435   0.00000  Uiso   1.00
C492   C     0.16599   0.33631   0.74987   0.00000  Uiso   1.00
C493   C     0.11918   0.40145   0.71412   0.00000  Uiso   1.00
C494   C     0.15602   0.11500   0.74878   0.00000  Uiso   1.00
C495   C     0.15677   0.38418   0.74917   0.00000  Uiso   1.00
C496   C     0.16789   0.08875   0.71055   0.00000  Uiso   1.00
C497   C     0.18130   0.41191   0.78524   0.00000  Uiso   1.00
C498   C     0.15410   0.04337   0.70909   0.00000  Uiso   1.00
C499   C     0.16951   0.45740   0.78440   0.00000  Uiso   1.00
C500   C     0.13020   0.02368   0.74569   0.00000  Uiso   1.00
C501   C     0.13240   0.47492   0.74918   0.00000  Uiso   1.00
C502   C     0.32707   0.19958   0.70541   0.00000  Uiso   1.00
C503   C     0.14171   0.21498   0.55034   0.00000  Uiso   1.00
C504   C     0.00640   0.30118   0.79430   0.00000  Uiso   1.00
C505   C     0.08874   0.02949   0.82113   0.00000  Uiso   1.00
C506   C     0.06545   0.46496   0.67727   0.00000  Uiso   1.00
C507   C     0.25062   0.09553   0.68025   0.00000  Uiso   1.00
C508   C     0.20313   0.38966   0.86676   0.00000  Uiso   1.00
C509   C     0.22383   0.31875   0.63162   0.00000  Uiso   1.00
C510   C     0.08465   0.20383   0.86557   0.00000  Uiso   1.00
C511   C     0.20836   0.26993   0.95165   0.00000  Uiso   1.00
C512   C     0.14151   0.21625   0.59982   0.00000  Uiso   1.00
C513   C     0.20690   0.27009   0.90198   0.00000  Uiso   1.00
C514   C     0.19270   0.28337   0.60424   0.00000  Uiso   1.00
C515   C     0.12680   0.22925   0.89418   0.00000  Uiso   1.00
C516   C     0.19196   0.28380   0.55465   0.00000  Uiso   1.00
H517   H     0.11936   0.11600   0.81297   0.00000  Uiso   1.00
H518   H     0.09379   0.21456   0.95862   0.00000  Uiso   1.00
H519   H     0.29102   0.18256   0.71125   0.00000  Uiso   1.00
H520   H     0.04184   0.31895   0.78766   0.00000  Uiso   1.00
H521   H     0.07621   0.49439   0.81921   0.00000  Uiso   1.00
H522   H     0.05341   0.49984   0.67832   0.00000  Uiso   1.00
H523   H     0.17796   0.10044   0.64102   0.00000  Uiso   1.00
H524   H     0.25521   0.05883   0.67444   0.00000  Uiso   1.00
H525   H     0.26943   0.10438   0.71630   0.00000  Uiso   1.00
H526   H     0.27066   0.11450   0.65382   0.00000  Uiso   1.00
H527   H     0.25507   0.41246   0.82200   0.00000  Uiso   1.00
H528   H     0.09939   0.37908   0.68753   0.00000  Uiso   1.00
H529   H     0.19472   0.42314   0.88127   0.00000  Uiso   1.00
H530   H     0.23448   0.37349   0.89120   0.00000  Uiso   1.00
H531   H     0.16748   0.36796   0.86483   0.00000  Uiso   1.00
H532   H     0.24091   0.31281   0.66752   0.00000  Uiso   1.00
H533   H     0.09146   0.18791   0.83308   0.00000  Uiso   1.00
H534   H     0.16559   0.02261   0.68098   0.00000  Uiso   1.00
H535   H     0.19065   0.47956   0.81048   0.00000  Uiso   1.00
H536   H     0.12258   0.18682   0.53108   0.00000  Uiso   1.00
H537   H     0.24188   0.28507   0.97258   0.00000  Uiso   1.00
H538   H     0.12162   0.18976   0.61716   0.00000  Uiso   1.00
H539   H     0.23852   0.28589   0.88604   0.00000  Uiso   1.00
H540   H     0.21140   0.31109   0.53808   0.00000  Uiso   1.00
N541   N     0.16667   0.24999   0.62623   0.00000  Uiso   1.00
N542   N     0.16667   0.25001   0.87376   0.00000  Uiso   1.00
N543   N     0.19586   0.10714   0.67473   0.00000  Uiso   1.00
N544   N     0.22018   0.39478   0.82045   0.00000  Uiso   1.00
O545   O     0.16667   0.18454   0.78974   0.00000  Uiso   1.00
O546   O     0.31584   0.31557   0.82538   0.00000  Uiso   1.00
O547   O     0.07930   0.05177   0.85491   0.00000  Uiso   1.00
O548   O     0.04460   0.44094   0.64553   0.00000  Uiso   1.00
O549   O     0.23203   0.35529   0.61366   0.00000  Uiso   1.00
O550   O     0.04155   0.19937   0.87875   0.00000  Uiso   1.00
O551   O     0.16666   0.31547   0.71026   0.00000  Uiso   1.00
O552   O     0.16667   0.18453   0.71026   0.00000  Uiso   1.00
O553   O     0.16666   0.31547   0.78974   0.00000  Uiso   1.00
O554   O     0.09058   0.25000   0.78044   0.00000  Uiso   1.00
O555   O     0.24275   0.25000   0.71955   0.00000  Uiso   1.00
O556   O     0.09058   0.25000   0.70096   0.00000  Uiso   1.00
O557   O     0.24275   0.25001   0.79903   0.00000  Uiso   1.00
O558   O     0.01833   0.18451   0.67514   0.00000  Uiso   1.00
Zn559  Zn    0.16667   0.25001   0.80307   0.00000  Uiso   1.00
Zn560  Zn    0.16667   0.25000   0.69693   0.00000  Uiso   1.00
C561   C     0.49901   0.16344   0.74994   0.00000  Uiso   1.00
C562   C     0.45963   0.23000   0.94361   0.00000  Uiso   1.00
C563   C     0.50041   0.24930   0.52668   0.00000  Uiso   1.00
C564   C     0.50080   0.24973   0.97349   0.00000  Uiso   1.00
C565   C     0.40076   0.24874   0.73825   0.00000  Uiso   1.00
C566   C     0.59926   0.25164   0.76174   0.00000  Uiso   1.00
C567   C     0.34692   0.23961   0.73459   0.00000  Uiso   1.00
C568   C     0.65314   0.26101   0.76530   0.00000  Uiso   1.00
C569   C     0.44972   0.04979   0.78319   0.00000  Uiso   1.00
C570   C     0.43945   0.44697   0.71393   0.00000  Uiso   1.00
C571   C     0.46308   0.09550   0.78435   0.00000  Uiso   1.00
C572   C     0.49932   0.33631   0.74987   0.00000  Uiso   1.00
C573   C     0.45251   0.40145   0.71412   0.00000  Uiso   1.00
C574   C     0.48935   0.11500   0.74878   0.00000  Uiso   1.00
C575   C     0.49011   0.38418   0.74917   0.00000  Uiso   1.00
C576   C     0.50122   0.08875   0.71055   0.00000  Uiso   1.00
C577   C     0.51463   0.41191   0.78524   0.00000  Uiso   1.00
C578   C     0.48744   0.04337   0.70909   0.00000  Uiso   1.00
C579   C     0.50285   0.45740   0.78440   0.00000  Uiso   1.00
C580   C     0.46353   0.02368   0.74569   0.00000  Uiso   1.00
C581   C     0.46574   0.47492   0.74918   0.00000  Uiso   1.00
C582   C     0.66040   0.19958   0.70541   0.00000  Uiso   1.00
C583   C     0.47505   0.21498   0.55034   0.00000  Uiso   1.00
C584   C     0.33973   0.30118   0.79430   0.00000  Uiso   1.00
C585   C     0.42207   0.02949   0.82113   0.00000  Uiso   1.00
C586   C     0.39878   0.46496   0.67727   0.00000  Uiso   1.00
C587   C     0.58395   0.09553   0.68025   0.00000  Uiso   1.00
C588   C     0.53646   0.38966   0.86676   0.00000  Uiso   1.00
C589   C     0.55717   0.31875   0.63162   0.00000  Uiso   1.00
C590   C     0.41798   0.20383   0.86557   0.00000  Uiso   1.00
C591   C     0.54169   0.26993   0.95165   0.00000  Uiso   1.00
C592   C     0.47484   0.21625   0.59982   0.00000  Uiso   1.00
C593   C     0.54023   0.27009   0.90198   0.00000  Uiso   1.00
C594   C     0.52604   0.28337   0.60424   0.00000  Uiso   1.00
C595   C     0.46013   0.22925   0.89418   0.00000  Uiso   1.00
C596   C     0.52529   0.28380   0.55465   0.00000  Uiso   1.00
H597   H     0.45270   0.11600   0.81297   0.00000  Uiso   1.00
H598   H     0.42712   0.21456   0.95862   0.00000  Uiso   1.00
H599   H     0.62436   0.18256   0.71125   0.00000  Uiso   1.00
H600   H     0.37518   0.31895   0.78766   0.00000  Uiso   1.00
H601   H     0.40954   0.49439   0.81921   0.00000  Uiso   1.00
H602   H     0.38674   0.49984   0.67832   0.00000  Uiso   1.00
H603   H     0.51129   0.10044   0.64102   0.00000  Uiso   1.00
H604   H     0.58854   0.05883   0.67444   0.00000  Uiso   1.00
H605   H     0.60276   0.10438   0.71630   0.00000  Uiso   1.00
H606   H     0.60399   0.11450   0.65382   0.00000  Uiso   1.00
H607   H     0.58840   0.41246   0.82200   0.00000  Uiso   1.00
H608   H     0.43272   0.37908   0.68753   0.00000  Uiso   1.00
H609   H     0.52805   0.42314   0.88127   0.00000  Uiso   1.00
H610   H     0.56781   0.37349   0.89120   0.00000  Uiso   1.00
H611   H     0.50082   0.36796   0.86483   0.00000  Uiso   1.00
H612   H     0.57424   0.31281   0.66752   0.00000  Uiso   1.00
H613   H     0.42479   0.18791   0.83308   0.00000  Uiso   1.00
H614   H     0.49892   0.02261   0.68098   0.00000  Uiso   1.00
H615   H     0.52398   0.47956   0.81048   0.00000  Uiso   1.00
H616   H     0.45591   0.18682   0.53108   0.00000  Uiso   1.00
H617   H     0.57521   0.28507   0.97258   0.00000  Uiso   1.00
H618   H     0.45495   0.18976   0.61716   0.00000  Uiso   1.00
H619   H     0.57186   0.28589   0.88604   0.00000  Uiso   1.00
H620   H     0.54473   0.31109   0.53808   0.00000  Uiso   1.00
N621   N     0.50000   0.24999   0.62623   0.00000  Uiso   1.00
N622   N     0.50000   0.25001   0.87376   0.00000  Uiso   1.00
N623   N     0.52919   0.10714   0.67473   0.00000  Uiso   1.00
N624   N     0.55351   0.39478   0.82045   0.00000  Uiso   1.00
O625   O     0.50000   0.18454   0.78974   0.00000  Uiso   1.00
O626   O     0.64917   0.31557   0.82538   0.00000  Uiso   1.00
O627   O     0.41264   0.05177   0.85491   0.00000  Uiso   1.00
O628   O     0.37793   0.44094   0.64553   0.00000  Uiso   1.00
O629   O     0.56537   0.35529   0.61366   0.00000  Uiso   1.00
O630   O     0.37488   0.19937   0.87875   0.00000  Uiso   1.00
O631   O     0.50000   0.31547   0.71026   0.00000  Uiso   1.00
O632   O     0.50000   0.18453   0.71026   0.00000  Uiso   1.00
O633   O     0.50000   0.31547   0.78974   0.00000  Uiso   1.00
O634   O     0.42392   0.25000   0.78044   0.00000  Uiso   1.00
O635   O     0.57608   0.25000   0.71955   0.00000  Uiso   1.00
O636   O     0.42392   0.25000   0.70096   0.00000  Uiso   1.00
O637   O     0.57608   0.25001   0.79903   0.00000  Uiso   1.00
O638   O     0.35166   0.18451   0.67514   0.00000  Uiso   1.00
Zn639  Zn    0.50000   0.25001   0.80307   0.00000  Uiso   1.00
Zn640  Zn    0.50000   0.25000   0.69693   0.00000  Uiso   1.00
C641   C     0.83234   0.16344   0.74994   0.00000  Uiso   1.00
C642   C     0.79297   0.23000   0.94361   0.00000  Uiso   1.00
C643   C     0.83374   0.24930   0.52668   0.00000  Uiso   1.00
C644   C     0.83413   0.24973   0.97349   0.00000  Uiso   1.00
C645   C     0.73409   0.24874   0.73825   0.00000  Uiso   1.00
C646   C     0.93259   0.25164   0.76174   0.00000  Uiso   1.00
C647   C     0.68025   0.23961   0.73459   0.00000  Uiso   1.00
C648   C     0.98648   0.26101   0.76530   0.00000  Uiso   1.00
C649   C     0.78305   0.04979   0.78319   0.00000  Uiso   1.00
C650   C     0.77278   0.44697   0.71393   0.00000  Uiso   1.00
C651   C     0.79642   0.09550   0.78435   0.00000  Uiso   1.00
C652   C     0.83266   0.33631   0.74987   0.00000  Uiso   1.00
C653   C     0.78585   0.40145   0.71412   0.00000  Uiso   1.00
C654   C     0.82269   0.11500   0.74878   0.00000  Uiso   1.00
C655   C     0.82344   0.38418   0.74917   0.00000  Uiso   1.00
C656   C     0.83455   0.08875   0.71055   0.00000  Uiso   1.00
C657   C     0.84797   0.41191   0.78524   0.00000  Uiso   1.00
C658   C     0.82077   0.04337   0.70909   0.00000  Uiso   1.00
C659   C     0.83618   0.45740   0.78440   0.00000  Uiso   1.00
C660   C     0.79687   0.02368   0.74569   0.00000  Uiso   1.00
C661   C     0.79907   0.47492   0.74918   0.00000  Uiso   1.00
C662   C     0.99374   0.19958   0.70541   0.00000  Uiso   1.00
C663   C     0.80838   0.21498   0.55034   0.00000  Uiso   1.00
C664   C     0.67306   0.30118   0.79430   0.00000  Uiso   1.00
C665   C     0.75540   0.02949   0.82113   0.00000  Uiso   1.00
C666   C     0.73212   0.46496   0.67727   0.00000  Uiso   1.00
C667   C     0.91728   0.09553   0.68025   0.00000  Uiso   1.00
C668   C     0.86980   0.38966   0.86676   0.00000  Uiso   1.00
C669   C     0.89050   0.31875   0.63162   0.00000  Uiso   1.00
C670   C     0.75132   0.20383   0.86557   0.00000  Uiso   1.00
C671   C     0.87503   0.26993   0.95165   0.00000  Uiso   1.00
C672   C     0.80818   0.21625   0.59982   0.00000  Uiso   1.00
C673   C     0.87357   0.27009   0.90198   0.00000  Uiso   1.00
C674   C     0.85937   0.28337   0.60424   0.00000  Uiso   1.00
C675   C     0.79347   0.22925   0.89418   0.00000  Uiso   1.00
C676   C     0.85862   0.28380   0.55465   0.00000  Uiso   1.00
H677   H     0.78603   0.11600   0.81297   0.00000  Uiso   1.00
H678   H     0.76046   0.21456   0.95862   0.00000  Uiso   1.00
H679   H     0.95769   0.18256   0.71125   0.00000  Uiso   1.00
H680   H     0.70851   0.31895   0.78766   0.00000  Uiso   1.00
H681   H     0.74287   0.49439   0.81921   0.00000  Uiso   1.00
H682   H     0.72007   0.49984   0.67832   0.00000  Uiso   1.00
H683   H     0.84463   0.10044   0.64102   0.00000  Uiso   1.00
H684   H     0.92188   0.05883   0.67444   0.00000  Uiso   1.00
H685   H     0.93610   0.10438   0.71630   0.00000  Uiso   1.00
H686   H     0.93732   0.11450   0.65382   0.00000  Uiso   1.00
H687   H     0.92173   0.41246   0.82200   0.00000  Uiso   1.00
H688   H     0.76606   0.37908   0.68753   0.00000  Uiso   1.00
H689   H     0.86139   0.42314   0.88127   0.00000  Uiso   1.00
H690   H     0.90114   0.37349   0.89120   0.00000  Uiso   1.00
H691   H     0.83415   0.36796   0.86483   0.00000  Uiso   1.00
H692   H     0.90757   0.31281   0.66752   0.00000  Uiso   1.00
H693   H     0.75812   0.18791   0.83308   0.00000  Uiso   1.00
H694   H     0.83226   0.02261   0.68098   0.00000  Uiso   1.00
H695   H     0.85732   0.47956   0.81048   0.00000  Uiso   1.00
H696   H     0.78925   0.18682   0.53108   0.00000  Uiso   1.00
H697   H     0.90854   0.28507   0.97258   0.00000  Uiso   1.00
H698   H     0.78829   0.18976   0.61716   0.00000  Uiso   1.00
H699   H     0.90519   0.28589   0.88604   0.00000  Uiso   1.00
H700   H     0.87806   0.31109   0.53808   0.00000  Uiso   1.00
N701   N     0.83333   0.24999   0.62623   0.00000  Uiso   1.00
N702   N     0.83333   0.25001   0.87376   0.00000  Uiso   1.00
N703   N     0.86252   0.10714   0.67473   0.00000  Uiso   1.00
N704   N     0.88684   0.39478   0.82045   0.00000  Uiso   1.00
O705   O     0.83334   0.18454   0.78974   0.00000  Uiso   1.00
O706   O     0.98250   0.31557   0.82538   0.00000  Uiso   1.00
O707   O     0.74597   0.05177   0.85491   0.00000  Uiso   1.00
O708   O     0.71126   0.44094   0.64553   0.00000  Uiso   1.00
O709   O     0.89870   0.35529   0.61366   0.00000  Uiso   1.00
O710   O     0.70822   0.19937   0.87875   0.00000  Uiso   1.00
O711   O     0.83333   0.31547   0.71026   0.00000  Uiso   1.00
O712   O     0.83334   0.18453   0.71026   0.00000  Uiso   1.00
O713   O     0.83333   0.31547   0.78974   0.00000  Uiso   1.00
O714   O     0.75725   0.25000   0.78044   0.00000  Uiso   1.00
O715   O     0.90942   0.25000   0.71955   0.00000  Uiso   1.00
O716   O     0.75725   0.25000   0.70096   0.00000  Uiso   1.00
O717   O     0.90942   0.25001   0.79903   0.00000  Uiso   1.00
O718   O     0.68499   0.18451   0.67514   0.00000  Uiso   1.00
Zn719  Zn    0.83333   0.25001   0.80307   0.00000  Uiso   1.00
Zn720  Zn    0.83333   0.25000   0.69693   0.00000  Uiso   1.00
C721   C     0.16567   0.66344   0.74994   0.00000  Uiso   1.00
C722   C     0.12630   0.73000   0.94361   0.00000  Uiso   1.00
C723   C     0.16708   0.74930   0.52668   0.00000  Uiso   1.00
C724   C     0.16746   0.74973   0.97349   0.00000  Uiso   1.00
C725   C     0.06742   0.74874   0.73825   0.00000  Uiso   1.00
C726   C     0.26593   0.75164   0.76174   0.00000  Uiso   1.00
C727   C     0.01359   0.73961   0.73459   0.00000  Uiso   1.00
C728   C     0.31981   0.76101   0.76530   0.00000  Uiso   1.00
C729   C     0.11638   0.54979   0.78319   0.00000  Uiso   1.00
C730   C     0.10612   0.94697   0.71393   0.00000  Uiso   1.00
C731   C     0.12975   0.59550   0.78435   0.00000  Uiso   1.00
C732   C     0.16599   0.83631   0.74987   0.00000  Uiso   1.00
C733   C     0.11918   0.90145   0.71412   0.00000  Uiso   1.00
C734   C     0.15602   0.61500   0.74878   0.00000  Uiso   1.00
C735   C     0.15677   0.88418   0.74917   0.00000  Uiso   1.00
C736   C     0.16789   0.58875   0.71055   0.00000  Uiso   1.00
C737   C     0.18130   0.91191   0.78524   0.00000  Uiso   1.00
C738   C     0.15410   0.54337   0.70909   0.00000  Uiso   1.00
C739   C     0.16951   0.95740   0.78440   0.00000  Uiso   1.00
C740   C     0.13020   0.52368   0.74569   0.00000  Uiso   1.00
C741   C     0.13240   0.97492   0.74918   0.00000  Uiso   1.00
C742   C     0.32707   0.69958   0.70541   0.00000  Uiso   1.00
C743   C     0.14171   0.71498   0.55034   0.00000  Uiso   1.00
C744   C     0.00640   0.80118   0.79430   0.00000  Uiso   1.00
C745   C     0.08874   0.52949   0.82113   0.00000  Uiso   1.00
C746   C     0.06545   0.96496   0.67727   0.00000  Uiso   1.00
C747   C     0.25062   0.59553   0.68025   0.00000  Uiso   1.00
C748   C     0.20313   0.88966   0.86676   0.00000  Uiso   1.00
C749   C     0.22383   0.81875   0.63162   0.00000  Uiso   1.00
C750   C     0.08465   0.70383   0.86557   0.00000  Uiso   1.00
C751   C     0.20836   0.76993   0.95165   0.00000  Uiso   1.00
C752   C     0.14151   0.71625   0.59982   0.00000  Uiso   1.00
C753   C     0.20690   0.77009   0.90198   0.00000  Uiso   1.00
C754   C     0.19270   0.78337   0.60424   0.00000  Uiso   1.00
C755   C     0.12680   0.72925   0.89418   0.00000  Uiso   1.00
C756   C     0.19196   0.78380   0.55465   0.00000  Uiso   1.00
H757   H     0.11936   0.61600   0.81297   0.00000  Uiso   1.00
H758   H     0.09379   0.71456   0.95862   0.00000  Uiso   1.00
H759   H     0.29102   0.68256   0.71125   0.00000  Uiso   1.00
H760   H     0.04184   0.81895   0.78766   0.00000  Uiso   1.00
H761   H     0.07621   0.99439   0.81921   0.00000  Uiso   1.00
H762   H     0.05341   0.99984   0.67832   0.00000  Uiso   1.00
H763   H     0.17796   0.60044   0.64102   0.00000  Uiso   1.00
H764   H     0.25521   0.55883   0.67444   0.00000  Uiso   1.00
H765   H     0.26943   0.60438   0.71630   0.00000  Uiso   1.00
H766   H     0.27066   0.61450   0.65382   0.00000  Uiso   1.00
H767   H     0.25507   0.91246   0.82200   0.00000  Uiso   1.00
H768   H     0.09939   0.87908   0.68753   0.00000  Uiso   1.00
H769   H     0.19472   0.92314   0.88127   0.00000  Uiso   1.00
H770   H     0.23448   0.87349   0.89120   0.00000  Uiso   1.00
H771   H     0.16748   0.86796   0.86483   0.00000  Uiso   1.00
H772   H     0.24091   0.81281   0.66752   0.00000  Uiso   1.00
H773   H     0.09146   0.68791   0.83308   0.00000  Uiso   1.00
H774   H     0.16559   0.52261   0.68098   0.00000  Uiso   1.00
H775   H     0.19065   0.97956   0.81048   0.00000  Uiso   1.00
H776   H     0.12258   0.68682   0.53108   0.00000  Uiso   1.00
H777   H     0.24188   0.78507   0.97258   0.00000  Uiso   1.00
H778   H     0.12162   0.68976   0.61716   0.00000  Uiso   1.00
H779   H     0.23852   0.78589   0.88604   0.00000  Uiso   1.00
H780   H     0.21140   0.81109   0.53808   0.00000  Uiso   1.00
N781   N     0.16667   0.74999   0.62623   0.00000  Uiso   1.00
N782   N     0.16667   0.75001   0.87376   0.00000  Uiso   1.00
N783   N     0.19586   0.60714   0.67473   0.00000  Uiso   1.00
N784   N     0.22018   0.89478   0.82045   0.00000  Uiso   1.00
O785   O     0.16667   0.68454   0.78974   0.00000  Uiso   1.00
O786   O     0.31584   0.81557   0.82538   0.00000  Uiso   1.00
O787   O     0.07930   0.55177   0.85491   0.00000  Uiso   1.00
O788   O     0.04460   0.94094   0.64553   0.00000  Uiso   1.00
O789   O     0.23203   0.85529   0.61366   0.00000  Uiso   1.00
O790   O     0.04155   0.69937   0.87875   0.00000  Uiso   1.00
O791   O     0.16666   0.81547   0.71026   0.00000  Uiso   1.00
O792   O     0.16667   0.68453   0.71026   0.00000  Uiso   1.00
O793   O     0.16666   0.81547   0.78974   0.00000  Uiso   1.00
O794   O     0.09058   0.75000   0.78044   0.00000  Uiso   1.00
O795   O     0.24275   0.75000   0.71955   0.00000  Uiso   1.00
O796   O     0.09058   0.75000   0.70096   0.00000  Uiso   1.00
O797   O     0.24275   0.75001   0.79903   0.00000  Uiso   1.00
O798   O     0.01833   0.68451   0.67514   0.00000  Uiso   1.00
Zn799  Zn    0.16667   0.75001   0.80307   0.00000  Uiso   1.00
Zn800  Zn    0.16667   0.75000   0.69693   0.00000  Uiso   1.00
C801   C     0.49901   0.66344   0.74994   0.00000  Uiso   1.00
C802   C     0.45963   0.73000   0.94361   0.00000  Uiso   1.00
C803   C     0.50041   0.74930   0.52668   0.00000  Uiso   1.00
C804   C     0.50080   0.74973   0.97349   0.00000  Uiso   1.00
C805   C     0.40076   0.74874   0.73825   0.00000  Uiso   1.00
C806   C     0.59926   0.75164   0.76174   0.00000  Uiso   1.00
C807   C     0.34692   0.73961   0.73459   0.00000  Uiso   1.00
C808   C     0.65314   0.76101   0.76530   0.00000  Uiso   1.00
C809   C     0.44972   0.54979   0.78319   0.00000  Uiso   1.00
C810   C     0.43945   0.94697   0.71393   0.00000  Uiso   1.00
C811   C     0.46308   0.59550   0.78435   0.00000  Uiso   1.00
C812   C     0.49932   0.83631   0.74987   0.00000  Uiso   1.00
C813   C     0.45251   0.90145   0.71412   0.00000  Uiso   1.00
C814   C     0.48935   0.61500   0.74878   0.00000  Uiso   1.00
C815   C     0.49011   0.88418   0.74917   0.00000  Uiso   1.00
C816   C     0.50122   0.58875   0.71055   0.00000  Uiso   1.00
C817   C     0.51463   0.91191   0.78524   0.00000  Uiso   1.00
C818   C     0.48744   0.54337   0.70909   0.00000  Uiso   1.00
C819   C     0.50285   0.95740   0.78440   0.00000  Uiso   1.00
C820   C     0.46353   0.52368   0.74569   0.00000  Uiso   1.00
C821   C     0.46574   0.97492   0.74918   0.00000  Uiso   1.00
C822   C     0.66040   0.69958   0.70541   0.00000  Uiso   1.00
C823   C     0.47505   0.71498   0.55034   0.00000  Uiso   1.00
C824   C     0.33973   0.80118   0.79430   0.00000  Uiso   1.00
C825   C     0.42207   0.52949   0.82113   0.00000  Uiso   1.00
C826   C     0.39878   0.96496   0.67727   0.00000  Uiso   1.00
C827   C     0.58395   0.59553   0.68025   0.00000  Uiso   1.00
C828   C     0.53646   0.88966   0.86676   0.00000  Uiso   1.00
C829   C     0.55717   0.81875   0.63162   0.00000  Uiso   1.00
C830   C     0.41798   0.70383   0.86557   0.00000  Uiso   1.00
C831   C     0.54169   0.76993   0.95165   0.00000  Uiso   1.00
C832   C     0.47484   0.71625   0.59982   0.00000  Uiso   1.00
C833   C     0.54023   0.77009   0.90198   0.00000  Uiso   1.00
C834   C     0.52604   0.78337   0.60424   0.00000  Uiso   1.00
C835   C     0.46013   0.72925   0.89418   0.00000  Uiso   1.00
C836   C     0.52529   0.78380   0.55465   0.00000  Uiso   1.00
H837   H     0.45270   0.61600   0.81297   0.00000  Uiso   1.00
H838   H     0.42712   0.71456   0.95862   0.00000  Uiso   1.00
H839   H     0.62436   0.68256   0.71125   0.00000  Uiso   1.00
H840   H     0.37518   0.81895   0.78766   0.00000  Uiso   1.00
H841   H     0.40954   0.99439   0.81921   0.00000  Uiso   1.00
H842   H     0.38674   0.99984   0.67832   0.00000  Uiso   1.00
H843   H     0.51129   0.60044   0.64102   0.00000  Uiso   1.00
H844   H     0.58854   0.55883   0.67444   0.00000  Uiso   1.00
H845   H     0.60276   0.60438   0.71630   0.00000  Uiso   1.00
H846   H     0.60399   0.61450   0.65382   0.00000  Uiso   1.00
H847   H     0.58840   0.91246   0.82200   0.00000  Uiso   1.00
H848   H     0.43272   0.87908   0.68753   0.00000  Uiso   1.00
H849   H     0.52805   0.92314   0.88127   0.00000  Uiso   1.00
H850   H     0.56781   0.87349   0.89120   0.00000  Uiso   1.00
H851   H     0.50082   0.86796   0.86483   0.00000  Uiso   1.00
H852   H     0.57424   0.81281   0.66752   0.00000  Uiso   1.00
H853   H     0.42479   0.68791   0.83308   0.00000  Uiso   1.00
H854   H     0.49892   0.52261   0.68098   0.00000  Uiso   1.00
H855   H     0.52398   0.97956   0.81048   0.00000  Uiso   1.00
H856   H     0.45591   0.68682   0.53108   0.00000  Uiso   1.00
H857   H     0.57521   0.78507   0.97258   0.00000  Uiso   1.00
H858   H     0.45495   0.68976   0.61716   0.00000  Uiso   1.00
H859   H     0.57186   0.78589   0.88604   0.00000  Uiso   1.00
H860   H     0.54473   0.81109   0.53808   0.00000  Uiso   1.00
N861   N     0.50000   0.74999   0.62623   0.00000  Uiso   1.00
N862   N     0.50000   0.75001   0.87376   0.00000  Uiso   1.00
N863   N     0.52919   0.60714   0.67473   0.00000  Uiso   1.00
N864   N     0.55351   0.89478   0.82045   0.00000  Uiso   1.00
O865   O     0.50000   0.68454   0.78974   0.00000  Uiso   1.00
O866   O     0.64917   0.81557   0.82538   0.00000  Uiso   1.00
O867   O     0.41264   0.55177   0.85491   0.00000  Uiso   1.00
O868   O     0.37793   0.94094   0.64553   0.00000  Uiso   1.00
O869   O     0.56537   0.85529   0.61366   0.00000  Uiso   1.00
O870   O     0.37488   0.69937   0.87875   0.00000  Uiso   1.00
O871   O     0.50000   0.81547   0.71026   0.00000  Uiso   1.00
O872   O     0.50000   0.68453   0.71026   0.00000  Uiso   1.00
O873   O     0.50000   0.81547   0.78974   0.00000  Uiso   1.00
O874   O     0.42392   0.75000   0.78044   0.00000  Uiso   1.00
O875   O     0.57608   0.75000   0.71955   0.00000  Uiso   1.00
O876   O     0.42392   0.75000   0.70096   0.00000  Uiso   1.00
O877   O     0.57608   0.75001   0.79903   0.00000  Uiso   1.00
O878   O     0.35166   0.68451   0.67514   0.00000  Uiso   1.00
Zn879  Zn    0.50000   0.75001   0.80307   0.00000  Uiso   1.00
Zn880  Zn    0.50000   0.75000   0.69693   0.00000  Uiso   1.00
C881   C     0.83234   0.66344   0.74994   0.00000  Uiso   1.00
C882   C     0.79297   0.73000   0.94361   0.00000  Uiso   1.00
C883   C     0.83374   0.74930   0.52668   0.00000  Uiso   1.00
C884   C     0.83413   0.74973   0.97349   0.00000  Uiso   1.00
C885   C     0.73409   0.74874   0.73825   0.00000  Uiso   1.00
C886   C     0.93259   0.75164   0.76174   0.00000  Uiso   1.00
C887   C     0.68025   0.73961   0.73459   0.00000  Uiso   1.00
C888   C     0.98648   0.76101   0.76530   0.00000  Uiso   1.00
C889   C     0.78305   0.54979   0.78319   0.00000  Uiso   1.00
C890   C     0.77278   0.94697   0.71393   0.00000  Uiso   1.00
C891   C     0.79642   0.59550   0.78435   0.00000  Uiso   1.00
C892   C     0.83266   0.83631   0.74987   0.00000  Uiso   1.00
C893   C     0.78585   0.90145   0.71412   0.00000  Uiso   1.00
C894   C     0.82269   0.61500   0.74878   0.00000  Uiso   1.00
C895   C     0.82344   0.88418   0.74917   0.00000  Uiso   1.00
C896   C     0.83455   0.58875   0.71055   0.00000  Uiso   1.00
C897   C     0.84797   0.91191   0.78524   0.00000  Uiso   1.00
C898   C     0.82077   0.54337   0.70909   0.00000  Uiso   1.00
C899   C     0.83618   0.95740   0.78440   0.00000  Uiso   1.00
C900   C     0.79687   0.52368   0.74569   0.00000  Uiso   1.00
C901   C     0.79907   0.97492   0.74918   0.00000  Uiso   1.00
C902   C     0.99374   0.69958   0.70541   0.00000  Uiso   1.00
C903   C     0.80838   0.71498   0.55034   0.00000  Uiso   1.00
C904   C     0.67306   0.80118   0.79430   0.00000  Uiso   1.00
C905   C     0.75540   0.52949   0.82113   0.00000  Uiso   1.00
C906   C     0.73212   0.96496   0.67727   0.00000  Uiso   1.00
C907   C     0.91728   0.59553   0.68025   0.00000  Uiso   1.00
C908   C     0.86980   0.88966   0.86676   0.00000  Uiso   1.00
C909   C     0.89050   0.81875   0.63162   0.00000  Uiso   1.00
C910   C     0.75132   0.70383   0.86557   0.00000  Uiso   1.00
C911   C     0.87503   0.76993   0.95165   0.00000  Uiso   1.00
C912   C     0.80818   0.71625   0.59982   0.00000  Uiso   1.00
C913   C     0.87357   0.77009   0.90198   0.00000  Uiso   1.00
C914   C     0.85937   0.78337   0.60424   0.00000  Uiso   1.00
C915   C     0.79347   0.72925   0.89418   0.00000  Uiso   1.00
C916   C     0.85862   0.78380   0.55465   0.00000  Uiso   1.00
H917   H     0.78603   0.61600   0.81297   0.00000  Uiso   1.00
H918   H     0.76046   0.71456   0.95862   0.00000  Uiso   1.00
H919   H     0.95769   0.68256   0.71125   0.00000  Uiso   1.00
H920   H     0.70851   0.81895   0.78766   0.00000  Uiso   1.00
H921   H     0.74287   0.99439   0.81921   0.00000  Uiso   1.00
H922   H     0.72007   0.99984   0.67832   0.00000  Uiso   1.00
H923   H     0.84463   0.60044   0.64102   0.00000  Uiso   1.00
H924   H     0.92188   0.55883   0.67444   0.00000  Uiso   1.00
H925   H     0.93610   0.60438   0.71630   0.00000  Uiso   1.00
H926   H     0.93732   0.61450   0.65382   0.00000  Uiso   1.00
H927   H     0.92173   0.91246   0.82200   0.00000  Uiso   1.00
H928   H     0.76606   0.87908   0.68753   0.00000  Uiso   1.00
H929   H     0.86139   0.92314   0.88127   0.00000  Uiso   1.00
H930   H     0.90114   0.87349   0.89120   0.00000  Uiso   1.00
H931   H     0.83415   0.86796   0.86483   0.00000  Uiso   1.00
H932   H     0.90757   0.81281   0.66752   0.00000  Uiso   1.00
H933   H     0.75812   0.68791   0.83308   0.00000  Uiso   1.00
H934   H     0.83226   0.52261   0.68098   0.00000  Uiso   1.00
H935   H     0.85732   0.97956   0.81048   0.00000  Uiso   1.00
H936   H     0.78925   0.68682   0.53108   0.00000  Uiso   1.00
H937   H     0.90854   0.78507   0.97258   0.00000  Uiso   1.00
H938   H     0.78829   0.68976   0.61716   0.00000  Uiso   1.00
H939   H     0.90519   0.78589   0.88604   0.00000  Uiso   1.00
H940   H     0.87806   0.81109   0.53808   0.00000  Uiso   1.00
N941   N     0.83333   0.74999   0.62623   0.00000  Uiso   1.00
N942   N     0.83333   0.75001   0.87376   0.00000  Uiso   1.00
N943   N     0.86252   0.60714   0.67473   0.00000  Uiso   1.00
N944   N     0.88684   0.89478   0.82045   0.00000  Uiso   1.00
O945   O     0.83334   0.68454   0.78974   0.00000  Uiso   1.00
O946   O     0.98250   0.81557   0.82538   0.00000  Uiso   1.00
O947   O     0.74597   0.55177   0.85491   0.00000  Uiso   1.00
O948   O     0.71126   0.94094   0.64553   0.00000  Uiso   1.00
O949   O     0.89870   0.85529   0.61366   0.00000  Uiso   1.00
O950   O     0.70822   0.69937   0.87875   0.00000  Uiso   1.00
O951   O     0.83333   0.81547   0.71026   0.00000  Uiso   1.00
O952   O     0.83334   0.68453   0.71026   0.00000  Uiso   1.00
O953   O     0.83333   0.81547   0.78974   0.00000  Uiso   1.00
O954   O     0.75725   0.75000   0.78044   0.00000  Uiso   1.00
O955   O     0.90942   0.75000   0.71955   0.00000  Uiso   1.00
O956   O     0.75725   0.75000   0.70096   0.00000  Uiso   1.00
O957   O     0.90942   0.75001   0.79903   0.00000  Uiso   1.00
O958   O     0.68499   0.68451   0.67514   0.00000  Uiso   1.00
Zn959  Zn    0.83333   0.75001   0.80307   0.00000  Uiso   1.00
Zn960  Zn    0.83333   0.75000   0.69693   0.00000  Uiso   1.00
loop_
_geom_bond_atom_site_label_1
_geom_bond_atom_site_label_2
_geom_bond_distance
_geom_bond_site_symmetry_2
_ccdc_geom_bond_type
C1     O65     1.295   .     A
C1     O72     1.290   .     A
C1     C14     1.454   .     S
C2     C35     1.410   .     A
C2     C4      1.400   .     A
C2     H38     1.082   .     S
C3     C23     1.414   .     A
C3     C36     1.400   .     A
C3     C484    1.516   1_554 S
C4     C31     1.414   .     A
C4     C483    1.516   .     S
C5     O74     1.274   .     A
C5     C7      1.402   .     S
C5     O76     1.281   .     A
C6     O77     1.282   .     A
C6     C8      1.405   .     S
C6     O75     1.275   .     A
C7     C168    1.351   1_455 S
C7     C182    1.501   1_455 S
C8     C87     1.351   .     S
C8     C104    1.502   .     S
C9     C25     1.486   .     S
C9     C20     1.407   .     A
C9     C11     1.393   .     A
C10    C26     1.486   .     S
C10    C21     1.408   .     A
C10    C13     1.394   .     A
C11    C14     1.404   .     A
C11    H37     1.082   .     S
C12    O73     1.287   .     A
C12    C15     1.441   .     S
C12    O71     1.292   .     A
C13    C15     1.401   .     A
C13    H48     1.084   .     S
C14    C16     1.409   .     A
C15    C17     1.403   .     A
C16    N63     1.422   .     S
C16    C18     1.386   .     A
C17    N64     1.423   .     S
C17    C19     1.385   .     A
C18    C20     1.396   .     A
C18    H54     1.085   .     S
C19    C21     1.399   .     A
C19    H55     1.085   .     S
C20    C261    1.449   1_545 S
C21    C260    1.449   .     S
C22    H39     1.082   .     S
C22    C87     1.501   .     S
C22    O158    1.222   .     S
C23    H56     1.081   .     S
C23    C32     1.410   .     A
C24    H40     1.085   .     S
C24    C168    1.502   1_455 S
C24    O226    1.221   1_455 S
C25    O67     1.221   .     D
C25    H281    1.085   1_545 S
C26    H42     1.085   .     S
C26    O68     1.221   .     D
C27    H44     1.111   .     S
C27    N63     1.446   .     S
C27    H46     1.110   .     S
C27    H45     1.111   .     S
C28    H51     1.111   .     S
C28    H50     1.110   .     S
C28    H49     1.111   .     S
C28    N64     1.447   .     S
C29    O69     1.221   .     D
C29    C34     1.479   .     S
C29    H52     1.076   .     S
C30    C35     1.477   .     S
C30    O70     1.221   .     D
C30    H53     1.076   .     S
C31    C33     1.410   .     A
C31    H57     1.081   .     S
C32    H58     1.082   .     S
C32    N61     1.364   .     A
C33    N62     1.364   .     A
C33    H59     1.081   .     S
C34    N61     1.378   .     A
C34    C36     1.410   .     A
C35    N62     1.378   .     A
C36    H60     1.082   .     S
H41    C265    1.085   .     S
H43    N63     1.032   .     S
H47    N64     1.032   .     S
N61    Zn80    2.013   .     S
N62    Zn79    2.013   .     S
O65    Zn79    1.980   .     S
O66    C104    1.221   .     S
O71    Zn80    1.980   .     S
O72    Zn80    1.974   .     S
O73    Zn79    1.974   .     S
O74    Zn79    1.987   .     S
O75    Zn80    1.987   .     S
O76    Zn80    1.979   .     S
O77    Zn79    1.979   .     S
O78    C182    1.222   1_455 S
C81    O145    1.295   .     A
C81    O152    1.290   .     A
C81    C94     1.454   .     S
C82    C115    1.410   .     A
C82    C84     1.400   .     A
C82    H118    1.082   .     S
C83    C103    1.414   .     A
C83    C116    1.400   .     A
C83    C564    1.516   1_554 S
C84    C111    1.414   .     A
C84    C563    1.516   .     S
C85    O154    1.274   .     A
C85    C87     1.402   .     S
C85    O156    1.281   .     A
C86    O157    1.282   .     A
C86    C88     1.405   .     S
C86    O155    1.275   .     A
C88    C167    1.351   .     S
C88    C184    1.502   .     S
C89    C105    1.486   .     S
C89    C100    1.407   .     A
C89    C91     1.393   .     A
C90    C106    1.486   .     S
C90    C101    1.408   .     A
C90    C93     1.394   .     A
C91    C94     1.404   .     A
C91    H117    1.082   .     S
C92    O153    1.287   .     A
C92    C95     1.441   .     S
C92    O151    1.292   .     A
C93    C95     1.401   .     A
C93    H128    1.084   .     S
C94    C96     1.409   .     A
C95    C97     1.403   .     A
C96    N143    1.422   .     S
C96    C98     1.386   .     A
C97    N144    1.423   .     S
C97    C99     1.385   .     A
C98    C100    1.396   .     A
C98    H134    1.085   .     S
C99    C101    1.399   .     A
C99    H135    1.085   .     S
C100   C341    1.449   1_545 S
C101   C340    1.449   .     S
C102   H119    1.082   .     S
C102   C167    1.501   .     S
C102   O238    1.222   .     S
C103   H136    1.081   .     S
C103   C112    1.410   .     A
C104   H120    1.085   .     S
C105   O147    1.221   .     D
C105   H361    1.085   1_545 S
C106   H122    1.085   .     S
C106   O148    1.221   .     D
C107   H124    1.111   .     S
C107   N143    1.446   .     S
C107   H126    1.110   .     S
C107   H125    1.111   .     S
C108   H131    1.111   .     S
C108   H130    1.110   .     S
C108   H129    1.111   .     S
C108   N144    1.447   .     S
C109   O149    1.221   .     D
C109   C114    1.479   .     S
C109   H132    1.076   .     S
C110   C115    1.477   .     S
C110   O150    1.221   .     D
C110   H133    1.076   .     S
C111   C113    1.410   .     A
C111   H137    1.081   .     S
C112   H138    1.082   .     S
C112   N141    1.364   .     A
C113   N142    1.364   .     A
C113   H139    1.081   .     S
C114   N141    1.378   .     A
C114   C116    1.410   .     A
C115   N142    1.378   .     A
C116   H140    1.082   .     S
H121   C345    1.085   .     S
H123   N143    1.032   .     S
H127   N144    1.032   .     S
N141   Zn160   2.013   .     S
N142   Zn159   2.013   .     S
O145   Zn159   1.980   .     S
O146   C184    1.221   .     S
O151   Zn160   1.980   .     S
O152   Zn160   1.974   .     S
O153   Zn159   1.974   .     S
O154   Zn159   1.987   .     S
O155   Zn160   1.987   .     S
O156   Zn160   1.979   .     S
O157   Zn159   1.979   .     S
C161   O225    1.295   .     A
C161   O232    1.290   .     A
C161   C174    1.454   .     S
C162   C195    1.410   .     A
C162   C164    1.400   .     A
C162   H198    1.082   .     S
C163   C183    1.414   .     A
C163   C196    1.400   .     A
C163   C644    1.516   1_554 S
C164   C191    1.414   .     A
C164   C643    1.516   .     S
C165   O234    1.274   .     A
C165   C167    1.402   .     S
C165   O236    1.281   .     A
C166   O237    1.282   .     A
C166   C168    1.405   .     S
C166   O235    1.275   .     A
C168   C7      1.351   1_655 S
C168   C24     1.502   1_655 S
C169   C185    1.486   .     S
C169   C180    1.407   .     A
C169   C171    1.393   .     A
C170   C186    1.486   .     S
C170   C181    1.408   .     A
C170   C173    1.394   .     A
C171   C174    1.404   .     A
C171   H197    1.082   .     S
C172   O233    1.287   .     A
C172   C175    1.441   .     S
C172   O231    1.292   .     A
C173   C175    1.401   .     A
C173   H208    1.084   .     S
C174   C176    1.409   .     A
C175   C177    1.403   .     A
C176   N223    1.422   .     S
C176   C178    1.386   .     A
C177   N224    1.423   .     S
C177   C179    1.385   .     A
C178   C180    1.396   .     A
C178   H214    1.085   .     S
C179   C181    1.399   .     A
C179   H215    1.085   .     S
C180   C421    1.449   1_545 S
C181   C420    1.449   .     S
C182   H199    1.082   .     S
C182   C7      1.501   1_655 S
C182   O78     1.222   1_655 S
C183   H216    1.081   .     S
C183   C192    1.410   .     A
C184   H200    1.085   .     S
C185   O227    1.221   .     D
C185   H441    1.085   1_545 S
C186   H202    1.085   .     S
C186   O228    1.221   .     D
C187   H204    1.111   .     S
C187   N223    1.446   .     S
C187   H206    1.110   .     S
C187   H205    1.111   .     S
C188   H211    1.111   .     S
C188   H210    1.110   .     S
C188   H209    1.111   .     S
C188   N224    1.447   .     S
C189   O229    1.221   .     D
C189   C194    1.479   .     S
C189   H212    1.076   .     S
C190   C195    1.477   .     S
C190   O230    1.221   .     D
C190   H213    1.076   .     S
C191   C193    1.410   .     A
C191   H217    1.081   .     S
C192   H218    1.082   .     S
C192   N221    1.364   .     A
C193   N222    1.364   .     A
C193   H219    1.081   .     S
C194   N221    1.378   .     A
C194   C196    1.410   .     A
C195   N222    1.378   .     A
C196   H220    1.082   .     S
H201   C425    1.085   .     S
H203   N223    1.032   .     S
H207   N224    1.032   .     S
N221   Zn240   2.013   .     S
N222   Zn239   2.013   .     S
O225   Zn239   1.980   .     S
O226   C24     1.221   1_655 S
O231   Zn240   1.980   .     S
O232   Zn240   1.974   .     S
O233   Zn239   1.974   .     S
O234   Zn239   1.987   .     S
O235   Zn240   1.987   .     S
O236   Zn240   1.979   .     S
O237   Zn239   1.979   .     S
C241   O305    1.295   .     A
C241   O312    1.290   .     A
C241   C254    1.454   .     S
C242   C275    1.410   .     A
C242   C244    1.400   .     A
C242   H278    1.082   .     S
C243   C263    1.414   .     A
C243   C276    1.400   .     A
C243   C724    1.516   1_554 S
C244   C271    1.414   .     A
C244   C723    1.516   .     S
C245   O314    1.274   .     A
C245   C247    1.402   .     S
C245   O316    1.281   .     A
C246   O317    1.282   .     A
C246   C248    1.405   .     S
C246   O315    1.275   .     A
C247   C408    1.351   1_455 S
C247   C422    1.501   1_455 S
C248   C327    1.351   .     S
C248   C344    1.502   .     S
C249   C265    1.486   .     S
C249   C260    1.407   .     A
C249   C251    1.393   .     A
C250   C266    1.486   .     S
C250   C261    1.408   .     A
C250   C253    1.394   .     A
C251   C254    1.404   .     A
C251   H277    1.082   .     S
C252   O313    1.287   .     A
C252   C255    1.441   .     S
C252   O311    1.292   .     A
C253   C255    1.401   .     A
C253   H288    1.084   .     S
C254   C256    1.409   .     A
C255   C257    1.403   .     A
C256   N303    1.422   .     S
C256   C258    1.386   .     A
C257   N304    1.423   .     S
C257   C259    1.385   .     A
C258   C260    1.396   .     A
C258   H294    1.085   .     S
C259   C261    1.399   .     A
C259   H295    1.085   .     S
C261   C20     1.449   1_565 S
C262   H279    1.082   .     S
C262   C327    1.501   .     S
C262   O398    1.222   .     S
C263   H296    1.081   .     S
C263   C272    1.410   .     A
C264   H280    1.085   .     S
C264   C408    1.502   1_455 S
C264   O466    1.221   1_455 S
C265   O307    1.221   .     D
C266   H282    1.085   .     S
C266   O308    1.221   .     D
C267   H284    1.111   .     S
C267   N303    1.446   .     S
C267   H286    1.110   .     S
C267   H285    1.111   .     S
C268   H291    1.111   .     S
C268   H290    1.110   .     S
C268   H289    1.111   .     S
C268   N304    1.447   .     S
C269   O309    1.221   .     D
C269   C274    1.479   .     S
C269   H292    1.076   .     S
C270   C275    1.477   .     S
C270   O310    1.221   .     D
C270   H293    1.076   .     S
C271   C273    1.410   .     A
C271   H297    1.081   .     S
C272   H298    1.082   .     S
C272   N301    1.364   .     A
C273   N302    1.364   .     A
C273   H299    1.081   .     S
C274   N301    1.378   .     A
C274   C276    1.410   .     A
C275   N302    1.378   .     A
C276   H300    1.082   .     S
H281   C25     1.085   1_565 S
H283   N303    1.032   .     S
H287   N304    1.032   .     S
N301   Zn320   2.013   .     S
N302   Zn319   2.013   .     S
O305   Zn319   1.980   .     S
O306   C344    1.221   .     S
O311   Zn320   1.980   .     S
O312   Zn320   1.974   .     S
O313   Zn319   1.974   .     S
O314   Zn319   1.987   .     S
O315   Zn320   1.987   .     S
O316   Zn320   1.979   .     S
O317   Zn319   1.979   .     S
O318   C422    1.222   1_455 S
C321   O385    1.295   .     A
C321   O392    1.290   .     A
C321   C334    1.454   .     S
C322   C355    1.410   .     A
C322   C324    1.400   .     A
C322   H358    1.082   .     S
C323   C343    1.414   .     A
C323   C356    1.400   .     A
C323   C804    1.516   1_554 S
C324   C351    1.414   .     A
C324   C803    1.516   .     S
C325   O394    1.274   .     A
C325   C327    1.402   .     S
C325   O396    1.281   .     A
C326   O397    1.282   .     A
C326   C328    1.405   .     S
C326   O395    1.275   .     A
C328   C407    1.351   .     S
C328   C424    1.502   .     S
C329   C345    1.486   .     S
C329   C340    1.407   .     A
C329   C331    1.393   .     A
C330   C346    1.486   .     S
C330   C341    1.408   .     A
C330   C333    1.394   .     A
C331   C334    1.404   .     A
C331   H357    1.082   .     S
C332   O393    1.287   .     A
C332   C335    1.441   .     S
C332   O391    1.292   .     A
C333   C335    1.401   .     A
C333   H368    1.084   .     S
C334   C336    1.409   .     A
C335   C337    1.403   .     A
C336   N383    1.422   .     S
C336   C338    1.386   .     A
C337   N384    1.423   .     S
C337   C339    1.385   .     A
C338   C340    1.396   .     A
C338   H374    1.085   .     S
C339   C341    1.399   .     A
C339   H375    1.085   .     S
C341   C100    1.449   1_565 S
C342   H359    1.082   .     S
C342   C407    1.501   .     S
C342   O478    1.222   .     S
C343   H376    1.081   .     S
C343   C352    1.410   .     A
C344   H360    1.085   .     S
C345   O387    1.221   .     D
C346   H362    1.085   .     S
C346   O388    1.221   .     D
C347   H364    1.111   .     S
C347   N383    1.446   .     S
C347   H366    1.110   .     S
C347   H365    1.111   .     S
C348   H371    1.111   .     S
C348   H370    1.110   .     S
C348   H369    1.111   .     S
C348   N384    1.447   .     S
C349   O389    1.221   .     D
C349   C354    1.479   .     S
C349   H372    1.076   .     S
C350   C355    1.477   .     S
C350   O390    1.221   .     D
C350   H373    1.076   .     S
C351   C353    1.410   .     A
C351   H377    1.081   .     S
C352   H378    1.082   .     S
C352   N381    1.364   .     A
C353   N382    1.364   .     A
C353   H379    1.081   .     S
C354   N381    1.378   .     A
C354   C356    1.410   .     A
C355   N382    1.378   .     A
C356   H380    1.082   .     S
H361   C105    1.085   1_565 S
H363   N383    1.032   .     S
H367   N384    1.032   .     S
N381   Zn400   2.013   .     S
N382   Zn399   2.013   .     S
O385   Zn399   1.980   .     S
O386   C424    1.221   .     S
O391   Zn400   1.980   .     S
O392   Zn400   1.974   .     S
O393   Zn399   1.974   .     S
O394   Zn399   1.987   .     S
O395   Zn400   1.987   .     S
O396   Zn400   1.979   .     S
O397   Zn399   1.979   .     S
C401   O465    1.295   .     A
C401   O472    1.290   .     A
C401   C414    1.454   .     S
C402   C435    1.410   .     A
C402   C404    1.400   .     A
C402   H438    1.082   .     S
C403   C423    1.414   .     A
C403   C436    1.400   .     A
C403   C884    1.516   1_554 S
C404   C431    1.414   .     A
C404   C883    1.516   .     S
C405   O474    1.274   .     A
C405   C407    1.402   .     S
C405   O476    1.281   .     A
C406   O477    1.282   .     A
C406   C408    1.405   .     S
C406   O475    1.275   .     A
C408   C247    1.351   1_655 S
C408   C264    1.502   1_655 S
C409   C425    1.486   .     S
C409   C420    1.407   .     A
C409   C411    1.393   .     A
C410   C426    1.486   .     S
C410   C421    1.408   .     A
C410   C413    1.394   .     A
C411   C414    1.404   .     A
C411   H437    1.082   .     S
C412   O473    1.287   .     A
C412   C415    1.441   .     S
C412   O471    1.292   .     A
C413   C415    1.401   .     A
C413   H448    1.084   .     S
C414   C416    1.409   .     A
C415   C417    1.403   .     A
C416   N463    1.422   .     S
C416   C418    1.386   .     A
C417   N464    1.423   .     S
C417   C419    1.385   .     A
C418   C420    1.396   .     A
C418   H454    1.085   .     S
C419   C421    1.399   .     A
C419   H455    1.085   .     S
C421   C180    1.449   1_565 S
C422   H439    1.082   .     S
C422   C247    1.501   1_655 S
C422   O318    1.222   1_655 S
C423   H456    1.081   .     S
C423   C432    1.410   .     A
C424   H440    1.085   .     S
C425   O467    1.221   .     D
C426   H442    1.085   .     S
C426   O468    1.221   .     D
C427   H444    1.111   .     S
C427   N463    1.446   .     S
C427   H446    1.110   .     S
C427   H445    1.111   .     S
C428   H451    1.111   .     S
C428   H450    1.110   .     S
C428   H449    1.111   .     S
C428   N464    1.447   .     S
C429   O469    1.221   .     D
C429   C434    1.479   .     S
C429   H452    1.076   .     S
C430   C435    1.477   .     S
C430   O470    1.221   .     D
C430   H453    1.076   .     S
C431   C433    1.410   .     A
C431   H457    1.081   .     S
C432   H458    1.082   .     S
C432   N461    1.364   .     A
C433   N462    1.364   .     A
C433   H459    1.081   .     S
C434   N461    1.378   .     A
C434   C436    1.410   .     A
C435   N462    1.378   .     A
C436   H460    1.082   .     S
H441   C185    1.085   1_565 S
H443   N463    1.032   .     S
H447   N464    1.032   .     S
N461   Zn480   2.013   .     S
N462   Zn479   2.013   .     S
O465   Zn479   1.980   .     S
O466   C264    1.221   1_655 S
O471   Zn480   1.980   .     S
O472   Zn480   1.974   .     S
O473   Zn479   1.974   .     S
O474   Zn479   1.987   .     S
O475   Zn480   1.987   .     S
O476   Zn480   1.979   .     S
O477   Zn479   1.979   .     S
C481   O545    1.295   .     A
C481   O552    1.290   .     A
C481   C494    1.454   .     S
C482   C515    1.410   .     A
C482   C484    1.400   .     A
C482   H518    1.082   .     S
C483   C503    1.414   .     A
C483   C516    1.400   .     A
C484   C511    1.414   .     A
C484   C3      1.516   1_556 S
C485   O554    1.274   .     A
C485   C487    1.402   .     S
C485   O556    1.281   .     A
C486   O557    1.282   .     A
C486   C488    1.405   .     S
C486   O555    1.275   .     A
C487   C648    1.351   1_455 S
C487   C662    1.501   1_455 S
C488   C567    1.351   .     S
C488   C584    1.502   .     S
C489   C505    1.486   .     S
C489   C500    1.407   .     A
C489   C491    1.393   .     A
C490   C506    1.486   .     S
C490   C501    1.408   .     A
C490   C493    1.394   .     A
C491   C494    1.404   .     A
C491   H517    1.082   .     S
C492   O553    1.287   .     A
C492   C495    1.441   .     S
C492   O551    1.292   .     A
C493   C495    1.401   .     A
C493   H528    1.084   .     S
C494   C496    1.409   .     A
C495   C497    1.403   .     A
C496   N543    1.422   .     S
C496   C498    1.386   .     A
C497   N544    1.423   .     S
C497   C499    1.385   .     A
C498   C500    1.396   .     A
C498   H534    1.085   .     S
C499   C501    1.399   .     A
C499   H535    1.085   .     S
C500   C741    1.449   1_545 S
C501   C740    1.449   .     S
C502   H519    1.082   .     S
C502   C567    1.501   .     S
C502   O638    1.222   .     S
C503   H536    1.081   .     S
C503   C512    1.410   .     A
C504   H520    1.085   .     S
C504   C648    1.502   1_455 S
C504   O706    1.221   1_455 S
C505   O547    1.221   .     D
C505   H761    1.085   1_545 S
C506   H522    1.085   .     S
C506   O548    1.221   .     D
C507   H524    1.111   .     S
C507   N543    1.446   .     S
C507   H526    1.110   .     S
C507   H525    1.111   .     S
C508   H531    1.111   .     S
C508   H530    1.110   .     S
C508   H529    1.111   .     S
C508   N544    1.447   .     S
C509   O549    1.221   .     D
C509   C514    1.479   .     S
C509   H532    1.076   .     S
C510   C515    1.477   .     S
C510   O550    1.221   .     D
C510   H533    1.076   .     S
C511   C513    1.410   .     A
C511   H537    1.081   .     S
C512   H538    1.082   .     S
C512   N541    1.364   .     A
C513   N542    1.364   .     A
C513   H539    1.081   .     S
C514   N541    1.378   .     A
C514   C516    1.410   .     A
C515   N542    1.378   .     A
C516   H540    1.082   .     S
H521   C745    1.085   .     S
H523   N543    1.032   .     S
H527   N544    1.032   .     S
N541   Zn560   2.013   .     S
N542   Zn559   2.013   .     S
O545   Zn559   1.980   .     S
O546   C584    1.221   .     S
O551   Zn560   1.980   .     S
O552   Zn560   1.974   .     S
O553   Zn559   1.974   .     S
O554   Zn559   1.987   .     S
O555   Zn560   1.987   .     S
O556   Zn560   1.979   .     S
O557   Zn559   1.979   .     S
O558   C662    1.222   1_455 S
C561   O625    1.295   .     A
C561   O632    1.290   .     A
C561   C574    1.454   .     S
C562   C595    1.410   .     A
C562   C564    1.400   .     A
C562   H598    1.082   .     S
C563   C583    1.414   .     A
C563   C596    1.400   .     A
C564   C591    1.414   .     A
C564   C83     1.516   1_556 S
C565   O634    1.274   .     A
C565   C567    1.402   .     S
C565   O636    1.281   .     A
C566   O637    1.282   .     A
C566   C568    1.405   .     S
C566   O635    1.275   .     A
C568   C647    1.351   .     S
C568   C664    1.502   .     S
C569   C585    1.486   .     S
C569   C580    1.407   .     A
C569   C571    1.393   .     A
C570   C586    1.486   .     S
C570   C581    1.408   .     A
C570   C573    1.394   .     A
C571   C574    1.404   .     A
C571   H597    1.082   .     S
C572   O633    1.287   .     A
C572   C575    1.441   .     S
C572   O631    1.292   .     A
C573   C575    1.401   .     A
C573   H608    1.084   .     S
C574   C576    1.409   .     A
C575   C577    1.403   .     A
C576   N623    1.422   .     S
C576   C578    1.386   .     A
C577   N624    1.423   .     S
C577   C579    1.385   .     A
C578   C580    1.396   .     A
C578   H614    1.085   .     S
C579   C581    1.399   .     A
C579   H615    1.085   .     S
C580   C821    1.449   1_545 S
C581   C820    1.449   .     S
C582   H599    1.082   .     S
C582   C647    1.501   .     S
C582   O718    1.222   .     S
C583   H616    1.081   .     S
C583   C592    1.410   .     A
C584   H600    1.085   .     S
C585   O627    1.221   .     D
C585   H841    1.085   1_545 S
C586   H602    1.085   .     S
C586   O628    1.221   .     D
C587   H604    1.111   .     S
C587   N623    1.446   .     S
C587   H606    1.110   .     S
C587   H605    1.111   .     S
C588   H611    1.111   .     S
C588   H610    1.110   .     S
C588   H609    1.111   .     S
C588   N624    1.447   .     S
C589   O629    1.221   .     D
C589   C594    1.479   .     S
C589   H612    1.076   .     S
C590   C595    1.477   .     S
C590   O630    1.221   .     D
C590   H613    1.076   .     S
C591   C593    1.410   .     A
C591   H617    1.081   .     S
C592   H618    1.082   .     S
C592   N621    1.364   .     A
C593   N622    1.364   .     A
C593   H619    1.081   .     S
C594   N621    1.378   .     A
C594   C596    1.410   .     A
C595   N622    1.378   .     A
C596   H620    1.082   .     S
H601   C825    1.085   .     S
H603   N623    1.032   .     S
H607   N624    1.032   .     S
N621   Zn640   2.013   .     S
N622   Zn639   2.013   .     S
O625   Zn639   1.980   .     S
O626   C664    1.221   .     S
O631   Zn640   1.980   .     S
O632   Zn640   1.974   .     S
O633   Zn639   1.974   .     S
O634   Zn639   1.987   .     S
O635   Zn640   1.987   .     S
O636   Zn640   1.979   .     S
O637   Zn639   1.979   .     S
C641   O705    1.295   .     A
C641   O712    1.290   .     A
C641   C654    1.454   .     S
C642   C675    1.410   .     A
C642   C644    1.400   .     A
C642   H678    1.082   .     S
C643   C663    1.414   .     A
C643   C676    1.400   .     A
C644   C671    1.414   .     A
C644   C163    1.516   1_556 S
C645   O714    1.274   .     A
C645   C647    1.402   .     S
C645   O716    1.281   .     A
C646   O717    1.282   .     A
C646   C648    1.405   .     S
C646   O715    1.275   .     A
C648   C487    1.351   1_655 S
C648   C504    1.502   1_655 S
C649   C665    1.486   .     S
C649   C660    1.407   .     A
C649   C651    1.393   .     A
C650   C666    1.486   .     S
C650   C661    1.408   .     A
C650   C653    1.394   .     A
C651   C654    1.404   .     A
C651   H677    1.082   .     S
C652   O713    1.287   .     A
C652   C655    1.441   .     S
C652   O711    1.292   .     A
C653   C655    1.401   .     A
C653   H688    1.084   .     S
C654   C656    1.409   .     A
C655   C657    1.403   .     A
C656   N703    1.422   .     S
C656   C658    1.386   .     A
C657   N704    1.423   .     S
C657   C659    1.385   .     A
C658   C660    1.396   .     A
C658   H694    1.085   .     S
C659   C661    1.399   .     A
C659   H695    1.085   .     S
C660   C901    1.449   1_545 S
C661   C900    1.449   .     S
C662   H679    1.082   .     S
C662   C487    1.501   1_655 S
C662   O558    1.222   1_655 S
C663   H696    1.081   .     S
C663   C672    1.410   .     A
C664   H680    1.085   .     S
C665   O707    1.221   .     D
C665   H921    1.085   1_545 S
C666   H682    1.085   .     S
C666   O708    1.221   .     D
C667   H684    1.111   .     S
C667   N703    1.446   .     S
C667   H686    1.110   .     S
C667   H685    1.111   .     S
C668   H691    1.111   .     S
C668   H690    1.110   .     S
C668   H689    1.111   .     S
C668   N704    1.447   .     S
C669   O709    1.221   .     D
C669   C674    1.479   .     S
C669   H692    1.076   .     S
C670   C675    1.477   .     S
C670   O710    1.221   .     D
C670   H693    1.076   .     S
C671   C673    1.410   .     A
C671   H697    1.081   .     S
C672   H698    1.082   .     S
C672   N701    1.364   .     A
C673   N702    1.364   .     A
C673   H699    1.081   .     S
C674   N701    1.378   .     A
C674   C676    1.410   .     A
C675   N702    1.378   .     A
C676   H700    1.082   .     S
H681   C905    1.085   .     S
H683   N703    1.032   .     S
H687   N704    1.032   .     S
N701   Zn720   2.013   .     S
N702   Zn719   2.013   .     S
O705   Zn719   1.980   .     S
O706   C504    1.221   1_655 S
O711   Zn720   1.980   .     S
O712   Zn720   1.974   .     S
O713   Zn719   1.974   .     S
O714   Zn719   1.987   .     S
O715   Zn720   1.987   .     S
O716   Zn720   1.979   .     S
O717   Zn719   1.979   .     S
C721   O785    1.295   .     A
C721   O792    1.290   .     A
C721   C734    1.454   .     S
C722   C755    1.410   .     A
C722   C724    1.400   .     A
C722   H758    1.082   .     S
C723   C743    1.414   .     A
C723   C756    1.400   .     A
C724   C751    1.414   .     A
C724   C243    1.516   1_556 S
C725   O794    1.274   .     A
C725   C727    1.402   .     S
C725   O796    1.281   .     A
C726   O797    1.282   .     A
C726   C728    1.405   .     S
C726   O795    1.275   .     A
C727   C888    1.351   1_455 S
C727   C902    1.501   1_455 S
C728   C807    1.351   .     S
C728   C824    1.502   .     S
C729   C745    1.486   .     S
C729   C740    1.407   .     A
C729   C731    1.393   .     A
C730   C746    1.486   .     S
C730   C741    1.408   .     A
C730   C733    1.394   .     A
C731   C734    1.404   .     A
C731   H757    1.082   .     S
C732   O793    1.287   .     A
C732   C735    1.441   .     S
C732   O791    1.292   .     A
C733   C735    1.401   .     A
C733   H768    1.084   .     S
C734   C736    1.409   .     A
C735   C737    1.403   .     A
C736   N783    1.422   .     S
C736   C738    1.386   .     A
C737   N784    1.423   .     S
C737   C739    1.385   .     A
C738   C740    1.396   .     A
C738   H774    1.085   .     S
C739   C741    1.399   .     A
C739   H775    1.085   .     S
C741   C500    1.449   1_565 S
C742   H759    1.082   .     S
C742   C807    1.501   .     S
C742   O878    1.222   .     S
C743   H776    1.081   .     S
C743   C752    1.410   .     A
C744   H760    1.085   .     S
C744   C888    1.502   1_455 S
C744   O946    1.221   1_455 S
C745   O787    1.221   .     D
C746   H762    1.085   .     S
C746   O788    1.221   .     D
C747   H764    1.111   .     S
C747   N783    1.446   .     S
C747   H766    1.110   .     S
C747   H765    1.111   .     S
C748   H771    1.111   .     S
C748   H770    1.110   .     S
C748   H769    1.111   .     S
C748   N784    1.447   .     S
C749   O789    1.221   .     D
C749   C754    1.479   .     S
C749   H772    1.076   .     S
C750   C755    1.477   .     S
C750   O790    1.221   .     D
C750   H773    1.076   .     S
C751   C753    1.410   .     A
C751   H777    1.081   .     S
C752   H778    1.082   .     S
C752   N781    1.364   .     A
C753   N782    1.364   .     A
C753   H779    1.081   .     S
C754   N781    1.378   .     A
C754   C756    1.410   .     A
C755   N782    1.378   .     A
C756   H780    1.082   .     S
H761   C505    1.085   1_565 S
H763   N783    1.032   .     S
H767   N784    1.032   .     S
N781   Zn800   2.013   .     S
N782   Zn799   2.013   .     S
O785   Zn799   1.980   .     S
O786   C824    1.221   .     S
O791   Zn800   1.980   .     S
O792   Zn800   1.974   .     S
O793   Zn799   1.974   .     S
O794   Zn799   1.987   .     S
O795   Zn800   1.987   .     S
O796   Zn800   1.979   .     S
O797   Zn799   1.979   .     S
O798   C902    1.222   1_455 S
C801   O865    1.295   .     A
C801   O872    1.290   .     A
C801   C814    1.454   .     S
C802   C835    1.410   .     A
C802   C804    1.400   .     A
C802   H838    1.082   .     S
C803   C823    1.414   .     A
C803   C836    1.400   .     A
C804   C831    1.414   .     A
C804   C323    1.516   1_556 S
C805   O874    1.274   .     A
C805   C807    1.402   .     S
C805   O876    1.281   .     A
C806   O877    1.282   .     A
C806   C808    1.405   .     S
C806   O875    1.275   .     A
C808   C887    1.351   .     S
C808   C904    1.502   .     S
C809   C825    1.486   .     S
C809   C820    1.407   .     A
C809   C811    1.393   .     A
C810   C826    1.486   .     S
C810   C821    1.408   .     A
C810   C813    1.394   .     A
C811   C814    1.404   .     A
C811   H837    1.082   .     S
C812   O873    1.287   .     A
C812   C815    1.441   .     S
C812   O871    1.292   .     A
C813   C815    1.401   .     A
C813   H848    1.084   .     S
C814   C816    1.409   .     A
C815   C817    1.403   .     A
C816   N863    1.422   .     S
C816   C818    1.386   .     A
C817   N864    1.423   .     S
C817   C819    1.385   .     A
C818   C820    1.396   .     A
C818   H854    1.085   .     S
C819   C821    1.399   .     A
C819   H855    1.085   .     S
C821   C580    1.449   1_565 S
C822   H839    1.082   .     S
C822   C887    1.501   .     S
C822   O958    1.222   .     S
C823   H856    1.081   .     S
C823   C832    1.410   .     A
C824   H840    1.085   .     S
C825   O867    1.221   .     D
C826   H842    1.085   .     S
C826   O868    1.221   .     D
C827   H844    1.111   .     S
C827   N863    1.446   .     S
C827   H846    1.110   .     S
C827   H845    1.111   .     S
C828   H851    1.111   .     S
C828   H850    1.110   .     S
C828   H849    1.111   .     S
C828   N864    1.447   .     S
C829   O869    1.221   .     D
C829   C834    1.479   .     S
C829   H852    1.076   .     S
C830   C835    1.477   .     S
C830   O870    1.221   .     D
C830   H853    1.076   .     S
C831   C833    1.410   .     A
C831   H857    1.081   .     S
C832   H858    1.082   .     S
C832   N861    1.364   .     A
C833   N862    1.364   .     A
C833   H859    1.081   .     S
C834   N861    1.378   .     A
C834   C836    1.410   .     A
C835   N862    1.378   .     A
C836   H860    1.082   .     S
H841   C585    1.085   1_565 S
H843   N863    1.032   .     S
H847   N864    1.032   .     S
N861   Zn880   2.013   .     S
N862   Zn879   2.013   .     S
O865   Zn879   1.980   .     S
O866   C904    1.221   .     S
O871   Zn880   1.980   .     S
O872   Zn880   1.974   .     S
O873   Zn879   1.974   .     S
O874   Zn879   1.987   .     S
O875   Zn880   1.987   .     S
O876   Zn880   1.979   .     S
O877   Zn879   1.979   .     S
C881   O945    1.295   .     A
C881   O952    1.290   .     A
C881   C894    1.454   .     S
C882   C915    1.410   .     A
C882   C884    1.400   .     A
C882   H918    1.082   .     S
C883   C903    1.414   .     A
C883   C916    1.400   .     A
C884   C911    1.414   .     A
C884   C403    1.516   1_556 S
C885   O954    1.274   .     A
C885   C887    1.402   .     S
C885   O956    1.281   .     A
C886   O957    1.282   .     A
C886   C888    1.405   .     S
C886   O955    1.275   .     A
C888   C727    1.351   1_655 S
C888   C744    1.502   1_655 S
C889   C905    1.486   .     S
C889   C900    1.407   .     A
C889   C891    1.393   .     A
C890   C906    1.486   .     S
C890   C901    1.408   .     A
C890   C893    1.394   .     A
C891   C894    1.404   .     A
C891   H917    1.082   .     S
C892   O953    1.287   .     A
C892   C895    1.441   .     S
C892   O951    1.292   .     A
C893   C895    1.401   .     A
C893   H928    1.084   .     S
C894   C896    1.409   .     A
C895   C897    1.403   .     A
C896   N943    1.422   .     S
C896   C898    1.386   .     A
C897   N944    1.423   .     S
C897   C899    1.385   .     A
C898   C900    1.396   .     A
C898   H934    1.085   .     S
C899   C901    1.399   .     A
C899   H935    1.085   .     S
C901   C660    1.449   1_565 S
C902   H919    1.082   .     S
C902   C727    1.501   1_655 S
C902   O798    1.222   1_655 S
C903   H936    1.081   .     S
C903   C912    1.410   .     A
C904   H920    1.085   .     S
C905   O947    1.221   .     D
C906   H922    1.085   .     S
C906   O948    1.221   .     D
C907   H924    1.111   .     S
C907   N943    1.446   .     S
C907   H926    1.110   .     S
C907   H925    1.111   .     S
C908   H931    1.111   .     S
C908   H930    1.110   .     S
C908   H929    1.111   .     S
C908   N944    1.447   .     S
C909   O949    1.221   .     D
C909   C914    1.479   .     S
C909   H932    1.076   .     S
C910   C915    1.477   .     S
C910   O950    1.221   .     D
C910   H933    1.076   .     S
C911   C913    1.410   .     A
C911   H937    1.081   .     S
C912   H938    1.082   .     S
C912   N941    1.364   .     A
C913   N942    1.364   .     A
C913   H939    1.081   .     S
C914   N941    1.378   .     A
C914   C916    1.410   .     A
C915   N942    1.378   .     A
C916   H940    1.082   .     S
H921   C665    1.085   1_565 S
H923   N943    1.032   .     S
H927   N944    1.032   .     S
N941   Zn960   2.013   .     S
N942   Zn959   2.013   .     S
O945   Zn959   1.980   .     S
O946   C744    1.221   1_655 S
O951   Zn960   1.980   .     S
O952   Zn960   1.974   .     S
O953   Zn959   1.974   .     S
O954   Zn959   1.987   .     S
O955   Zn960   1.987   .     S
O956   Zn960   1.979   .     S
O957   Zn959   1.979   .     S
