data_str_m3_o1_o18_pcu_sym.141
_audit_creation_date              2020-01-03
_audit_creation_method            'Materials Studio'
_symmetry_space_group_name_H-M    'P1'
_symmetry_Int_Tables_number       1
_symmetry_cell_setting            triclinic
loop_
_symmetry_equiv_pos_as_xyz
  x,y,z
_cell_length_a                    29.6018
_cell_length_b                    31.9595
_cell_length_c                    31.1200
_cell_angle_alpha                 90.6144
_cell_angle_beta                  67.2622
_cell_angle_gamma                 89.3886
loop_
_atom_site_label
_atom_site_type_symbol
_atom_site_fract_x
_atom_site_fract_y
_atom_site_fract_z
_atom_site_U_iso_or_equiv
_atom_site_adp_type
_atom_site_occupancy
C1     C     0.16640   0.24646   0.25022   0.00000  Uiso   1.00
C2     C     0.16695   0.08687   0.24974   0.00000  Uiso   1.00
C3     C     0.10952   0.15799   0.05290   0.00000  Uiso   1.00
C4     C     0.20975   0.20945   0.45664   0.00000  Uiso   1.00
C5     C     0.07514   0.15118   0.03329   0.00000  Uiso   1.00
C6     C     0.24322   0.21807   0.47687   0.00000  Uiso   1.00
C7     C     0.17106   0.31209   0.28784   0.00000  Uiso   1.00
C8     C     0.16232   0.02124   0.21212   0.00000  Uiso   1.00
C9     C     0.17167   0.02207   0.28751   0.00000  Uiso   1.00
C10    C     0.16163   0.31127   0.21247   0.00000  Uiso   1.00
C11    C     0.16732   0.04268   0.24965   0.00000  Uiso   1.00
C12    C     0.16604   0.29065   0.25031   0.00000  Uiso   1.00
C13    C     0.32053   0.13782   0.22401   0.00000  Uiso   1.00
C14    C     0.01270   0.19519   0.27642   0.00000  Uiso   1.00
C15    C     0.03511   0.13805   0.22389   0.00000  Uiso   1.00
C16    C     0.29822   0.19523   0.27620   0.00000  Uiso   1.00
C17    C     0.13577   0.16678   0.33817   0.00000  Uiso   1.00
C18    C     0.19744   0.16773   0.16200   0.00000  Uiso   1.00
C19    C     0.11556   0.16719   0.38937   0.00000  Uiso   1.00
C20    C     0.21658   0.17508   0.11181   0.00000  Uiso   1.00
C21    C     0.05340   0.15175   0.46496   0.00000  Uiso   1.00
C22    C     0.26819   0.21176   0.04303   0.00000  Uiso   1.00
C23    C     0.06719   0.15567   0.41699   0.00000  Uiso   1.00
C24    C     0.25805   0.19954   0.08869   0.00000  Uiso   1.00
C25    C     0.14744   0.17800   0.41086   0.00000  Uiso   1.00
C26    C     0.18671   0.16314   0.08876   0.00000  Uiso   1.00
C27    C     0.13367   0.17579   0.45906   0.00000  Uiso   1.00
C28    C     0.19249   0.17976   0.04563   0.00000  Uiso   1.00
C29    C     0.08690   0.15977   0.48610   0.00000  Uiso   1.00
C30    C     0.23525   0.20300   0.02140   0.00000  Uiso   1.00
C31    C     0.16691   0.18631   0.48019   0.00000  Uiso   1.00
C32    C     0.15641   0.17411   0.02653   0.00000  Uiso   1.00
H33    H     0.15775   0.14172   0.10633   0.00000  Uiso   1.00
H34    H     0.18444   0.18572   0.38884   0.00000  Uiso   1.00
H35    H     0.01668   0.14133   0.48543   0.00000  Uiso   1.00
H36    H     0.30069   0.22996   0.02546   0.00000  Uiso   1.00
H37    H     0.09778   0.15162   0.08956   0.00000  Uiso   1.00
H38    H     0.21683   0.22323   0.42316   0.00000  Uiso   1.00
H39    H     0.06226   0.11516   0.20320   0.00000  Uiso   1.00
H40    H     0.27101   0.21797   0.29713   0.00000  Uiso   1.00
N41    N     0.04759   0.16668   0.25001   0.00000  Uiso   1.00
N42    N     0.28574   0.16666   0.24999   0.00000  Uiso   1.00
O43    O     0.12846   0.22775   0.25001   0.00000  Uiso   1.00
O44    O     0.20488   0.10558   0.25000   0.00000  Uiso   1.00
O45    O     0.20490   0.22774   0.25000   0.00000  Uiso   1.00
O46    O     0.12843   0.10559   0.25000   0.00000  Uiso   1.00
O47    O     0.10661   0.16667   0.31613   0.00000  Uiso   1.00
O48    O     0.22672   0.16666   0.18388   0.00000  Uiso   1.00
O49    O     0.18305   0.16666   0.31612   0.00000  Uiso   1.00
O50    O     0.15028   0.16667   0.18388   0.00000  Uiso   1.00
Zn51   Zn    0.11562   0.16667   0.25000   0.00000  Uiso   1.00
Zn52   Zn    0.21771   0.16666   0.25000   0.00000  Uiso   1.00
C53    C     0.02925   0.13229   0.06159   0.00000  Uiso   1.00
N54    N     0.32586   0.11693   0.08376   0.00000  Uiso   1.00
C55    C     0.28513   0.24328   0.45134   0.00000  Uiso   1.00
N56    N     0.31866   0.26354   0.43123   0.00000  Uiso   1.00
C57    C     0.28920   0.21450   0.11145   0.00000  Uiso   1.00
N58    N     0.31418   0.22649   0.12965   0.00000  Uiso   1.00
C59    C     0.03156   0.14561   0.39740   0.00000  Uiso   1.00
N60    N     0.00289   0.13757   0.38186   0.00000  Uiso   1.00
C61    C     0.17434   0.28973   0.32701   0.00000  Uiso   1.00
N62    N     0.17697   0.27199   0.35821   0.00000  Uiso   1.00
C63    C     0.15909   0.04360   0.17293   0.00000  Uiso   1.00
N64    N     0.15651   0.06133   0.14172   0.00000  Uiso   1.00
C65    C     0.17523   0.04537   0.32648   0.00000  Uiso   1.00
N66    N     0.17803   0.06394   0.35747   0.00000  Uiso   1.00
C67    C     0.15776   0.28802   0.17362   0.00000  Uiso   1.00
N68    N     0.15464   0.26957   0.14270   0.00000  Uiso   1.00
C69    C     0.30848   0.10593   0.19751   0.00000  Uiso   1.00
N70    N     0.29894   0.07986   0.17645   0.00000  Uiso   1.00
C71    C     0.02433   0.22556   0.30477   0.00000  Uiso   1.00
N72    N     0.03369   0.25014   0.32749   0.00000  Uiso   1.00
C73    C     0.49973   0.24646   0.25022   0.00000  Uiso   1.00
C74    C     0.50028   0.08687   0.24974   0.00000  Uiso   1.00
C75    C     0.44286   0.15799   0.05290   0.00000  Uiso   1.00
C76    C     0.54308   0.20945   0.45664   0.00000  Uiso   1.00
C77    C     0.40847   0.15118   0.03329   0.00000  Uiso   1.00
C78    C     0.57655   0.21807   0.47687   0.00000  Uiso   1.00
C79    C     0.50440   0.31209   0.28784   0.00000  Uiso   1.00
C80    C     0.49566   0.02124   0.21212   0.00000  Uiso   1.00
C81    C     0.50501   0.02207   0.28751   0.00000  Uiso   1.00
C82    C     0.49496   0.31127   0.21247   0.00000  Uiso   1.00
C83    C     0.50065   0.04268   0.24965   0.00000  Uiso   1.00
C84    C     0.49938   0.29065   0.25031   0.00000  Uiso   1.00
C85    C     0.65386   0.13782   0.22401   0.00000  Uiso   1.00
C86    C     0.34603   0.19519   0.27642   0.00000  Uiso   1.00
C87    C     0.36845   0.13805   0.22389   0.00000  Uiso   1.00
C88    C     0.63155   0.19523   0.27620   0.00000  Uiso   1.00
C89    C     0.46910   0.16678   0.33817   0.00000  Uiso   1.00
C90    C     0.53077   0.16773   0.16200   0.00000  Uiso   1.00
C91    C     0.44889   0.16719   0.38937   0.00000  Uiso   1.00
C92    C     0.54991   0.17508   0.11181   0.00000  Uiso   1.00
C93    C     0.38674   0.15175   0.46496   0.00000  Uiso   1.00
C94    C     0.60152   0.21176   0.04303   0.00000  Uiso   1.00
C95    C     0.40052   0.15567   0.41699   0.00000  Uiso   1.00
C96    C     0.59138   0.19954   0.08869   0.00000  Uiso   1.00
C97    C     0.48077   0.17800   0.41086   0.00000  Uiso   1.00
C98    C     0.52005   0.16314   0.08876   0.00000  Uiso   1.00
C99    C     0.46700   0.17579   0.45906   0.00000  Uiso   1.00
C100   C     0.52582   0.17976   0.04563   0.00000  Uiso   1.00
C101   C     0.42023   0.15977   0.48610   0.00000  Uiso   1.00
C102   C     0.56858   0.20300   0.02140   0.00000  Uiso   1.00
C103   C     0.50025   0.18631   0.48019   0.00000  Uiso   1.00
C104   C     0.48975   0.17411   0.02653   0.00000  Uiso   1.00
H105   H     0.49109   0.14172   0.10633   0.00000  Uiso   1.00
H106   H     0.51778   0.18572   0.38884   0.00000  Uiso   1.00
H107   H     0.35002   0.14133   0.48543   0.00000  Uiso   1.00
H108   H     0.63402   0.22996   0.02546   0.00000  Uiso   1.00
H109   H     0.43112   0.15162   0.08956   0.00000  Uiso   1.00
H110   H     0.55016   0.22323   0.42316   0.00000  Uiso   1.00
H111   H     0.39559   0.11516   0.20320   0.00000  Uiso   1.00
H112   H     0.60434   0.21797   0.29713   0.00000  Uiso   1.00
N113   N     0.38093   0.16668   0.25001   0.00000  Uiso   1.00
N114   N     0.61907   0.16666   0.24999   0.00000  Uiso   1.00
O115   O     0.46179   0.22775   0.25001   0.00000  Uiso   1.00
O116   O     0.53821   0.10558   0.25000   0.00000  Uiso   1.00
O117   O     0.53823   0.22774   0.25000   0.00000  Uiso   1.00
O118   O     0.46177   0.10559   0.25000   0.00000  Uiso   1.00
O119   O     0.43994   0.16667   0.31613   0.00000  Uiso   1.00
O120   O     0.56006   0.16666   0.18388   0.00000  Uiso   1.00
O121   O     0.51639   0.16666   0.31612   0.00000  Uiso   1.00
O122   O     0.48361   0.16667   0.18388   0.00000  Uiso   1.00
Zn123  Zn    0.44896   0.16667   0.25000   0.00000  Uiso   1.00
Zn124  Zn    0.55104   0.16666   0.25000   0.00000  Uiso   1.00
C125   C     0.36258   0.13229   0.06159   0.00000  Uiso   1.00
N126   N     0.65919   0.11693   0.08376   0.00000  Uiso   1.00
C127   C     0.61846   0.24328   0.45134   0.00000  Uiso   1.00
N128   N     0.65199   0.26354   0.43123   0.00000  Uiso   1.00
C129   C     0.62254   0.21450   0.11145   0.00000  Uiso   1.00
N130   N     0.64752   0.22649   0.12965   0.00000  Uiso   1.00
C131   C     0.36489   0.14561   0.39740   0.00000  Uiso   1.00
N132   N     0.33622   0.13757   0.38186   0.00000  Uiso   1.00
C133   C     0.50768   0.28973   0.32701   0.00000  Uiso   1.00
N134   N     0.51030   0.27199   0.35821   0.00000  Uiso   1.00
C135   C     0.49242   0.04360   0.17293   0.00000  Uiso   1.00
N136   N     0.48984   0.06133   0.14172   0.00000  Uiso   1.00
C137   C     0.50856   0.04537   0.32648   0.00000  Uiso   1.00
N138   N     0.51137   0.06394   0.35747   0.00000  Uiso   1.00
C139   C     0.49109   0.28802   0.17362   0.00000  Uiso   1.00
N140   N     0.48798   0.26957   0.14270   0.00000  Uiso   1.00
C141   C     0.64181   0.10593   0.19751   0.00000  Uiso   1.00
N142   N     0.63227   0.07986   0.17645   0.00000  Uiso   1.00
C143   C     0.35766   0.22556   0.30477   0.00000  Uiso   1.00
N144   N     0.36703   0.25014   0.32749   0.00000  Uiso   1.00
C145   C     0.83307   0.24646   0.25022   0.00000  Uiso   1.00
C146   C     0.83362   0.08687   0.24974   0.00000  Uiso   1.00
C147   C     0.77619   0.15799   0.05290   0.00000  Uiso   1.00
C148   C     0.87642   0.20945   0.45664   0.00000  Uiso   1.00
C149   C     0.74180   0.15118   0.03329   0.00000  Uiso   1.00
C150   C     0.90989   0.21807   0.47687   0.00000  Uiso   1.00
C151   C     0.83773   0.31209   0.28784   0.00000  Uiso   1.00
C152   C     0.82899   0.02124   0.21212   0.00000  Uiso   1.00
C153   C     0.83834   0.02207   0.28751   0.00000  Uiso   1.00
C154   C     0.82830   0.31127   0.21247   0.00000  Uiso   1.00
C155   C     0.83399   0.04268   0.24965   0.00000  Uiso   1.00
C156   C     0.83271   0.29065   0.25031   0.00000  Uiso   1.00
C157   C     0.98719   0.13782   0.22401   0.00000  Uiso   1.00
C158   C     0.67937   0.19519   0.27642   0.00000  Uiso   1.00
C159   C     0.70178   0.13805   0.22389   0.00000  Uiso   1.00
C160   C     0.96489   0.19523   0.27620   0.00000  Uiso   1.00
C161   C     0.80244   0.16678   0.33817   0.00000  Uiso   1.00
C162   C     0.86411   0.16773   0.16200   0.00000  Uiso   1.00
C163   C     0.78223   0.16719   0.38937   0.00000  Uiso   1.00
C164   C     0.88325   0.17508   0.11181   0.00000  Uiso   1.00
C165   C     0.72007   0.15175   0.46496   0.00000  Uiso   1.00
C166   C     0.93486   0.21176   0.04303   0.00000  Uiso   1.00
C167   C     0.73386   0.15567   0.41699   0.00000  Uiso   1.00
C168   C     0.92471   0.19954   0.08869   0.00000  Uiso   1.00
C169   C     0.81410   0.17800   0.41086   0.00000  Uiso   1.00
C170   C     0.85338   0.16314   0.08876   0.00000  Uiso   1.00
C171   C     0.80034   0.17579   0.45906   0.00000  Uiso   1.00
C172   C     0.85915   0.17976   0.04563   0.00000  Uiso   1.00
C173   C     0.75356   0.15977   0.48610   0.00000  Uiso   1.00
C174   C     0.90191   0.20300   0.02140   0.00000  Uiso   1.00
C175   C     0.83358   0.18631   0.48019   0.00000  Uiso   1.00
C176   C     0.82308   0.17411   0.02653   0.00000  Uiso   1.00
H177   H     0.82442   0.14172   0.10633   0.00000  Uiso   1.00
H178   H     0.85111   0.18572   0.38884   0.00000  Uiso   1.00
H179   H     0.68335   0.14133   0.48543   0.00000  Uiso   1.00
H180   H     0.96735   0.22996   0.02546   0.00000  Uiso   1.00
H181   H     0.76445   0.15162   0.08956   0.00000  Uiso   1.00
H182   H     0.88350   0.22323   0.42316   0.00000  Uiso   1.00
H183   H     0.72893   0.11516   0.20320   0.00000  Uiso   1.00
H184   H     0.93767   0.21797   0.29713   0.00000  Uiso   1.00
N185   N     0.71426   0.16668   0.25001   0.00000  Uiso   1.00
N186   N     0.95241   0.16666   0.24999   0.00000  Uiso   1.00
O187   O     0.79512   0.22775   0.25001   0.00000  Uiso   1.00
O188   O     0.87154   0.10558   0.25000   0.00000  Uiso   1.00
O189   O     0.87157   0.22774   0.25000   0.00000  Uiso   1.00
O190   O     0.79510   0.10559   0.25000   0.00000  Uiso   1.00
O191   O     0.77328   0.16667   0.31613   0.00000  Uiso   1.00
O192   O     0.89339   0.16666   0.18388   0.00000  Uiso   1.00
O193   O     0.84972   0.16666   0.31612   0.00000  Uiso   1.00
O194   O     0.81695   0.16667   0.18388   0.00000  Uiso   1.00
Zn195  Zn    0.78229   0.16667   0.25000   0.00000  Uiso   1.00
Zn196  Zn    0.88438   0.16666   0.25000   0.00000  Uiso   1.00
C197   C     0.69591   0.13229   0.06159   0.00000  Uiso   1.00
N198   N     0.99252   0.11693   0.08376   0.00000  Uiso   1.00
C199   C     0.95180   0.24328   0.45134   0.00000  Uiso   1.00
N200   N     0.98532   0.26354   0.43123   0.00000  Uiso   1.00
C201   C     0.95587   0.21450   0.11145   0.00000  Uiso   1.00
N202   N     0.98085   0.22649   0.12965   0.00000  Uiso   1.00
C203   C     0.69822   0.14561   0.39740   0.00000  Uiso   1.00
N204   N     0.66955   0.13757   0.38186   0.00000  Uiso   1.00
C205   C     0.84101   0.28973   0.32701   0.00000  Uiso   1.00
N206   N     0.84363   0.27199   0.35821   0.00000  Uiso   1.00
C207   C     0.82576   0.04360   0.17293   0.00000  Uiso   1.00
N208   N     0.82318   0.06133   0.14172   0.00000  Uiso   1.00
C209   C     0.84190   0.04537   0.32648   0.00000  Uiso   1.00
N210   N     0.84470   0.06394   0.35747   0.00000  Uiso   1.00
C211   C     0.82442   0.28802   0.17362   0.00000  Uiso   1.00
N212   N     0.82131   0.26957   0.14270   0.00000  Uiso   1.00
C213   C     0.97514   0.10593   0.19751   0.00000  Uiso   1.00
N214   N     0.96561   0.07986   0.17645   0.00000  Uiso   1.00
C215   C     0.69100   0.22556   0.30477   0.00000  Uiso   1.00
N216   N     0.70036   0.25014   0.32749   0.00000  Uiso   1.00
C217   C     0.16640   0.57980   0.25022   0.00000  Uiso   1.00
C218   C     0.16695   0.42020   0.24974   0.00000  Uiso   1.00
C219   C     0.10952   0.49132   0.05290   0.00000  Uiso   1.00
C220   C     0.20975   0.54278   0.45664   0.00000  Uiso   1.00
C221   C     0.07514   0.48451   0.03329   0.00000  Uiso   1.00
C222   C     0.24322   0.55140   0.47687   0.00000  Uiso   1.00
C223   C     0.17106   0.64542   0.28784   0.00000  Uiso   1.00
C224   C     0.16232   0.35457   0.21212   0.00000  Uiso   1.00
C225   C     0.17167   0.35540   0.28751   0.00000  Uiso   1.00
C226   C     0.16163   0.64460   0.21247   0.00000  Uiso   1.00
C227   C     0.16732   0.37601   0.24965   0.00000  Uiso   1.00
C228   C     0.16604   0.62398   0.25031   0.00000  Uiso   1.00
C229   C     0.32053   0.47115   0.22401   0.00000  Uiso   1.00
C230   C     0.01270   0.52852   0.27642   0.00000  Uiso   1.00
C231   C     0.03511   0.47139   0.22389   0.00000  Uiso   1.00
C232   C     0.29822   0.52857   0.27620   0.00000  Uiso   1.00
C233   C     0.13577   0.50011   0.33817   0.00000  Uiso   1.00
C234   C     0.19744   0.50106   0.16200   0.00000  Uiso   1.00
C235   C     0.11556   0.50052   0.38937   0.00000  Uiso   1.00
C236   C     0.21658   0.50842   0.11181   0.00000  Uiso   1.00
C237   C     0.05340   0.48509   0.46496   0.00000  Uiso   1.00
C238   C     0.26819   0.54510   0.04303   0.00000  Uiso   1.00
C239   C     0.06719   0.48900   0.41699   0.00000  Uiso   1.00
C240   C     0.25805   0.53287   0.08869   0.00000  Uiso   1.00
C241   C     0.14744   0.51133   0.41086   0.00000  Uiso   1.00
C242   C     0.18671   0.49647   0.08876   0.00000  Uiso   1.00
C243   C     0.13367   0.50912   0.45906   0.00000  Uiso   1.00
C244   C     0.19249   0.51309   0.04563   0.00000  Uiso   1.00
C245   C     0.08690   0.49311   0.48610   0.00000  Uiso   1.00
C246   C     0.23525   0.53633   0.02140   0.00000  Uiso   1.00
C247   C     0.16691   0.51964   0.48019   0.00000  Uiso   1.00
C248   C     0.15641   0.50744   0.02653   0.00000  Uiso   1.00
H249   H     0.15775   0.47506   0.10633   0.00000  Uiso   1.00
H250   H     0.18444   0.51906   0.38884   0.00000  Uiso   1.00
H251   H     0.01668   0.47466   0.48543   0.00000  Uiso   1.00
H252   H     0.30069   0.56329   0.02546   0.00000  Uiso   1.00
H253   H     0.09778   0.48495   0.08956   0.00000  Uiso   1.00
H254   H     0.21683   0.55656   0.42316   0.00000  Uiso   1.00
H255   H     0.06226   0.44850   0.20320   0.00000  Uiso   1.00
H256   H     0.27101   0.55130   0.29713   0.00000  Uiso   1.00
N257   N     0.04759   0.50001   0.25001   0.00000  Uiso   1.00
N258   N     0.28574   0.49999   0.24999   0.00000  Uiso   1.00
O259   O     0.12846   0.56108   0.25001   0.00000  Uiso   1.00
O260   O     0.20488   0.43892   0.25000   0.00000  Uiso   1.00
O261   O     0.20490   0.56107   0.25000   0.00000  Uiso   1.00
O262   O     0.12843   0.43893   0.25000   0.00000  Uiso   1.00
O263   O     0.10661   0.50001   0.31613   0.00000  Uiso   1.00
O264   O     0.22672   0.49999   0.18388   0.00000  Uiso   1.00
O265   O     0.18305   0.50000   0.31612   0.00000  Uiso   1.00
O266   O     0.15028   0.50000   0.18388   0.00000  Uiso   1.00
Zn267  Zn    0.11562   0.50001   0.25000   0.00000  Uiso   1.00
Zn268  Zn    0.21771   0.49999   0.25000   0.00000  Uiso   1.00
C269   C     0.02925   0.46562   0.06159   0.00000  Uiso   1.00
N270   N     0.32586   0.45026   0.08376   0.00000  Uiso   1.00
C271   C     0.28513   0.57661   0.45134   0.00000  Uiso   1.00
N272   N     0.31866   0.59688   0.43123   0.00000  Uiso   1.00
C273   C     0.28920   0.54784   0.11145   0.00000  Uiso   1.00
N274   N     0.31418   0.55982   0.12965   0.00000  Uiso   1.00
C275   C     0.03156   0.47894   0.39740   0.00000  Uiso   1.00
N276   N     0.00289   0.47090   0.38186   0.00000  Uiso   1.00
C277   C     0.17434   0.62306   0.32701   0.00000  Uiso   1.00
N278   N     0.17697   0.60533   0.35821   0.00000  Uiso   1.00
C279   C     0.15909   0.37694   0.17293   0.00000  Uiso   1.00
N280   N     0.15651   0.39466   0.14172   0.00000  Uiso   1.00
C281   C     0.17523   0.37871   0.32648   0.00000  Uiso   1.00
N282   N     0.17803   0.39727   0.35747   0.00000  Uiso   1.00
C283   C     0.15776   0.62136   0.17362   0.00000  Uiso   1.00
N284   N     0.15464   0.60291   0.14270   0.00000  Uiso   1.00
C285   C     0.30848   0.43926   0.19751   0.00000  Uiso   1.00
N286   N     0.29894   0.41320   0.17645   0.00000  Uiso   1.00
C287   C     0.02433   0.55889   0.30477   0.00000  Uiso   1.00
N288   N     0.03369   0.58348   0.32749   0.00000  Uiso   1.00
C289   C     0.49973   0.57980   0.25022   0.00000  Uiso   1.00
C290   C     0.50028   0.42020   0.24974   0.00000  Uiso   1.00
C291   C     0.44286   0.49132   0.05290   0.00000  Uiso   1.00
C292   C     0.54308   0.54278   0.45664   0.00000  Uiso   1.00
C293   C     0.40847   0.48451   0.03329   0.00000  Uiso   1.00
C294   C     0.57655   0.55140   0.47687   0.00000  Uiso   1.00
C295   C     0.50440   0.64542   0.28784   0.00000  Uiso   1.00
C296   C     0.49566   0.35457   0.21212   0.00000  Uiso   1.00
C297   C     0.50501   0.35540   0.28751   0.00000  Uiso   1.00
C298   C     0.49496   0.64460   0.21247   0.00000  Uiso   1.00
C299   C     0.50065   0.37601   0.24965   0.00000  Uiso   1.00
C300   C     0.49938   0.62398   0.25031   0.00000  Uiso   1.00
C301   C     0.65386   0.47115   0.22401   0.00000  Uiso   1.00
C302   C     0.34603   0.52852   0.27642   0.00000  Uiso   1.00
C303   C     0.36845   0.47139   0.22389   0.00000  Uiso   1.00
C304   C     0.63155   0.52857   0.27620   0.00000  Uiso   1.00
C305   C     0.46910   0.50011   0.33817   0.00000  Uiso   1.00
C306   C     0.53077   0.50106   0.16200   0.00000  Uiso   1.00
C307   C     0.44889   0.50052   0.38937   0.00000  Uiso   1.00
C308   C     0.54991   0.50842   0.11181   0.00000  Uiso   1.00
C309   C     0.38674   0.48509   0.46496   0.00000  Uiso   1.00
C310   C     0.60152   0.54510   0.04303   0.00000  Uiso   1.00
C311   C     0.40052   0.48900   0.41699   0.00000  Uiso   1.00
C312   C     0.59138   0.53287   0.08869   0.00000  Uiso   1.00
C313   C     0.48077   0.51133   0.41086   0.00000  Uiso   1.00
C314   C     0.52005   0.49647   0.08876   0.00000  Uiso   1.00
C315   C     0.46700   0.50912   0.45906   0.00000  Uiso   1.00
C316   C     0.52582   0.51309   0.04563   0.00000  Uiso   1.00
C317   C     0.42023   0.49311   0.48610   0.00000  Uiso   1.00
C318   C     0.56858   0.53633   0.02140   0.00000  Uiso   1.00
C319   C     0.50025   0.51964   0.48019   0.00000  Uiso   1.00
C320   C     0.48975   0.50744   0.02653   0.00000  Uiso   1.00
H321   H     0.49109   0.47506   0.10633   0.00000  Uiso   1.00
H322   H     0.51778   0.51906   0.38884   0.00000  Uiso   1.00
H323   H     0.35002   0.47466   0.48543   0.00000  Uiso   1.00
H324   H     0.63402   0.56329   0.02546   0.00000  Uiso   1.00
H325   H     0.43112   0.48495   0.08956   0.00000  Uiso   1.00
H326   H     0.55016   0.55656   0.42316   0.00000  Uiso   1.00
H327   H     0.39559   0.44850   0.20320   0.00000  Uiso   1.00
H328   H     0.60434   0.55130   0.29713   0.00000  Uiso   1.00
N329   N     0.38093   0.50001   0.25001   0.00000  Uiso   1.00
N330   N     0.61907   0.49999   0.24999   0.00000  Uiso   1.00
O331   O     0.46179   0.56108   0.25001   0.00000  Uiso   1.00
O332   O     0.53821   0.43892   0.25000   0.00000  Uiso   1.00
O333   O     0.53823   0.56107   0.25000   0.00000  Uiso   1.00
O334   O     0.46177   0.43893   0.25000   0.00000  Uiso   1.00
O335   O     0.43994   0.50001   0.31613   0.00000  Uiso   1.00
O336   O     0.56006   0.49999   0.18388   0.00000  Uiso   1.00
O337   O     0.51639   0.50000   0.31612   0.00000  Uiso   1.00
O338   O     0.48361   0.50000   0.18388   0.00000  Uiso   1.00
Zn339  Zn    0.44896   0.50001   0.25000   0.00000  Uiso   1.00
Zn340  Zn    0.55104   0.49999   0.25000   0.00000  Uiso   1.00
C341   C     0.36258   0.46562   0.06159   0.00000  Uiso   1.00
N342   N     0.65919   0.45026   0.08376   0.00000  Uiso   1.00
C343   C     0.61846   0.57661   0.45134   0.00000  Uiso   1.00
N344   N     0.65199   0.59688   0.43123   0.00000  Uiso   1.00
C345   C     0.62254   0.54784   0.11145   0.00000  Uiso   1.00
N346   N     0.64752   0.55982   0.12965   0.00000  Uiso   1.00
C347   C     0.36489   0.47894   0.39740   0.00000  Uiso   1.00
N348   N     0.33622   0.47090   0.38186   0.00000  Uiso   1.00
C349   C     0.50768   0.62306   0.32701   0.00000  Uiso   1.00
N350   N     0.51030   0.60533   0.35821   0.00000  Uiso   1.00
C351   C     0.49242   0.37694   0.17293   0.00000  Uiso   1.00
N352   N     0.48984   0.39466   0.14172   0.00000  Uiso   1.00
C353   C     0.50856   0.37871   0.32648   0.00000  Uiso   1.00
N354   N     0.51137   0.39727   0.35747   0.00000  Uiso   1.00
C355   C     0.49109   0.62136   0.17362   0.00000  Uiso   1.00
N356   N     0.48798   0.60291   0.14270   0.00000  Uiso   1.00
C357   C     0.64181   0.43926   0.19751   0.00000  Uiso   1.00
N358   N     0.63227   0.41320   0.17645   0.00000  Uiso   1.00
C359   C     0.35766   0.55889   0.30477   0.00000  Uiso   1.00
N360   N     0.36703   0.58348   0.32749   0.00000  Uiso   1.00
C361   C     0.83307   0.57980   0.25022   0.00000  Uiso   1.00
C362   C     0.83362   0.42020   0.24974   0.00000  Uiso   1.00
C363   C     0.77619   0.49132   0.05290   0.00000  Uiso   1.00
C364   C     0.87642   0.54278   0.45664   0.00000  Uiso   1.00
C365   C     0.74180   0.48451   0.03329   0.00000  Uiso   1.00
C366   C     0.90989   0.55140   0.47687   0.00000  Uiso   1.00
C367   C     0.83773   0.64542   0.28784   0.00000  Uiso   1.00
C368   C     0.82899   0.35457   0.21212   0.00000  Uiso   1.00
C369   C     0.83834   0.35540   0.28751   0.00000  Uiso   1.00
C370   C     0.82830   0.64460   0.21247   0.00000  Uiso   1.00
C371   C     0.83399   0.37601   0.24965   0.00000  Uiso   1.00
C372   C     0.83271   0.62398   0.25031   0.00000  Uiso   1.00
C373   C     0.98719   0.47115   0.22401   0.00000  Uiso   1.00
C374   C     0.67937   0.52852   0.27642   0.00000  Uiso   1.00
C375   C     0.70178   0.47139   0.22389   0.00000  Uiso   1.00
C376   C     0.96489   0.52857   0.27620   0.00000  Uiso   1.00
C377   C     0.80244   0.50011   0.33817   0.00000  Uiso   1.00
C378   C     0.86411   0.50106   0.16200   0.00000  Uiso   1.00
C379   C     0.78223   0.50052   0.38937   0.00000  Uiso   1.00
C380   C     0.88325   0.50842   0.11181   0.00000  Uiso   1.00
C381   C     0.72007   0.48509   0.46496   0.00000  Uiso   1.00
C382   C     0.93486   0.54510   0.04303   0.00000  Uiso   1.00
C383   C     0.73386   0.48900   0.41699   0.00000  Uiso   1.00
C384   C     0.92471   0.53287   0.08869   0.00000  Uiso   1.00
C385   C     0.81410   0.51133   0.41086   0.00000  Uiso   1.00
C386   C     0.85338   0.49647   0.08876   0.00000  Uiso   1.00
C387   C     0.80034   0.50912   0.45906   0.00000  Uiso   1.00
C388   C     0.85915   0.51309   0.04563   0.00000  Uiso   1.00
C389   C     0.75356   0.49311   0.48610   0.00000  Uiso   1.00
C390   C     0.90191   0.53633   0.02140   0.00000  Uiso   1.00
C391   C     0.83358   0.51964   0.48019   0.00000  Uiso   1.00
C392   C     0.82308   0.50744   0.02653   0.00000  Uiso   1.00
H393   H     0.82442   0.47506   0.10633   0.00000  Uiso   1.00
H394   H     0.85111   0.51906   0.38884   0.00000  Uiso   1.00
H395   H     0.68335   0.47466   0.48543   0.00000  Uiso   1.00
H396   H     0.96735   0.56329   0.02546   0.00000  Uiso   1.00
H397   H     0.76445   0.48495   0.08956   0.00000  Uiso   1.00
H398   H     0.88350   0.55656   0.42316   0.00000  Uiso   1.00
H399   H     0.72893   0.44850   0.20320   0.00000  Uiso   1.00
H400   H     0.93767   0.55130   0.29713   0.00000  Uiso   1.00
N401   N     0.71426   0.50001   0.25001   0.00000  Uiso   1.00
N402   N     0.95241   0.49999   0.24999   0.00000  Uiso   1.00
O403   O     0.79512   0.56108   0.25001   0.00000  Uiso   1.00
O404   O     0.87154   0.43892   0.25000   0.00000  Uiso   1.00
O405   O     0.87157   0.56107   0.25000   0.00000  Uiso   1.00
O406   O     0.79510   0.43893   0.25000   0.00000  Uiso   1.00
O407   O     0.77328   0.50001   0.31613   0.00000  Uiso   1.00
O408   O     0.89339   0.49999   0.18388   0.00000  Uiso   1.00
O409   O     0.84972   0.50000   0.31612   0.00000  Uiso   1.00
O410   O     0.81695   0.50000   0.18388   0.00000  Uiso   1.00
Zn411  Zn    0.78229   0.50001   0.25000   0.00000  Uiso   1.00
Zn412  Zn    0.88438   0.49999   0.25000   0.00000  Uiso   1.00
C413   C     0.69591   0.46562   0.06159   0.00000  Uiso   1.00
N414   N     0.99252   0.45026   0.08376   0.00000  Uiso   1.00
C415   C     0.95180   0.57661   0.45134   0.00000  Uiso   1.00
N416   N     0.98532   0.59688   0.43123   0.00000  Uiso   1.00
C417   C     0.95587   0.54784   0.11145   0.00000  Uiso   1.00
N418   N     0.98085   0.55982   0.12965   0.00000  Uiso   1.00
C419   C     0.69822   0.47894   0.39740   0.00000  Uiso   1.00
N420   N     0.66955   0.47090   0.38186   0.00000  Uiso   1.00
C421   C     0.84101   0.62306   0.32701   0.00000  Uiso   1.00
N422   N     0.84363   0.60533   0.35821   0.00000  Uiso   1.00
C423   C     0.82576   0.37694   0.17293   0.00000  Uiso   1.00
N424   N     0.82318   0.39466   0.14172   0.00000  Uiso   1.00
C425   C     0.84190   0.37871   0.32648   0.00000  Uiso   1.00
N426   N     0.84470   0.39727   0.35747   0.00000  Uiso   1.00
C427   C     0.82442   0.62136   0.17362   0.00000  Uiso   1.00
N428   N     0.82131   0.60291   0.14270   0.00000  Uiso   1.00
C429   C     0.97514   0.43926   0.19751   0.00000  Uiso   1.00
N430   N     0.96561   0.41320   0.17645   0.00000  Uiso   1.00
C431   C     0.69100   0.55889   0.30477   0.00000  Uiso   1.00
N432   N     0.70036   0.58348   0.32749   0.00000  Uiso   1.00
C433   C     0.16640   0.91313   0.25022   0.00000  Uiso   1.00
C434   C     0.16695   0.75354   0.24974   0.00000  Uiso   1.00
C435   C     0.10952   0.82466   0.05290   0.00000  Uiso   1.00
C436   C     0.20975   0.87611   0.45664   0.00000  Uiso   1.00
C437   C     0.07514   0.81785   0.03329   0.00000  Uiso   1.00
C438   C     0.24322   0.88474   0.47687   0.00000  Uiso   1.00
C439   C     0.17106   0.97875   0.28784   0.00000  Uiso   1.00
C440   C     0.16232   0.68791   0.21212   0.00000  Uiso   1.00
C441   C     0.17167   0.68874   0.28751   0.00000  Uiso   1.00
C442   C     0.16163   0.97793   0.21247   0.00000  Uiso   1.00
C443   C     0.16732   0.70934   0.24965   0.00000  Uiso   1.00
C444   C     0.16604   0.95732   0.25031   0.00000  Uiso   1.00
C445   C     0.32053   0.80448   0.22401   0.00000  Uiso   1.00
C446   C     0.01270   0.86186   0.27642   0.00000  Uiso   1.00
C447   C     0.03511   0.80472   0.22389   0.00000  Uiso   1.00
C448   C     0.29822   0.86190   0.27620   0.00000  Uiso   1.00
C449   C     0.13577   0.83344   0.33817   0.00000  Uiso   1.00
C450   C     0.19744   0.83440   0.16200   0.00000  Uiso   1.00
C451   C     0.11556   0.83386   0.38937   0.00000  Uiso   1.00
C452   C     0.21658   0.84175   0.11181   0.00000  Uiso   1.00
C453   C     0.05340   0.81842   0.46496   0.00000  Uiso   1.00
C454   C     0.26819   0.87843   0.04303   0.00000  Uiso   1.00
C455   C     0.06719   0.82234   0.41699   0.00000  Uiso   1.00
C456   C     0.25805   0.86621   0.08869   0.00000  Uiso   1.00
C457   C     0.14744   0.84466   0.41086   0.00000  Uiso   1.00
C458   C     0.18671   0.82981   0.08876   0.00000  Uiso   1.00
C459   C     0.13367   0.84245   0.45906   0.00000  Uiso   1.00
C460   C     0.19249   0.84643   0.04563   0.00000  Uiso   1.00
C461   C     0.08690   0.82644   0.48610   0.00000  Uiso   1.00
C462   C     0.23525   0.86966   0.02140   0.00000  Uiso   1.00
C463   C     0.16691   0.85297   0.48019   0.00000  Uiso   1.00
C464   C     0.15641   0.84077   0.02653   0.00000  Uiso   1.00
H465   H     0.15775   0.80839   0.10633   0.00000  Uiso   1.00
H466   H     0.18444   0.85239   0.38884   0.00000  Uiso   1.00
H467   H     0.01668   0.80799   0.48543   0.00000  Uiso   1.00
H468   H     0.30069   0.89663   0.02546   0.00000  Uiso   1.00
H469   H     0.09778   0.81828   0.08956   0.00000  Uiso   1.00
H470   H     0.21683   0.88990   0.42316   0.00000  Uiso   1.00
H471   H     0.06226   0.78183   0.20320   0.00000  Uiso   1.00
H472   H     0.27101   0.88464   0.29713   0.00000  Uiso   1.00
N473   N     0.04759   0.83334   0.25001   0.00000  Uiso   1.00
N474   N     0.28574   0.83332   0.24999   0.00000  Uiso   1.00
O475   O     0.12846   0.89442   0.25001   0.00000  Uiso   1.00
O476   O     0.20488   0.77225   0.25000   0.00000  Uiso   1.00
O477   O     0.20490   0.89441   0.25000   0.00000  Uiso   1.00
O478   O     0.12843   0.77226   0.25000   0.00000  Uiso   1.00
O479   O     0.10661   0.83334   0.31613   0.00000  Uiso   1.00
O480   O     0.22672   0.83333   0.18388   0.00000  Uiso   1.00
O481   O     0.18305   0.83333   0.31612   0.00000  Uiso   1.00
O482   O     0.15028   0.83334   0.18388   0.00000  Uiso   1.00
Zn483  Zn    0.11562   0.83334   0.25000   0.00000  Uiso   1.00
Zn484  Zn    0.21771   0.83333   0.25000   0.00000  Uiso   1.00
C485   C     0.02925   0.79895   0.06159   0.00000  Uiso   1.00
N486   N     0.32586   0.78359   0.08376   0.00000  Uiso   1.00
C487   C     0.28513   0.90994   0.45134   0.00000  Uiso   1.00
N488   N     0.31866   0.93021   0.43123   0.00000  Uiso   1.00
C489   C     0.28920   0.88117   0.11145   0.00000  Uiso   1.00
N490   N     0.31418   0.89316   0.12965   0.00000  Uiso   1.00
C491   C     0.03156   0.81227   0.39740   0.00000  Uiso   1.00
N492   N     0.00289   0.80424   0.38186   0.00000  Uiso   1.00
C493   C     0.17434   0.95639   0.32701   0.00000  Uiso   1.00
N494   N     0.17697   0.93866   0.35821   0.00000  Uiso   1.00
C495   C     0.15909   0.71027   0.17293   0.00000  Uiso   1.00
N496   N     0.15651   0.72800   0.14172   0.00000  Uiso   1.00
C497   C     0.17523   0.71204   0.32648   0.00000  Uiso   1.00
N498   N     0.17803   0.73060   0.35747   0.00000  Uiso   1.00
C499   C     0.15776   0.95469   0.17362   0.00000  Uiso   1.00
N500   N     0.15464   0.93624   0.14270   0.00000  Uiso   1.00
C501   C     0.30848   0.77259   0.19751   0.00000  Uiso   1.00
N502   N     0.29894   0.74653   0.17645   0.00000  Uiso   1.00
C503   C     0.02433   0.89223   0.30477   0.00000  Uiso   1.00
N504   N     0.03369   0.91681   0.32749   0.00000  Uiso   1.00
C505   C     0.49973   0.91313   0.25022   0.00000  Uiso   1.00
C506   C     0.50028   0.75354   0.24974   0.00000  Uiso   1.00
C507   C     0.44286   0.82466   0.05290   0.00000  Uiso   1.00
C508   C     0.54308   0.87611   0.45664   0.00000  Uiso   1.00
C509   C     0.40847   0.81785   0.03329   0.00000  Uiso   1.00
C510   C     0.57655   0.88474   0.47687   0.00000  Uiso   1.00
C511   C     0.50440   0.97875   0.28784   0.00000  Uiso   1.00
C512   C     0.49566   0.68791   0.21212   0.00000  Uiso   1.00
C513   C     0.50501   0.68874   0.28751   0.00000  Uiso   1.00
C514   C     0.49496   0.97793   0.21247   0.00000  Uiso   1.00
C515   C     0.50065   0.70934   0.24965   0.00000  Uiso   1.00
C516   C     0.49938   0.95732   0.25031   0.00000  Uiso   1.00
C517   C     0.65386   0.80448   0.22401   0.00000  Uiso   1.00
C518   C     0.34603   0.86186   0.27642   0.00000  Uiso   1.00
C519   C     0.36845   0.80472   0.22389   0.00000  Uiso   1.00
C520   C     0.63155   0.86190   0.27620   0.00000  Uiso   1.00
C521   C     0.46910   0.83344   0.33817   0.00000  Uiso   1.00
C522   C     0.53077   0.83440   0.16200   0.00000  Uiso   1.00
C523   C     0.44889   0.83386   0.38937   0.00000  Uiso   1.00
C524   C     0.54991   0.84175   0.11181   0.00000  Uiso   1.00
C525   C     0.38674   0.81842   0.46496   0.00000  Uiso   1.00
C526   C     0.60152   0.87843   0.04303   0.00000  Uiso   1.00
C527   C     0.40052   0.82234   0.41699   0.00000  Uiso   1.00
C528   C     0.59138   0.86621   0.08869   0.00000  Uiso   1.00
C529   C     0.48077   0.84466   0.41086   0.00000  Uiso   1.00
C530   C     0.52005   0.82981   0.08876   0.00000  Uiso   1.00
C531   C     0.46700   0.84245   0.45906   0.00000  Uiso   1.00
C532   C     0.52582   0.84643   0.04563   0.00000  Uiso   1.00
C533   C     0.42023   0.82644   0.48610   0.00000  Uiso   1.00
C534   C     0.56858   0.86966   0.02140   0.00000  Uiso   1.00
C535   C     0.50025   0.85297   0.48019   0.00000  Uiso   1.00
C536   C     0.48975   0.84077   0.02653   0.00000  Uiso   1.00
H537   H     0.49109   0.80839   0.10633   0.00000  Uiso   1.00
H538   H     0.51778   0.85239   0.38884   0.00000  Uiso   1.00
H539   H     0.35002   0.80799   0.48543   0.00000  Uiso   1.00
H540   H     0.63402   0.89663   0.02546   0.00000  Uiso   1.00
H541   H     0.43112   0.81828   0.08956   0.00000  Uiso   1.00
H542   H     0.55016   0.88990   0.42316   0.00000  Uiso   1.00
H543   H     0.39559   0.78183   0.20320   0.00000  Uiso   1.00
H544   H     0.60434   0.88464   0.29713   0.00000  Uiso   1.00
N545   N     0.38093   0.83334   0.25001   0.00000  Uiso   1.00
N546   N     0.61907   0.83332   0.24999   0.00000  Uiso   1.00
O547   O     0.46179   0.89442   0.25001   0.00000  Uiso   1.00
O548   O     0.53821   0.77225   0.25000   0.00000  Uiso   1.00
O549   O     0.53823   0.89441   0.25000   0.00000  Uiso   1.00
O550   O     0.46177   0.77226   0.25000   0.00000  Uiso   1.00
O551   O     0.43994   0.83334   0.31613   0.00000  Uiso   1.00
O552   O     0.56006   0.83333   0.18388   0.00000  Uiso   1.00
O553   O     0.51639   0.83333   0.31612   0.00000  Uiso   1.00
O554   O     0.48361   0.83334   0.18388   0.00000  Uiso   1.00
Zn555  Zn    0.44896   0.83334   0.25000   0.00000  Uiso   1.00
Zn556  Zn    0.55104   0.83333   0.25000   0.00000  Uiso   1.00
C557   C     0.36258   0.79895   0.06159   0.00000  Uiso   1.00
N558   N     0.65919   0.78359   0.08376   0.00000  Uiso   1.00
C559   C     0.61846   0.90994   0.45134   0.00000  Uiso   1.00
N560   N     0.65199   0.93021   0.43123   0.00000  Uiso   1.00
C561   C     0.62254   0.88117   0.11145   0.00000  Uiso   1.00
N562   N     0.64752   0.89316   0.12965   0.00000  Uiso   1.00
C563   C     0.36489   0.81227   0.39740   0.00000  Uiso   1.00
N564   N     0.33622   0.80424   0.38186   0.00000  Uiso   1.00
C565   C     0.50768   0.95639   0.32701   0.00000  Uiso   1.00
N566   N     0.51030   0.93866   0.35821   0.00000  Uiso   1.00
C567   C     0.49242   0.71027   0.17293   0.00000  Uiso   1.00
N568   N     0.48984   0.72800   0.14172   0.00000  Uiso   1.00
C569   C     0.50856   0.71204   0.32648   0.00000  Uiso   1.00
N570   N     0.51137   0.73060   0.35747   0.00000  Uiso   1.00
C571   C     0.49109   0.95469   0.17362   0.00000  Uiso   1.00
N572   N     0.48798   0.93624   0.14270   0.00000  Uiso   1.00
C573   C     0.64181   0.77259   0.19751   0.00000  Uiso   1.00
N574   N     0.63227   0.74653   0.17645   0.00000  Uiso   1.00
C575   C     0.35766   0.89223   0.30477   0.00000  Uiso   1.00
N576   N     0.36703   0.91681   0.32749   0.00000  Uiso   1.00
C577   C     0.83307   0.91313   0.25022   0.00000  Uiso   1.00
C578   C     0.83362   0.75354   0.24974   0.00000  Uiso   1.00
C579   C     0.77619   0.82466   0.05290   0.00000  Uiso   1.00
C580   C     0.87642   0.87611   0.45664   0.00000  Uiso   1.00
C581   C     0.74180   0.81785   0.03329   0.00000  Uiso   1.00
C582   C     0.90989   0.88474   0.47687   0.00000  Uiso   1.00
C583   C     0.83773   0.97875   0.28784   0.00000  Uiso   1.00
C584   C     0.82899   0.68791   0.21212   0.00000  Uiso   1.00
C585   C     0.83834   0.68874   0.28751   0.00000  Uiso   1.00
C586   C     0.82830   0.97793   0.21247   0.00000  Uiso   1.00
C587   C     0.83399   0.70934   0.24965   0.00000  Uiso   1.00
C588   C     0.83271   0.95732   0.25031   0.00000  Uiso   1.00
C589   C     0.98719   0.80448   0.22401   0.00000  Uiso   1.00
C590   C     0.67937   0.86186   0.27642   0.00000  Uiso   1.00
C591   C     0.70178   0.80472   0.22389   0.00000  Uiso   1.00
C592   C     0.96489   0.86190   0.27620   0.00000  Uiso   1.00
C593   C     0.80244   0.83344   0.33817   0.00000  Uiso   1.00
C594   C     0.86411   0.83440   0.16200   0.00000  Uiso   1.00
C595   C     0.78223   0.83386   0.38937   0.00000  Uiso   1.00
C596   C     0.88325   0.84175   0.11181   0.00000  Uiso   1.00
C597   C     0.72007   0.81842   0.46496   0.00000  Uiso   1.00
C598   C     0.93486   0.87843   0.04303   0.00000  Uiso   1.00
C599   C     0.73386   0.82234   0.41699   0.00000  Uiso   1.00
C600   C     0.92471   0.86621   0.08869   0.00000  Uiso   1.00
C601   C     0.81410   0.84466   0.41086   0.00000  Uiso   1.00
C602   C     0.85338   0.82981   0.08876   0.00000  Uiso   1.00
C603   C     0.80034   0.84245   0.45906   0.00000  Uiso   1.00
C604   C     0.85915   0.84643   0.04563   0.00000  Uiso   1.00
C605   C     0.75356   0.82644   0.48610   0.00000  Uiso   1.00
C606   C     0.90191   0.86966   0.02140   0.00000  Uiso   1.00
C607   C     0.83358   0.85297   0.48019   0.00000  Uiso   1.00
C608   C     0.82308   0.84077   0.02653   0.00000  Uiso   1.00
H609   H     0.82442   0.80839   0.10633   0.00000  Uiso   1.00
H610   H     0.85111   0.85239   0.38884   0.00000  Uiso   1.00
H611   H     0.68335   0.80799   0.48543   0.00000  Uiso   1.00
H612   H     0.96735   0.89663   0.02546   0.00000  Uiso   1.00
H613   H     0.76445   0.81828   0.08956   0.00000  Uiso   1.00
H614   H     0.88350   0.88990   0.42316   0.00000  Uiso   1.00
H615   H     0.72893   0.78183   0.20320   0.00000  Uiso   1.00
H616   H     0.93767   0.88464   0.29713   0.00000  Uiso   1.00
N617   N     0.71426   0.83334   0.25001   0.00000  Uiso   1.00
N618   N     0.95241   0.83332   0.24999   0.00000  Uiso   1.00
O619   O     0.79512   0.89442   0.25001   0.00000  Uiso   1.00
O620   O     0.87154   0.77225   0.25000   0.00000  Uiso   1.00
O621   O     0.87157   0.89441   0.25000   0.00000  Uiso   1.00
O622   O     0.79510   0.77226   0.25000   0.00000  Uiso   1.00
O623   O     0.77328   0.83334   0.31613   0.00000  Uiso   1.00
O624   O     0.89339   0.83333   0.18388   0.00000  Uiso   1.00
O625   O     0.84972   0.83333   0.31612   0.00000  Uiso   1.00
O626   O     0.81695   0.83334   0.18388   0.00000  Uiso   1.00
Zn627  Zn    0.78229   0.83334   0.25000   0.00000  Uiso   1.00
Zn628  Zn    0.88438   0.83333   0.25000   0.00000  Uiso   1.00
C629   C     0.69591   0.79895   0.06159   0.00000  Uiso   1.00
N630   N     0.99252   0.78359   0.08376   0.00000  Uiso   1.00
C631   C     0.95180   0.90994   0.45134   0.00000  Uiso   1.00
N632   N     0.98532   0.93021   0.43123   0.00000  Uiso   1.00
C633   C     0.95587   0.88117   0.11145   0.00000  Uiso   1.00
N634   N     0.98085   0.89316   0.12965   0.00000  Uiso   1.00
C635   C     0.69822   0.81227   0.39740   0.00000  Uiso   1.00
N636   N     0.66955   0.80424   0.38186   0.00000  Uiso   1.00
C637   C     0.84101   0.95639   0.32701   0.00000  Uiso   1.00
N638   N     0.84363   0.93866   0.35821   0.00000  Uiso   1.00
C639   C     0.82576   0.71027   0.17293   0.00000  Uiso   1.00
N640   N     0.82318   0.72800   0.14172   0.00000  Uiso   1.00
C641   C     0.84190   0.71204   0.32648   0.00000  Uiso   1.00
N642   N     0.84470   0.73060   0.35747   0.00000  Uiso   1.00
C643   C     0.82442   0.95469   0.17362   0.00000  Uiso   1.00
N644   N     0.82131   0.93624   0.14270   0.00000  Uiso   1.00
C645   C     0.97514   0.77259   0.19751   0.00000  Uiso   1.00
N646   N     0.96561   0.74653   0.17645   0.00000  Uiso   1.00
C647   C     0.69100   0.89223   0.30477   0.00000  Uiso   1.00
N648   N     0.70036   0.91681   0.32749   0.00000  Uiso   1.00
C649   C     0.16640   0.24646   0.75022   0.00000  Uiso   1.00
C650   C     0.16695   0.08687   0.74974   0.00000  Uiso   1.00
C651   C     0.10952   0.15799   0.55290   0.00000  Uiso   1.00
C652   C     0.20975   0.20945   0.95664   0.00000  Uiso   1.00
C653   C     0.07514   0.15118   0.53329   0.00000  Uiso   1.00
C654   C     0.24322   0.21807   0.97687   0.00000  Uiso   1.00
C655   C     0.17106   0.31209   0.78784   0.00000  Uiso   1.00
C656   C     0.16232   0.02124   0.71212   0.00000  Uiso   1.00
C657   C     0.17167   0.02207   0.78751   0.00000  Uiso   1.00
C658   C     0.16163   0.31127   0.71247   0.00000  Uiso   1.00
C659   C     0.16732   0.04268   0.74965   0.00000  Uiso   1.00
C660   C     0.16604   0.29065   0.75031   0.00000  Uiso   1.00
C661   C     0.32053   0.13782   0.72401   0.00000  Uiso   1.00
C662   C     0.01270   0.19519   0.77642   0.00000  Uiso   1.00
C663   C     0.03511   0.13805   0.72389   0.00000  Uiso   1.00
C664   C     0.29822   0.19523   0.77620   0.00000  Uiso   1.00
C665   C     0.13577   0.16678   0.83817   0.00000  Uiso   1.00
C666   C     0.19744   0.16773   0.66200   0.00000  Uiso   1.00
C667   C     0.11556   0.16719   0.88937   0.00000  Uiso   1.00
C668   C     0.21658   0.17508   0.61181   0.00000  Uiso   1.00
C669   C     0.05340   0.15175   0.96496   0.00000  Uiso   1.00
C670   C     0.26819   0.21176   0.54303   0.00000  Uiso   1.00
C671   C     0.06719   0.15567   0.91699   0.00000  Uiso   1.00
C672   C     0.25805   0.19954   0.58869   0.00000  Uiso   1.00
C673   C     0.14744   0.17800   0.91086   0.00000  Uiso   1.00
C674   C     0.18671   0.16314   0.58876   0.00000  Uiso   1.00
C675   C     0.13367   0.17579   0.95906   0.00000  Uiso   1.00
C676   C     0.19249   0.17976   0.54563   0.00000  Uiso   1.00
C677   C     0.08690   0.15977   0.98610   0.00000  Uiso   1.00
C678   C     0.23525   0.20300   0.52140   0.00000  Uiso   1.00
C679   C     0.16691   0.18631   0.98019   0.00000  Uiso   1.00
C680   C     0.15641   0.17411   0.52653   0.00000  Uiso   1.00
H681   H     0.15775   0.14172   0.60633   0.00000  Uiso   1.00
H682   H     0.18444   0.18572   0.88884   0.00000  Uiso   1.00
H683   H     0.01668   0.14133   0.98543   0.00000  Uiso   1.00
H684   H     0.30069   0.22996   0.52546   0.00000  Uiso   1.00
H685   H     0.09778   0.15162   0.58956   0.00000  Uiso   1.00
H686   H     0.21683   0.22323   0.92316   0.00000  Uiso   1.00
H687   H     0.06226   0.11516   0.70320   0.00000  Uiso   1.00
H688   H     0.27101   0.21797   0.79713   0.00000  Uiso   1.00
N689   N     0.04759   0.16668   0.75001   0.00000  Uiso   1.00
N690   N     0.28574   0.16666   0.74999   0.00000  Uiso   1.00
O691   O     0.12846   0.22775   0.75001   0.00000  Uiso   1.00
O692   O     0.20488   0.10558   0.75000   0.00000  Uiso   1.00
O693   O     0.20490   0.22774   0.75000   0.00000  Uiso   1.00
O694   O     0.12843   0.10559   0.75000   0.00000  Uiso   1.00
O695   O     0.10661   0.16667   0.81613   0.00000  Uiso   1.00
O696   O     0.22672   0.16666   0.68388   0.00000  Uiso   1.00
O697   O     0.18305   0.16666   0.81612   0.00000  Uiso   1.00
O698   O     0.15028   0.16667   0.68388   0.00000  Uiso   1.00
Zn699  Zn    0.11562   0.16667   0.75000   0.00000  Uiso   1.00
Zn700  Zn    0.21771   0.16666   0.75000   0.00000  Uiso   1.00
C701   C     0.02925   0.13229   0.56159   0.00000  Uiso   1.00
N702   N     0.32586   0.11693   0.58376   0.00000  Uiso   1.00
C703   C     0.28513   0.24328   0.95134   0.00000  Uiso   1.00
N704   N     0.31866   0.26354   0.93123   0.00000  Uiso   1.00
C705   C     0.28920   0.21450   0.61145   0.00000  Uiso   1.00
N706   N     0.31418   0.22649   0.62965   0.00000  Uiso   1.00
C707   C     0.03156   0.14561   0.89740   0.00000  Uiso   1.00
N708   N     0.00289   0.13757   0.88186   0.00000  Uiso   1.00
C709   C     0.17434   0.28973   0.82701   0.00000  Uiso   1.00
N710   N     0.17697   0.27199   0.85821   0.00000  Uiso   1.00
C711   C     0.15909   0.04360   0.67293   0.00000  Uiso   1.00
N712   N     0.15651   0.06133   0.64172   0.00000  Uiso   1.00
C713   C     0.17523   0.04537   0.82648   0.00000  Uiso   1.00
N714   N     0.17803   0.06394   0.85747   0.00000  Uiso   1.00
C715   C     0.15776   0.28802   0.67362   0.00000  Uiso   1.00
N716   N     0.15464   0.26957   0.64270   0.00000  Uiso   1.00
C717   C     0.30848   0.10593   0.69751   0.00000  Uiso   1.00
N718   N     0.29894   0.07986   0.67645   0.00000  Uiso   1.00
C719   C     0.02433   0.22556   0.80477   0.00000  Uiso   1.00
N720   N     0.03369   0.25014   0.82749   0.00000  Uiso   1.00
C721   C     0.49973   0.24646   0.75022   0.00000  Uiso   1.00
C722   C     0.50028   0.08687   0.74974   0.00000  Uiso   1.00
C723   C     0.44286   0.15799   0.55290   0.00000  Uiso   1.00
C724   C     0.54308   0.20945   0.95664   0.00000  Uiso   1.00
C725   C     0.40847   0.15118   0.53329   0.00000  Uiso   1.00
C726   C     0.57655   0.21807   0.97687   0.00000  Uiso   1.00
C727   C     0.50440   0.31209   0.78784   0.00000  Uiso   1.00
C728   C     0.49566   0.02124   0.71212   0.00000  Uiso   1.00
C729   C     0.50501   0.02207   0.78751   0.00000  Uiso   1.00
C730   C     0.49496   0.31127   0.71247   0.00000  Uiso   1.00
C731   C     0.50065   0.04268   0.74965   0.00000  Uiso   1.00
C732   C     0.49938   0.29065   0.75031   0.00000  Uiso   1.00
C733   C     0.65386   0.13782   0.72401   0.00000  Uiso   1.00
C734   C     0.34603   0.19519   0.77642   0.00000  Uiso   1.00
C735   C     0.36845   0.13805   0.72389   0.00000  Uiso   1.00
C736   C     0.63155   0.19523   0.77620   0.00000  Uiso   1.00
C737   C     0.46910   0.16678   0.83817   0.00000  Uiso   1.00
C738   C     0.53077   0.16773   0.66200   0.00000  Uiso   1.00
C739   C     0.44889   0.16719   0.88937   0.00000  Uiso   1.00
C740   C     0.54991   0.17508   0.61181   0.00000  Uiso   1.00
C741   C     0.38674   0.15175   0.96496   0.00000  Uiso   1.00
C742   C     0.60152   0.21176   0.54303   0.00000  Uiso   1.00
C743   C     0.40052   0.15567   0.91699   0.00000  Uiso   1.00
C744   C     0.59138   0.19954   0.58869   0.00000  Uiso   1.00
C745   C     0.48077   0.17800   0.91086   0.00000  Uiso   1.00
C746   C     0.52005   0.16314   0.58876   0.00000  Uiso   1.00
C747   C     0.46700   0.17579   0.95906   0.00000  Uiso   1.00
C748   C     0.52582   0.17976   0.54563   0.00000  Uiso   1.00
C749   C     0.42023   0.15977   0.98610   0.00000  Uiso   1.00
C750   C     0.56858   0.20300   0.52140   0.00000  Uiso   1.00
C751   C     0.50025   0.18631   0.98019   0.00000  Uiso   1.00
C752   C     0.48975   0.17411   0.52653   0.00000  Uiso   1.00
H753   H     0.49109   0.14172   0.60633   0.00000  Uiso   1.00
H754   H     0.51778   0.18572   0.88884   0.00000  Uiso   1.00
H755   H     0.35002   0.14133   0.98543   0.00000  Uiso   1.00
H756   H     0.63402   0.22996   0.52546   0.00000  Uiso   1.00
H757   H     0.43112   0.15162   0.58956   0.00000  Uiso   1.00
H758   H     0.55016   0.22323   0.92316   0.00000  Uiso   1.00
H759   H     0.39559   0.11516   0.70320   0.00000  Uiso   1.00
H760   H     0.60434   0.21797   0.79713   0.00000  Uiso   1.00
N761   N     0.38093   0.16668   0.75001   0.00000  Uiso   1.00
N762   N     0.61907   0.16666   0.74999   0.00000  Uiso   1.00
O763   O     0.46179   0.22775   0.75001   0.00000  Uiso   1.00
O764   O     0.53821   0.10558   0.75000   0.00000  Uiso   1.00
O765   O     0.53823   0.22774   0.75000   0.00000  Uiso   1.00
O766   O     0.46177   0.10559   0.75000   0.00000  Uiso   1.00
O767   O     0.43994   0.16667   0.81613   0.00000  Uiso   1.00
O768   O     0.56006   0.16666   0.68388   0.00000  Uiso   1.00
O769   O     0.51639   0.16666   0.81612   0.00000  Uiso   1.00
O770   O     0.48361   0.16667   0.68388   0.00000  Uiso   1.00
Zn771  Zn    0.44896   0.16667   0.75000   0.00000  Uiso   1.00
Zn772  Zn    0.55104   0.16666   0.75000   0.00000  Uiso   1.00
C773   C     0.36258   0.13229   0.56159   0.00000  Uiso   1.00
N774   N     0.65919   0.11693   0.58376   0.00000  Uiso   1.00
C775   C     0.61846   0.24328   0.95134   0.00000  Uiso   1.00
N776   N     0.65199   0.26354   0.93123   0.00000  Uiso   1.00
C777   C     0.62254   0.21450   0.61145   0.00000  Uiso   1.00
N778   N     0.64752   0.22649   0.62965   0.00000  Uiso   1.00
C779   C     0.36489   0.14561   0.89740   0.00000  Uiso   1.00
N780   N     0.33622   0.13757   0.88186   0.00000  Uiso   1.00
C781   C     0.50768   0.28973   0.82701   0.00000  Uiso   1.00
N782   N     0.51030   0.27199   0.85821   0.00000  Uiso   1.00
C783   C     0.49242   0.04360   0.67293   0.00000  Uiso   1.00
N784   N     0.48984   0.06133   0.64172   0.00000  Uiso   1.00
C785   C     0.50856   0.04537   0.82648   0.00000  Uiso   1.00
N786   N     0.51137   0.06394   0.85747   0.00000  Uiso   1.00
C787   C     0.49109   0.28802   0.67362   0.00000  Uiso   1.00
N788   N     0.48798   0.26957   0.64270   0.00000  Uiso   1.00
C789   C     0.64181   0.10593   0.69751   0.00000  Uiso   1.00
N790   N     0.63227   0.07986   0.67645   0.00000  Uiso   1.00
C791   C     0.35766   0.22556   0.80477   0.00000  Uiso   1.00
N792   N     0.36703   0.25014   0.82749   0.00000  Uiso   1.00
C793   C     0.83307   0.24646   0.75022   0.00000  Uiso   1.00
C794   C     0.83362   0.08687   0.74974   0.00000  Uiso   1.00
C795   C     0.77619   0.15799   0.55290   0.00000  Uiso   1.00
C796   C     0.87642   0.20945   0.95664   0.00000  Uiso   1.00
C797   C     0.74180   0.15118   0.53329   0.00000  Uiso   1.00
C798   C     0.90989   0.21807   0.97687   0.00000  Uiso   1.00
C799   C     0.83773   0.31209   0.78784   0.00000  Uiso   1.00
C800   C     0.82899   0.02124   0.71212   0.00000  Uiso   1.00
C801   C     0.83834   0.02207   0.78751   0.00000  Uiso   1.00
C802   C     0.82830   0.31127   0.71247   0.00000  Uiso   1.00
C803   C     0.83399   0.04268   0.74965   0.00000  Uiso   1.00
C804   C     0.83271   0.29065   0.75031   0.00000  Uiso   1.00
C805   C     0.98719   0.13782   0.72401   0.00000  Uiso   1.00
C806   C     0.67937   0.19519   0.77642   0.00000  Uiso   1.00
C807   C     0.70178   0.13805   0.72389   0.00000  Uiso   1.00
C808   C     0.96489   0.19523   0.77620   0.00000  Uiso   1.00
C809   C     0.80244   0.16678   0.83817   0.00000  Uiso   1.00
C810   C     0.86411   0.16773   0.66200   0.00000  Uiso   1.00
C811   C     0.78223   0.16719   0.88937   0.00000  Uiso   1.00
C812   C     0.88325   0.17508   0.61181   0.00000  Uiso   1.00
C813   C     0.72007   0.15175   0.96496   0.00000  Uiso   1.00
C814   C     0.93486   0.21176   0.54303   0.00000  Uiso   1.00
C815   C     0.73386   0.15567   0.91699   0.00000  Uiso   1.00
C816   C     0.92471   0.19954   0.58869   0.00000  Uiso   1.00
C817   C     0.81410   0.17800   0.91086   0.00000  Uiso   1.00
C818   C     0.85338   0.16314   0.58876   0.00000  Uiso   1.00
C819   C     0.80034   0.17579   0.95906   0.00000  Uiso   1.00
C820   C     0.85915   0.17976   0.54563   0.00000  Uiso   1.00
C821   C     0.75356   0.15977   0.98610   0.00000  Uiso   1.00
C822   C     0.90191   0.20300   0.52140   0.00000  Uiso   1.00
C823   C     0.83358   0.18631   0.98019   0.00000  Uiso   1.00
C824   C     0.82308   0.17411   0.52653   0.00000  Uiso   1.00
H825   H     0.82442   0.14172   0.60633   0.00000  Uiso   1.00
H826   H     0.85111   0.18572   0.88884   0.00000  Uiso   1.00
H827   H     0.68335   0.14133   0.98543   0.00000  Uiso   1.00
H828   H     0.96735   0.22996   0.52546   0.00000  Uiso   1.00
H829   H     0.76445   0.15162   0.58956   0.00000  Uiso   1.00
H830   H     0.88350   0.22323   0.92316   0.00000  Uiso   1.00
H831   H     0.72893   0.11516   0.70320   0.00000  Uiso   1.00
H832   H     0.93767   0.21797   0.79713   0.00000  Uiso   1.00
N833   N     0.71426   0.16668   0.75001   0.00000  Uiso   1.00
N834   N     0.95241   0.16666   0.74999   0.00000  Uiso   1.00
O835   O     0.79512   0.22775   0.75001   0.00000  Uiso   1.00
O836   O     0.87154   0.10558   0.75000   0.00000  Uiso   1.00
O837   O     0.87157   0.22774   0.75000   0.00000  Uiso   1.00
O838   O     0.79510   0.10559   0.75000   0.00000  Uiso   1.00
O839   O     0.77328   0.16667   0.81613   0.00000  Uiso   1.00
O840   O     0.89339   0.16666   0.68388   0.00000  Uiso   1.00
O841   O     0.84972   0.16666   0.81612   0.00000  Uiso   1.00
O842   O     0.81695   0.16667   0.68388   0.00000  Uiso   1.00
Zn843  Zn    0.78229   0.16667   0.75000   0.00000  Uiso   1.00
Zn844  Zn    0.88438   0.16666   0.75000   0.00000  Uiso   1.00
C845   C     0.69591   0.13229   0.56159   0.00000  Uiso   1.00
N846   N     0.99252   0.11693   0.58376   0.00000  Uiso   1.00
C847   C     0.95180   0.24328   0.95134   0.00000  Uiso   1.00
N848   N     0.98532   0.26354   0.93123   0.00000  Uiso   1.00
C849   C     0.95587   0.21450   0.61145   0.00000  Uiso   1.00
N850   N     0.98085   0.22649   0.62965   0.00000  Uiso   1.00
C851   C     0.69822   0.14561   0.89740   0.00000  Uiso   1.00
N852   N     0.66955   0.13757   0.88186   0.00000  Uiso   1.00
C853   C     0.84101   0.28973   0.82701   0.00000  Uiso   1.00
N854   N     0.84363   0.27199   0.85821   0.00000  Uiso   1.00
C855   C     0.82576   0.04360   0.67293   0.00000  Uiso   1.00
N856   N     0.82318   0.06133   0.64172   0.00000  Uiso   1.00
C857   C     0.84190   0.04537   0.82648   0.00000  Uiso   1.00
N858   N     0.84470   0.06394   0.85747   0.00000  Uiso   1.00
C859   C     0.82442   0.28802   0.67362   0.00000  Uiso   1.00
N860   N     0.82131   0.26957   0.64270   0.00000  Uiso   1.00
C861   C     0.97514   0.10593   0.69751   0.00000  Uiso   1.00
N862   N     0.96561   0.07986   0.67645   0.00000  Uiso   1.00
C863   C     0.69100   0.22556   0.80477   0.00000  Uiso   1.00
N864   N     0.70036   0.25014   0.82749   0.00000  Uiso   1.00
C865   C     0.16640   0.57980   0.75022   0.00000  Uiso   1.00
C866   C     0.16695   0.42020   0.74974   0.00000  Uiso   1.00
C867   C     0.10952   0.49132   0.55290   0.00000  Uiso   1.00
C868   C     0.20975   0.54278   0.95664   0.00000  Uiso   1.00
C869   C     0.07514   0.48451   0.53329   0.00000  Uiso   1.00
C870   C     0.24322   0.55140   0.97687   0.00000  Uiso   1.00
C871   C     0.17106   0.64542   0.78784   0.00000  Uiso   1.00
C872   C     0.16232   0.35457   0.71212   0.00000  Uiso   1.00
C873   C     0.17167   0.35540   0.78751   0.00000  Uiso   1.00
C874   C     0.16163   0.64460   0.71247   0.00000  Uiso   1.00
C875   C     0.16732   0.37601   0.74965   0.00000  Uiso   1.00
C876   C     0.16604   0.62398   0.75031   0.00000  Uiso   1.00
C877   C     0.32053   0.47115   0.72401   0.00000  Uiso   1.00
C878   C     0.01270   0.52852   0.77642   0.00000  Uiso   1.00
C879   C     0.03511   0.47139   0.72389   0.00000  Uiso   1.00
C880   C     0.29822   0.52857   0.77620   0.00000  Uiso   1.00
C881   C     0.13577   0.50011   0.83817   0.00000  Uiso   1.00
C882   C     0.19744   0.50106   0.66200   0.00000  Uiso   1.00
C883   C     0.11556   0.50052   0.88937   0.00000  Uiso   1.00
C884   C     0.21658   0.50842   0.61181   0.00000  Uiso   1.00
C885   C     0.05340   0.48509   0.96496   0.00000  Uiso   1.00
C886   C     0.26819   0.54510   0.54303   0.00000  Uiso   1.00
C887   C     0.06719   0.48900   0.91699   0.00000  Uiso   1.00
C888   C     0.25805   0.53287   0.58869   0.00000  Uiso   1.00
C889   C     0.14744   0.51133   0.91086   0.00000  Uiso   1.00
C890   C     0.18671   0.49647   0.58876   0.00000  Uiso   1.00
C891   C     0.13367   0.50912   0.95906   0.00000  Uiso   1.00
C892   C     0.19249   0.51309   0.54563   0.00000  Uiso   1.00
C893   C     0.08690   0.49311   0.98610   0.00000  Uiso   1.00
C894   C     0.23525   0.53633   0.52140   0.00000  Uiso   1.00
C895   C     0.16691   0.51964   0.98019   0.00000  Uiso   1.00
C896   C     0.15641   0.50744   0.52653   0.00000  Uiso   1.00
H897   H     0.15775   0.47506   0.60633   0.00000  Uiso   1.00
H898   H     0.18444   0.51906   0.88884   0.00000  Uiso   1.00
H899   H     0.01668   0.47466   0.98543   0.00000  Uiso   1.00
H900   H     0.30069   0.56329   0.52546   0.00000  Uiso   1.00
H901   H     0.09778   0.48495   0.58956   0.00000  Uiso   1.00
H902   H     0.21683   0.55656   0.92316   0.00000  Uiso   1.00
H903   H     0.06226   0.44850   0.70320   0.00000  Uiso   1.00
H904   H     0.27101   0.55130   0.79713   0.00000  Uiso   1.00
N905   N     0.04759   0.50001   0.75001   0.00000  Uiso   1.00
N906   N     0.28574   0.49999   0.74999   0.00000  Uiso   1.00
O907   O     0.12846   0.56108   0.75001   0.00000  Uiso   1.00
O908   O     0.20488   0.43892   0.75000   0.00000  Uiso   1.00
O909   O     0.20490   0.56107   0.75000   0.00000  Uiso   1.00
O910   O     0.12843   0.43893   0.75000   0.00000  Uiso   1.00
O911   O     0.10661   0.50001   0.81613   0.00000  Uiso   1.00
O912   O     0.22672   0.49999   0.68388   0.00000  Uiso   1.00
O913   O     0.18305   0.50000   0.81612   0.00000  Uiso   1.00
O914   O     0.15028   0.50000   0.68388   0.00000  Uiso   1.00
Zn915  Zn    0.11562   0.50001   0.75000   0.00000  Uiso   1.00
Zn916  Zn    0.21771   0.49999   0.75000   0.00000  Uiso   1.00
C917   C     0.02925   0.46562   0.56159   0.00000  Uiso   1.00
N918   N     0.32586   0.45026   0.58376   0.00000  Uiso   1.00
C919   C     0.28513   0.57661   0.95134   0.00000  Uiso   1.00
N920   N     0.31866   0.59688   0.93123   0.00000  Uiso   1.00
C921   C     0.28920   0.54784   0.61145   0.00000  Uiso   1.00
N922   N     0.31418   0.55982   0.62965   0.00000  Uiso   1.00
C923   C     0.03156   0.47894   0.89740   0.00000  Uiso   1.00
N924   N     0.00289   0.47090   0.88186   0.00000  Uiso   1.00
C925   C     0.17434   0.62306   0.82701   0.00000  Uiso   1.00
N926   N     0.17697   0.60533   0.85821   0.00000  Uiso   1.00
C927   C     0.15909   0.37694   0.67293   0.00000  Uiso   1.00
N928   N     0.15651   0.39466   0.64172   0.00000  Uiso   1.00
C929   C     0.17523   0.37871   0.82648   0.00000  Uiso   1.00
N930   N     0.17803   0.39727   0.85747   0.00000  Uiso   1.00
C931   C     0.15776   0.62136   0.67362   0.00000  Uiso   1.00
N932   N     0.15464   0.60291   0.64270   0.00000  Uiso   1.00
C933   C     0.30848   0.43926   0.69751   0.00000  Uiso   1.00
N934   N     0.29894   0.41320   0.67645   0.00000  Uiso   1.00
C935   C     0.02433   0.55889   0.80477   0.00000  Uiso   1.00
N936   N     0.03369   0.58348   0.82749   0.00000  Uiso   1.00
C937   C     0.49973   0.57980   0.75022   0.00000  Uiso   1.00
C938   C     0.50028   0.42020   0.74974   0.00000  Uiso   1.00
C939   C     0.44286   0.49132   0.55290   0.00000  Uiso   1.00
C940   C     0.54308   0.54278   0.95664   0.00000  Uiso   1.00
C941   C     0.40847   0.48451   0.53329   0.00000  Uiso   1.00
C942   C     0.57655   0.55140   0.97687   0.00000  Uiso   1.00
C943   C     0.50440   0.64542   0.78784   0.00000  Uiso   1.00
C944   C     0.49566   0.35457   0.71212   0.00000  Uiso   1.00
C945   C     0.50501   0.35540   0.78751   0.00000  Uiso   1.00
C946   C     0.49496   0.64460   0.71247   0.00000  Uiso   1.00
C947   C     0.50065   0.37601   0.74965   0.00000  Uiso   1.00
C948   C     0.49938   0.62398   0.75031   0.00000  Uiso   1.00
C949   C     0.65386   0.47115   0.72401   0.00000  Uiso   1.00
C950   C     0.34603   0.52852   0.77642   0.00000  Uiso   1.00
C951   C     0.36845   0.47139   0.72389   0.00000  Uiso   1.00
C952   C     0.63155   0.52857   0.77620   0.00000  Uiso   1.00
C953   C     0.46910   0.50011   0.83817   0.00000  Uiso   1.00
C954   C     0.53077   0.50106   0.66200   0.00000  Uiso   1.00
C955   C     0.44889   0.50052   0.88937   0.00000  Uiso   1.00
C956   C     0.54991   0.50842   0.61181   0.00000  Uiso   1.00
C957   C     0.38674   0.48509   0.96496   0.00000  Uiso   1.00
C958   C     0.60152   0.54510   0.54303   0.00000  Uiso   1.00
C959   C     0.40052   0.48900   0.91699   0.00000  Uiso   1.00
C960   C     0.59138   0.53287   0.58869   0.00000  Uiso   1.00
C961   C     0.48077   0.51133   0.91086   0.00000  Uiso   1.00
C962   C     0.52005   0.49647   0.58876   0.00000  Uiso   1.00
C963   C     0.46700   0.50912   0.95906   0.00000  Uiso   1.00
C964   C     0.52582   0.51309   0.54563   0.00000  Uiso   1.00
C965   C     0.42023   0.49311   0.98610   0.00000  Uiso   1.00
C966   C     0.56858   0.53633   0.52140   0.00000  Uiso   1.00
C967   C     0.50025   0.51964   0.98019   0.00000  Uiso   1.00
C968   C     0.48975   0.50744   0.52653   0.00000  Uiso   1.00
H969   H     0.49109   0.47506   0.60633   0.00000  Uiso   1.00
H970   H     0.51778   0.51906   0.88884   0.00000  Uiso   1.00
H971   H     0.35002   0.47466   0.98543   0.00000  Uiso   1.00
H972   H     0.63402   0.56329   0.52546   0.00000  Uiso   1.00
H973   H     0.43112   0.48495   0.58956   0.00000  Uiso   1.00
H974   H     0.55016   0.55656   0.92316   0.00000  Uiso   1.00
H975   H     0.39559   0.44850   0.70320   0.00000  Uiso   1.00
H976   H     0.60434   0.55130   0.79713   0.00000  Uiso   1.00
N977   N     0.38093   0.50001   0.75001   0.00000  Uiso   1.00
N978   N     0.61907   0.49999   0.74999   0.00000  Uiso   1.00
O979   O     0.46179   0.56108   0.75001   0.00000  Uiso   1.00
O980   O     0.53821   0.43892   0.75000   0.00000  Uiso   1.00
O981   O     0.53823   0.56107   0.75000   0.00000  Uiso   1.00
O982   O     0.46177   0.43893   0.75000   0.00000  Uiso   1.00
O983   O     0.43994   0.50001   0.81613   0.00000  Uiso   1.00
O984   O     0.56006   0.49999   0.68388   0.00000  Uiso   1.00
O985   O     0.51639   0.50000   0.81612   0.00000  Uiso   1.00
O986   O     0.48361   0.50000   0.68388   0.00000  Uiso   1.00
Zn987  Zn    0.44896   0.50001   0.75000   0.00000  Uiso   1.00
Zn988  Zn    0.55104   0.49999   0.75000   0.00000  Uiso   1.00
C989   C     0.36258   0.46562   0.56159   0.00000  Uiso   1.00
N990   N     0.65919   0.45026   0.58376   0.00000  Uiso   1.00
C991   C     0.61846   0.57661   0.95134   0.00000  Uiso   1.00
N992   N     0.65199   0.59688   0.93123   0.00000  Uiso   1.00
C993   C     0.62254   0.54784   0.61145   0.00000  Uiso   1.00
N994   N     0.64752   0.55982   0.62965   0.00000  Uiso   1.00
C995   C     0.36489   0.47894   0.89740   0.00000  Uiso   1.00
N996   N     0.33622   0.47090   0.88186   0.00000  Uiso   1.00
C997   C     0.50768   0.62306   0.82701   0.00000  Uiso   1.00
N998   N     0.51030   0.60533   0.85821   0.00000  Uiso   1.00
C999   C     0.49242   0.37694   0.67293   0.00000  Uiso   1.00
N1000  N     0.48984   0.39466   0.64172   0.00000  Uiso   1.00
C1001  C     0.50856   0.37871   0.82648   0.00000  Uiso   1.00
N1002  N     0.51137   0.39727   0.85747   0.00000  Uiso   1.00
C1003  C     0.49109   0.62136   0.67362   0.00000  Uiso   1.00
N1004  N     0.48798   0.60291   0.64270   0.00000  Uiso   1.00
C1005  C     0.64181   0.43926   0.69751   0.00000  Uiso   1.00
N1006  N     0.63227   0.41320   0.67645   0.00000  Uiso   1.00
C1007  C     0.35766   0.55889   0.80477   0.00000  Uiso   1.00
N1008  N     0.36703   0.58348   0.82749   0.00000  Uiso   1.00
C1009  C     0.83307   0.57980   0.75022   0.00000  Uiso   1.00
C1010  C     0.83362   0.42020   0.74974   0.00000  Uiso   1.00
C1011  C     0.77619   0.49132   0.55290   0.00000  Uiso   1.00
C1012  C     0.87642   0.54278   0.95664   0.00000  Uiso   1.00
C1013  C     0.74180   0.48451   0.53329   0.00000  Uiso   1.00
C1014  C     0.90989   0.55140   0.97687   0.00000  Uiso   1.00
C1015  C     0.83773   0.64542   0.78784   0.00000  Uiso   1.00
C1016  C     0.82899   0.35457   0.71212   0.00000  Uiso   1.00
C1017  C     0.83834   0.35540   0.78751   0.00000  Uiso   1.00
C1018  C     0.82830   0.64460   0.71247   0.00000  Uiso   1.00
C1019  C     0.83399   0.37601   0.74965   0.00000  Uiso   1.00
C1020  C     0.83271   0.62398   0.75031   0.00000  Uiso   1.00
C1021  C     0.98719   0.47115   0.72401   0.00000  Uiso   1.00
C1022  C     0.67937   0.52852   0.77642   0.00000  Uiso   1.00
C1023  C     0.70178   0.47139   0.72389   0.00000  Uiso   1.00
C1024  C     0.96489   0.52857   0.77620   0.00000  Uiso   1.00
C1025  C     0.80244   0.50011   0.83817   0.00000  Uiso   1.00
C1026  C     0.86411   0.50106   0.66200   0.00000  Uiso   1.00
C1027  C     0.78223   0.50052   0.88937   0.00000  Uiso   1.00
C1028  C     0.88325   0.50842   0.61181   0.00000  Uiso   1.00
C1029  C     0.72007   0.48509   0.96496   0.00000  Uiso   1.00
C1030  C     0.93486   0.54510   0.54303   0.00000  Uiso   1.00
C1031  C     0.73386   0.48900   0.91699   0.00000  Uiso   1.00
C1032  C     0.92471   0.53287   0.58869   0.00000  Uiso   1.00
C1033  C     0.81410   0.51133   0.91086   0.00000  Uiso   1.00
C1034  C     0.85338   0.49647   0.58876   0.00000  Uiso   1.00
C1035  C     0.80034   0.50912   0.95906   0.00000  Uiso   1.00
C1036  C     0.85915   0.51309   0.54563   0.00000  Uiso   1.00
C1037  C     0.75356   0.49311   0.98610   0.00000  Uiso   1.00
C1038  C     0.90191   0.53633   0.52140   0.00000  Uiso   1.00
C1039  C     0.83358   0.51964   0.98019   0.00000  Uiso   1.00
C1040  C     0.82308   0.50744   0.52653   0.00000  Uiso   1.00
H1041  H     0.82442   0.47506   0.60633   0.00000  Uiso   1.00
H1042  H     0.85111   0.51906   0.88884   0.00000  Uiso   1.00
H1043  H     0.68335   0.47466   0.98543   0.00000  Uiso   1.00
H1044  H     0.96735   0.56329   0.52546   0.00000  Uiso   1.00
H1045  H     0.76445   0.48495   0.58956   0.00000  Uiso   1.00
H1046  H     0.88350   0.55656   0.92316   0.00000  Uiso   1.00
H1047  H     0.72893   0.44850   0.70320   0.00000  Uiso   1.00
H1048  H     0.93767   0.55130   0.79713   0.00000  Uiso   1.00
N1049  N     0.71426   0.50001   0.75001   0.00000  Uiso   1.00
N1050  N     0.95241   0.49999   0.74999   0.00000  Uiso   1.00
O1051  O     0.79512   0.56108   0.75001   0.00000  Uiso   1.00
O1052  O     0.87154   0.43892   0.75000   0.00000  Uiso   1.00
O1053  O     0.87157   0.56107   0.75000   0.00000  Uiso   1.00
O1054  O     0.79510   0.43893   0.75000   0.00000  Uiso   1.00
O1055  O     0.77328   0.50001   0.81613   0.00000  Uiso   1.00
O1056  O     0.89339   0.49999   0.68388   0.00000  Uiso   1.00
O1057  O     0.84972   0.50000   0.81612   0.00000  Uiso   1.00
O1058  O     0.81695   0.50000   0.68388   0.00000  Uiso   1.00
Zn1059 Zn    0.78229   0.50001   0.75000   0.00000  Uiso   1.00
Zn1060 Zn    0.88438   0.49999   0.75000   0.00000  Uiso   1.00
C1061  C     0.69591   0.46562   0.56159   0.00000  Uiso   1.00
N1062  N     0.99252   0.45026   0.58376   0.00000  Uiso   1.00
C1063  C     0.95180   0.57661   0.95134   0.00000  Uiso   1.00
N1064  N     0.98532   0.59688   0.93123   0.00000  Uiso   1.00
C1065  C     0.95587   0.54784   0.61145   0.00000  Uiso   1.00
N1066  N     0.98085   0.55982   0.62965   0.00000  Uiso   1.00
C1067  C     0.69822   0.47894   0.89740   0.00000  Uiso   1.00
N1068  N     0.66955   0.47090   0.88186   0.00000  Uiso   1.00
C1069  C     0.84101   0.62306   0.82701   0.00000  Uiso   1.00
N1070  N     0.84363   0.60533   0.85821   0.00000  Uiso   1.00
C1071  C     0.82576   0.37694   0.67293   0.00000  Uiso   1.00
N1072  N     0.82318   0.39466   0.64172   0.00000  Uiso   1.00
C1073  C     0.84190   0.37871   0.82648   0.00000  Uiso   1.00
N1074  N     0.84470   0.39727   0.85747   0.00000  Uiso   1.00
C1075  C     0.82442   0.62136   0.67362   0.00000  Uiso   1.00
N1076  N     0.82131   0.60291   0.64270   0.00000  Uiso   1.00
C1077  C     0.97514   0.43926   0.69751   0.00000  Uiso   1.00
N1078  N     0.96561   0.41320   0.67645   0.00000  Uiso   1.00
C1079  C     0.69100   0.55889   0.80477   0.00000  Uiso   1.00
N1080  N     0.70036   0.58348   0.82749   0.00000  Uiso   1.00
C1081  C     0.16640   0.91313   0.75022   0.00000  Uiso   1.00
C1082  C     0.16695   0.75354   0.74974   0.00000  Uiso   1.00
C1083  C     0.10952   0.82466   0.55290   0.00000  Uiso   1.00
C1084  C     0.20975   0.87611   0.95664   0.00000  Uiso   1.00
C1085  C     0.07514   0.81785   0.53329   0.00000  Uiso   1.00
C1086  C     0.24322   0.88474   0.97687   0.00000  Uiso   1.00
C1087  C     0.17106   0.97875   0.78784   0.00000  Uiso   1.00
C1088  C     0.16232   0.68791   0.71212   0.00000  Uiso   1.00
C1089  C     0.17167   0.68874   0.78751   0.00000  Uiso   1.00
C1090  C     0.16163   0.97793   0.71247   0.00000  Uiso   1.00
C1091  C     0.16732   0.70934   0.74965   0.00000  Uiso   1.00
C1092  C     0.16604   0.95732   0.75031   0.00000  Uiso   1.00
C1093  C     0.32053   0.80448   0.72401   0.00000  Uiso   1.00
C1094  C     0.01270   0.86186   0.77642   0.00000  Uiso   1.00
C1095  C     0.03511   0.80472   0.72389   0.00000  Uiso   1.00
C1096  C     0.29822   0.86190   0.77620   0.00000  Uiso   1.00
C1097  C     0.13577   0.83344   0.83817   0.00000  Uiso   1.00
C1098  C     0.19744   0.83440   0.66200   0.00000  Uiso   1.00
C1099  C     0.11556   0.83386   0.88937   0.00000  Uiso   1.00
C1100  C     0.21658   0.84175   0.61181   0.00000  Uiso   1.00
C1101  C     0.05340   0.81842   0.96496   0.00000  Uiso   1.00
C1102  C     0.26819   0.87843   0.54303   0.00000  Uiso   1.00
C1103  C     0.06719   0.82234   0.91699   0.00000  Uiso   1.00
C1104  C     0.25805   0.86621   0.58869   0.00000  Uiso   1.00
C1105  C     0.14744   0.84466   0.91086   0.00000  Uiso   1.00
C1106  C     0.18671   0.82981   0.58876   0.00000  Uiso   1.00
C1107  C     0.13367   0.84245   0.95906   0.00000  Uiso   1.00
C1108  C     0.19249   0.84643   0.54563   0.00000  Uiso   1.00
C1109  C     0.08690   0.82644   0.98610   0.00000  Uiso   1.00
C1110  C     0.23525   0.86966   0.52140   0.00000  Uiso   1.00
C1111  C     0.16691   0.85297   0.98019   0.00000  Uiso   1.00
C1112  C     0.15641   0.84077   0.52653   0.00000  Uiso   1.00
H1113  H     0.15775   0.80839   0.60633   0.00000  Uiso   1.00
H1114  H     0.18444   0.85239   0.88884   0.00000  Uiso   1.00
H1115  H     0.01668   0.80799   0.98543   0.00000  Uiso   1.00
H1116  H     0.30069   0.89663   0.52546   0.00000  Uiso   1.00
H1117  H     0.09778   0.81828   0.58956   0.00000  Uiso   1.00
H1118  H     0.21683   0.88990   0.92316   0.00000  Uiso   1.00
H1119  H     0.06226   0.78183   0.70320   0.00000  Uiso   1.00
H1120  H     0.27101   0.88464   0.79713   0.00000  Uiso   1.00
N1121  N     0.04759   0.83334   0.75001   0.00000  Uiso   1.00
N1122  N     0.28574   0.83332   0.74999   0.00000  Uiso   1.00
O1123  O     0.12846   0.89442   0.75001   0.00000  Uiso   1.00
O1124  O     0.20488   0.77225   0.75000   0.00000  Uiso   1.00
O1125  O     0.20490   0.89441   0.75000   0.00000  Uiso   1.00
O1126  O     0.12843   0.77226   0.75000   0.00000  Uiso   1.00
O1127  O     0.10661   0.83334   0.81613   0.00000  Uiso   1.00
O1128  O     0.22672   0.83333   0.68388   0.00000  Uiso   1.00
O1129  O     0.18305   0.83333   0.81612   0.00000  Uiso   1.00
O1130  O     0.15028   0.83334   0.68388   0.00000  Uiso   1.00
Zn1131 Zn    0.11562   0.83334   0.75000   0.00000  Uiso   1.00
Zn1132 Zn    0.21771   0.83333   0.75000   0.00000  Uiso   1.00
C1133  C     0.02925   0.79895   0.56159   0.00000  Uiso   1.00
N1134  N     0.32586   0.78359   0.58376   0.00000  Uiso   1.00
C1135  C     0.28513   0.90994   0.95134   0.00000  Uiso   1.00
N1136  N     0.31866   0.93021   0.93123   0.00000  Uiso   1.00
C1137  C     0.28920   0.88117   0.61145   0.00000  Uiso   1.00
N1138  N     0.31418   0.89316   0.62965   0.00000  Uiso   1.00
C1139  C     0.03156   0.81227   0.89740   0.00000  Uiso   1.00
N1140  N     0.00289   0.80424   0.88186   0.00000  Uiso   1.00
C1141  C     0.17434   0.95639   0.82701   0.00000  Uiso   1.00
N1142  N     0.17697   0.93866   0.85821   0.00000  Uiso   1.00
C1143  C     0.15909   0.71027   0.67293   0.00000  Uiso   1.00
N1144  N     0.15651   0.72800   0.64172   0.00000  Uiso   1.00
C1145  C     0.17523   0.71204   0.82648   0.00000  Uiso   1.00
N1146  N     0.17803   0.73060   0.85747   0.00000  Uiso   1.00
C1147  C     0.15776   0.95469   0.67362   0.00000  Uiso   1.00
N1148  N     0.15464   0.93624   0.64270   0.00000  Uiso   1.00
C1149  C     0.30848   0.77259   0.69751   0.00000  Uiso   1.00
N1150  N     0.29894   0.74653   0.67645   0.00000  Uiso   1.00
C1151  C     0.02433   0.89223   0.80477   0.00000  Uiso   1.00
N1152  N     0.03369   0.91681   0.82749   0.00000  Uiso   1.00
C1153  C     0.49973   0.91313   0.75022   0.00000  Uiso   1.00
C1154  C     0.50028   0.75354   0.74974   0.00000  Uiso   1.00
C1155  C     0.44286   0.82466   0.55290   0.00000  Uiso   1.00
C1156  C     0.54308   0.87611   0.95664   0.00000  Uiso   1.00
C1157  C     0.40847   0.81785   0.53329   0.00000  Uiso   1.00
C1158  C     0.57655   0.88474   0.97687   0.00000  Uiso   1.00
C1159  C     0.50440   0.97875   0.78784   0.00000  Uiso   1.00
C1160  C     0.49566   0.68791   0.71212   0.00000  Uiso   1.00
C1161  C     0.50501   0.68874   0.78751   0.00000  Uiso   1.00
C1162  C     0.49496   0.97793   0.71247   0.00000  Uiso   1.00
C1163  C     0.50065   0.70934   0.74965   0.00000  Uiso   1.00
C1164  C     0.49938   0.95732   0.75031   0.00000  Uiso   1.00
C1165  C     0.65386   0.80448   0.72401   0.00000  Uiso   1.00
C1166  C     0.34603   0.86186   0.77642   0.00000  Uiso   1.00
C1167  C     0.36845   0.80472   0.72389   0.00000  Uiso   1.00
C1168  C     0.63155   0.86190   0.77620   0.00000  Uiso   1.00
C1169  C     0.46910   0.83344   0.83817   0.00000  Uiso   1.00
C1170  C     0.53077   0.83440   0.66200   0.00000  Uiso   1.00
C1171  C     0.44889   0.83386   0.88937   0.00000  Uiso   1.00
C1172  C     0.54991   0.84175   0.61181   0.00000  Uiso   1.00
C1173  C     0.38674   0.81842   0.96496   0.00000  Uiso   1.00
C1174  C     0.60152   0.87843   0.54303   0.00000  Uiso   1.00
C1175  C     0.40052   0.82234   0.91699   0.00000  Uiso   1.00
C1176  C     0.59138   0.86621   0.58869   0.00000  Uiso   1.00
C1177  C     0.48077   0.84466   0.91086   0.00000  Uiso   1.00
C1178  C     0.52005   0.82981   0.58876   0.00000  Uiso   1.00
C1179  C     0.46700   0.84245   0.95906   0.00000  Uiso   1.00
C1180  C     0.52582   0.84643   0.54563   0.00000  Uiso   1.00
C1181  C     0.42023   0.82644   0.98610   0.00000  Uiso   1.00
C1182  C     0.56858   0.86966   0.52140   0.00000  Uiso   1.00
C1183  C     0.50025   0.85297   0.98019   0.00000  Uiso   1.00
C1184  C     0.48975   0.84077   0.52653   0.00000  Uiso   1.00
H1185  H     0.49109   0.80839   0.60633   0.00000  Uiso   1.00
H1186  H     0.51778   0.85239   0.88884   0.00000  Uiso   1.00
H1187  H     0.35002   0.80799   0.98543   0.00000  Uiso   1.00
H1188  H     0.63402   0.89663   0.52546   0.00000  Uiso   1.00
H1189  H     0.43112   0.81828   0.58956   0.00000  Uiso   1.00
H1190  H     0.55016   0.88990   0.92316   0.00000  Uiso   1.00
H1191  H     0.39559   0.78183   0.70320   0.00000  Uiso   1.00
H1192  H     0.60434   0.88464   0.79713   0.00000  Uiso   1.00
N1193  N     0.38093   0.83334   0.75001   0.00000  Uiso   1.00
N1194  N     0.61907   0.83332   0.74999   0.00000  Uiso   1.00
O1195  O     0.46179   0.89442   0.75001   0.00000  Uiso   1.00
O1196  O     0.53821   0.77225   0.75000   0.00000  Uiso   1.00
O1197  O     0.53823   0.89441   0.75000   0.00000  Uiso   1.00
O1198  O     0.46177   0.77226   0.75000   0.00000  Uiso   1.00
O1199  O     0.43994   0.83334   0.81613   0.00000  Uiso   1.00
O1200  O     0.56006   0.83333   0.68388   0.00000  Uiso   1.00
O1201  O     0.51639   0.83333   0.81612   0.00000  Uiso   1.00
O1202  O     0.48361   0.83334   0.68388   0.00000  Uiso   1.00
Zn1203 Zn    0.44896   0.83334   0.75000   0.00000  Uiso   1.00
Zn1204 Zn    0.55104   0.83333   0.75000   0.00000  Uiso   1.00
C1205  C     0.36258   0.79895   0.56159   0.00000  Uiso   1.00
N1206  N     0.65919   0.78359   0.58376   0.00000  Uiso   1.00
C1207  C     0.61846   0.90994   0.95134   0.00000  Uiso   1.00
N1208  N     0.65199   0.93021   0.93123   0.00000  Uiso   1.00
C1209  C     0.62254   0.88117   0.61145   0.00000  Uiso   1.00
N1210  N     0.64752   0.89316   0.62965   0.00000  Uiso   1.00
C1211  C     0.36489   0.81227   0.89740   0.00000  Uiso   1.00
N1212  N     0.33622   0.80424   0.88186   0.00000  Uiso   1.00
C1213  C     0.50768   0.95639   0.82701   0.00000  Uiso   1.00
N1214  N     0.51030   0.93866   0.85821   0.00000  Uiso   1.00
C1215  C     0.49242   0.71027   0.67293   0.00000  Uiso   1.00
N1216  N     0.48984   0.72800   0.64172   0.00000  Uiso   1.00
C1217  C     0.50856   0.71204   0.82648   0.00000  Uiso   1.00
N1218  N     0.51137   0.73060   0.85747   0.00000  Uiso   1.00
C1219  C     0.49109   0.95469   0.67362   0.00000  Uiso   1.00
N1220  N     0.48798   0.93624   0.64270   0.00000  Uiso   1.00
C1221  C     0.64181   0.77259   0.69751   0.00000  Uiso   1.00
N1222  N     0.63227   0.74653   0.67645   0.00000  Uiso   1.00
C1223  C     0.35766   0.89223   0.80477   0.00000  Uiso   1.00
N1224  N     0.36703   0.91681   0.82749   0.00000  Uiso   1.00
C1225  C     0.83307   0.91313   0.75022   0.00000  Uiso   1.00
C1226  C     0.83362   0.75354   0.74974   0.00000  Uiso   1.00
C1227  C     0.77619   0.82466   0.55290   0.00000  Uiso   1.00
C1228  C     0.87642   0.87611   0.95664   0.00000  Uiso   1.00
C1229  C     0.74180   0.81785   0.53329   0.00000  Uiso   1.00
C1230  C     0.90989   0.88474   0.97687   0.00000  Uiso   1.00
C1231  C     0.83773   0.97875   0.78784   0.00000  Uiso   1.00
C1232  C     0.82899   0.68791   0.71212   0.00000  Uiso   1.00
C1233  C     0.83834   0.68874   0.78751   0.00000  Uiso   1.00
C1234  C     0.82830   0.97793   0.71247   0.00000  Uiso   1.00
C1235  C     0.83399   0.70934   0.74965   0.00000  Uiso   1.00
C1236  C     0.83271   0.95732   0.75031   0.00000  Uiso   1.00
C1237  C     0.98719   0.80448   0.72401   0.00000  Uiso   1.00
C1238  C     0.67937   0.86186   0.77642   0.00000  Uiso   1.00
C1239  C     0.70178   0.80472   0.72389   0.00000  Uiso   1.00
C1240  C     0.96489   0.86190   0.77620   0.00000  Uiso   1.00
C1241  C     0.80244   0.83344   0.83817   0.00000  Uiso   1.00
C1242  C     0.86411   0.83440   0.66200   0.00000  Uiso   1.00
C1243  C     0.78223   0.83386   0.88937   0.00000  Uiso   1.00
C1244  C     0.88325   0.84175   0.61181   0.00000  Uiso   1.00
C1245  C     0.72007   0.81842   0.96496   0.00000  Uiso   1.00
C1246  C     0.93486   0.87843   0.54303   0.00000  Uiso   1.00
C1247  C     0.73386   0.82234   0.91699   0.00000  Uiso   1.00
C1248  C     0.92471   0.86621   0.58869   0.00000  Uiso   1.00
C1249  C     0.81410   0.84466   0.91086   0.00000  Uiso   1.00
C1250  C     0.85338   0.82981   0.58876   0.00000  Uiso   1.00
C1251  C     0.80034   0.84245   0.95906   0.00000  Uiso   1.00
C1252  C     0.85915   0.84643   0.54563   0.00000  Uiso   1.00
C1253  C     0.75356   0.82644   0.98610   0.00000  Uiso   1.00
C1254  C     0.90191   0.86966   0.52140   0.00000  Uiso   1.00
C1255  C     0.83358   0.85297   0.98019   0.00000  Uiso   1.00
C1256  C     0.82308   0.84077   0.52653   0.00000  Uiso   1.00
H1257  H     0.82442   0.80839   0.60633   0.00000  Uiso   1.00
H1258  H     0.85111   0.85239   0.88884   0.00000  Uiso   1.00
H1259  H     0.68335   0.80799   0.98543   0.00000  Uiso   1.00
H1260  H     0.96735   0.89663   0.52546   0.00000  Uiso   1.00
H1261  H     0.76445   0.81828   0.58956   0.00000  Uiso   1.00
H1262  H     0.88350   0.88990   0.92316   0.00000  Uiso   1.00
H1263  H     0.72893   0.78183   0.70320   0.00000  Uiso   1.00
H1264  H     0.93767   0.88464   0.79713   0.00000  Uiso   1.00
N1265  N     0.71426   0.83334   0.75001   0.00000  Uiso   1.00
N1266  N     0.95241   0.83332   0.74999   0.00000  Uiso   1.00
O1267  O     0.79512   0.89442   0.75001   0.00000  Uiso   1.00
O1268  O     0.87154   0.77225   0.75000   0.00000  Uiso   1.00
O1269  O     0.87157   0.89441   0.75000   0.00000  Uiso   1.00
O1270  O     0.79510   0.77226   0.75000   0.00000  Uiso   1.00
O1271  O     0.77328   0.83334   0.81613   0.00000  Uiso   1.00
O1272  O     0.89339   0.83333   0.68388   0.00000  Uiso   1.00
O1273  O     0.84972   0.83333   0.81612   0.00000  Uiso   1.00
O1274  O     0.81695   0.83334   0.68388   0.00000  Uiso   1.00
Zn1275 Zn    0.78229   0.83334   0.75000   0.00000  Uiso   1.00
Zn1276 Zn    0.88438   0.83333   0.75000   0.00000  Uiso   1.00
C1277  C     0.69591   0.79895   0.56159   0.00000  Uiso   1.00
N1278  N     0.99252   0.78359   0.58376   0.00000  Uiso   1.00
C1279  C     0.95180   0.90994   0.95134   0.00000  Uiso   1.00
N1280  N     0.98532   0.93021   0.93123   0.00000  Uiso   1.00
C1281  C     0.95587   0.88117   0.61145   0.00000  Uiso   1.00
N1282  N     0.98085   0.89316   0.62965   0.00000  Uiso   1.00
C1283  C     0.69822   0.81227   0.89740   0.00000  Uiso   1.00
N1284  N     0.66955   0.80424   0.88186   0.00000  Uiso   1.00
C1285  C     0.84101   0.95639   0.82701   0.00000  Uiso   1.00
N1286  N     0.84363   0.93866   0.85821   0.00000  Uiso   1.00
C1287  C     0.82576   0.71027   0.67293   0.00000  Uiso   1.00
N1288  N     0.82318   0.72800   0.64172   0.00000  Uiso   1.00
C1289  C     0.84190   0.71204   0.82648   0.00000  Uiso   1.00
N1290  N     0.84470   0.73060   0.85747   0.00000  Uiso   1.00
C1291  C     0.82442   0.95469   0.67362   0.00000  Uiso   1.00
N1292  N     0.82131   0.93624   0.64270   0.00000  Uiso   1.00
C1293  C     0.97514   0.77259   0.69751   0.00000  Uiso   1.00
N1294  N     0.96561   0.74653   0.67645   0.00000  Uiso   1.00
C1295  C     0.69100   0.89223   0.80477   0.00000  Uiso   1.00
N1296  N     0.70036   0.91681   0.82749   0.00000  Uiso   1.00
loop_
_geom_bond_atom_site_label_1
_geom_bond_atom_site_label_2
_geom_bond_distance
_geom_bond_site_symmetry_2
_ccdc_geom_bond_type
C1     O45     1.279   .     A
C1     C12     1.412   .     S
C1     O43     1.280   .     A
C2     O46     1.279   .     A
C2     C11     1.412   .     S
C2     O44     1.280   .     A
C3     C5      1.392   .     A
C3     C32     1.417   .     A
C3     H37     1.079   .     S
C4     C6      1.392   .     A
C4     C31     1.416   .     A
C4     H38     1.080   .     S
C5     C53     1.446   .     S
C5     C677    1.403   1_554 S
C6     C55     1.447   .     S
C6     C678    1.404   .     S
C7     C12     1.405   .     A
C7     C61     1.454   .     S
C7     C225    1.385   .     S
C8     C11     1.405   .     A
C8     C63     1.454   .     S
C8     C442    1.385   1_545 S
C9     C11     1.404   .     A
C9     C65     1.455   .     S
C9     C439    1.385   1_545 S
C10    C12     1.404   .     A
C10    C67     1.455   .     S
C10    C224    1.385   .     S
C13    C69     1.436   .     S
C13    N42     1.373   .     A
C13    C87     1.417   .     S
C14    C71     1.436   .     S
C14    N41     1.371   .     A
C14    C160    1.418   1_455 S
C15    H39     1.083   .     S
C15    N41     1.363   .     A
C15    C157    1.417   1_455 S
C16    H40     1.083   .     S
C16    N42     1.364   .     A
C16    C86     1.418   .     S
C17    C19     1.469   .     S
C17    O49     1.299   .     A
C17    O47     1.294   .     A
C18    O48     1.293   .     A
C18    C20     1.464   .     S
C18    O50     1.296   .     A
C19    C23     1.411   .     A
C19    C25     1.395   .     A
C20    C24     1.409   .     A
C20    C26     1.390   .     A
C21    H35     1.084   .     S
C21    C23     1.394   .     A
C21    C29     1.410   .     A
C22    H36     1.084   .     S
C22    C24     1.395   .     A
C22    C30     1.411   .     A
C23    C59     1.445   .     S
C24    C57     1.445   .     S
C25    H34     1.077   .     S
C25    C27     1.397   .     A
C26    C28     1.397   .     A
C26    H33     1.077   .     S
C27    C29     1.418   .     A
C27    C31     1.420   .     A
C28    C32     1.421   .     A
C28    C30     1.420   .     A
C29    C653    1.403   .     S
C30    C654    1.404   1_554 S
C31    C680    1.413   .     S
C32    C679    1.413   1_554 S
N41    Zn51    2.014   .     S
N42    Zn52    2.014   .     S
O43    Zn51    1.993   .     S
O44    Zn52    1.993   .     S
O45    Zn52    1.985   .     S
O46    Zn51    1.985   .     S
O47    Zn51    1.970   .     S
O48    Zn52    1.970   .     S
O49    Zn52    1.912   .     S
O50    Zn51    1.912   .     S
C53    N198    1.157   1_455 S
N54    C125    1.157   .     S
C55    N56     1.157   .     T
C57    N58     1.157   .     T
C59    N60     1.157   .     T
C61    N62     1.157   .     T
C63    N64     1.157   .     T
C65    N66     1.157   .     T
C67    N68     1.157   .     T
C69    N70     1.157   .     T
C71    N72     1.157   .     T
C73    O117    1.279   .     A
C73    C84     1.412   .     S
C73    O115    1.280   .     A
C74    O118    1.279   .     A
C74    C83     1.412   .     S
C74    O116    1.280   .     A
C75    C77     1.392   .     A
C75    C104    1.417   .     A
C75    H109    1.079   .     S
C76    C78     1.392   .     A
C76    C103    1.416   .     A
C76    H110    1.080   .     S
C77    C125    1.446   .     S
C77    C749    1.403   1_554 S
C78    C127    1.447   .     S
C78    C750    1.404   .     S
C79    C84     1.405   .     A
C79    C133    1.454   .     S
C79    C297    1.385   .     S
C80    C83     1.405   .     A
C80    C135    1.454   .     S
C80    C514    1.385   1_545 S
C81    C83     1.404   .     A
C81    C137    1.455   .     S
C81    C511    1.385   1_545 S
C82    C84     1.404   .     A
C82    C139    1.455   .     S
C82    C296    1.385   .     S
C85    C141    1.436   .     S
C85    N114    1.373   .     A
C85    C159    1.417   .     S
C86    C143    1.436   .     S
C86    N113    1.371   .     A
C87    H111    1.083   .     S
C87    N113    1.363   .     A
C88    H112    1.083   .     S
C88    N114    1.364   .     A
C88    C158    1.418   .     S
C89    C91     1.469   .     S
C89    O121    1.299   .     A
C89    O119    1.294   .     A
C90    O120    1.293   .     A
C90    C92     1.464   .     S
C90    O122    1.296   .     A
C91    C95     1.411   .     A
C91    C97     1.395   .     A
C92    C96     1.409   .     A
C92    C98     1.390   .     A
C93    H107    1.084   .     S
C93    C95     1.394   .     A
C93    C101    1.410   .     A
C94    H108    1.084   .     S
C94    C96     1.395   .     A
C94    C102    1.411   .     A
C95    C131    1.445   .     S
C96    C129    1.445   .     S
C97    H106    1.077   .     S
C97    C99     1.397   .     A
C98    C100    1.397   .     A
C98    H105    1.077   .     S
C99    C101    1.418   .     A
C99    C103    1.420   .     A
C100   C104    1.421   .     A
C100   C102    1.420   .     A
C101   C725    1.403   .     S
C102   C726    1.404   1_554 S
C103   C752    1.413   .     S
C104   C751    1.413   1_554 S
N113   Zn123   2.014   .     S
N114   Zn124   2.014   .     S
O115   Zn123   1.993   .     S
O116   Zn124   1.993   .     S
O117   Zn124   1.985   .     S
O118   Zn123   1.985   .     S
O119   Zn123   1.970   .     S
O120   Zn124   1.970   .     S
O121   Zn124   1.912   .     S
O122   Zn123   1.912   .     S
N126   C197    1.157   .     S
C127   N128    1.157   .     T
C129   N130    1.157   .     T
C131   N132    1.157   .     T
C133   N134    1.157   .     T
C135   N136    1.157   .     T
C137   N138    1.157   .     T
C139   N140    1.157   .     T
C141   N142    1.157   .     T
C143   N144    1.157   .     T
C145   O189    1.279   .     A
C145   C156    1.412   .     S
C145   O187    1.280   .     A
C146   O190    1.279   .     A
C146   C155    1.412   .     S
C146   O188    1.280   .     A
C147   C149    1.392   .     A
C147   C176    1.417   .     A
C147   H181    1.079   .     S
C148   C150    1.392   .     A
C148   C175    1.416   .     A
C148   H182    1.080   .     S
C149   C197    1.446   .     S
C149   C821    1.403   1_554 S
C150   C199    1.447   .     S
C150   C822    1.404   .     S
C151   C156    1.405   .     A
C151   C205    1.454   .     S
C151   C369    1.385   .     S
C152   C155    1.405   .     A
C152   C207    1.454   .     S
C152   C586    1.385   1_545 S
C153   C155    1.404   .     A
C153   C209    1.455   .     S
C153   C583    1.385   1_545 S
C154   C156    1.404   .     A
C154   C211    1.455   .     S
C154   C368    1.385   .     S
C157   C213    1.436   .     S
C157   N186    1.373   .     A
C157   C15     1.417   1_655 S
C158   C215    1.436   .     S
C158   N185    1.371   .     A
C159   H183    1.083   .     S
C159   N185    1.363   .     A
C160   H184    1.083   .     S
C160   N186    1.364   .     A
C160   C14     1.418   1_655 S
C161   C163    1.469   .     S
C161   O193    1.299   .     A
C161   O191    1.294   .     A
C162   O192    1.293   .     A
C162   C164    1.464   .     S
C162   O194    1.296   .     A
C163   C167    1.411   .     A
C163   C169    1.395   .     A
C164   C168    1.409   .     A
C164   C170    1.390   .     A
C165   H179    1.084   .     S
C165   C167    1.394   .     A
C165   C173    1.410   .     A
C166   H180    1.084   .     S
C166   C168    1.395   .     A
C166   C174    1.411   .     A
C167   C203    1.445   .     S
C168   C201    1.445   .     S
C169   H178    1.077   .     S
C169   C171    1.397   .     A
C170   C172    1.397   .     A
C170   H177    1.077   .     S
C171   C173    1.418   .     A
C171   C175    1.420   .     A
C172   C176    1.421   .     A
C172   C174    1.420   .     A
C173   C797    1.403   .     S
C174   C798    1.404   1_554 S
C175   C824    1.413   .     S
C176   C823    1.413   1_554 S
N185   Zn195   2.014   .     S
N186   Zn196   2.014   .     S
O187   Zn195   1.993   .     S
O188   Zn196   1.993   .     S
O189   Zn196   1.985   .     S
O190   Zn195   1.985   .     S
O191   Zn195   1.970   .     S
O192   Zn196   1.970   .     S
O193   Zn196   1.912   .     S
O194   Zn195   1.912   .     S
N198   C53     1.157   1_655 S
C199   N200    1.157   .     T
C201   N202    1.157   .     T
C203   N204    1.157   .     T
C205   N206    1.157   .     T
C207   N208    1.157   .     T
C209   N210    1.157   .     T
C211   N212    1.157   .     T
C213   N214    1.157   .     T
C215   N216    1.157   .     T
C217   O261    1.279   .     A
C217   C228    1.412   .     S
C217   O259    1.280   .     A
C218   O262    1.279   .     A
C218   C227    1.412   .     S
C218   O260    1.280   .     A
C219   C221    1.392   .     A
C219   C248    1.417   .     A
C219   H253    1.079   .     S
C220   C222    1.392   .     A
C220   C247    1.416   .     A
C220   H254    1.080   .     S
C221   C269    1.446   .     S
C221   C893    1.403   1_554 S
C222   C271    1.447   .     S
C222   C894    1.404   .     S
C223   C228    1.405   .     A
C223   C277    1.454   .     S
C223   C441    1.385   .     S
C224   C227    1.405   .     A
C224   C279    1.454   .     S
C225   C227    1.404   .     A
C225   C281    1.455   .     S
C226   C228    1.404   .     A
C226   C283    1.455   .     S
C226   C440    1.385   .     S
C229   C285    1.436   .     S
C229   N258    1.373   .     A
C229   C303    1.417   .     S
C230   C287    1.436   .     S
C230   N257    1.371   .     A
C230   C376    1.418   1_455 S
C231   H255    1.083   .     S
C231   N257    1.363   .     A
C231   C373    1.417   1_455 S
C232   H256    1.083   .     S
C232   N258    1.364   .     A
C232   C302    1.418   .     S
C233   C235    1.469   .     S
C233   O265    1.299   .     A
C233   O263    1.294   .     A
C234   O264    1.293   .     A
C234   C236    1.464   .     S
C234   O266    1.296   .     A
C235   C239    1.411   .     A
C235   C241    1.395   .     A
C236   C240    1.409   .     A
C236   C242    1.390   .     A
C237   H251    1.084   .     S
C237   C239    1.394   .     A
C237   C245    1.410   .     A
C238   H252    1.084   .     S
C238   C240    1.395   .     A
C238   C246    1.411   .     A
C239   C275    1.445   .     S
C240   C273    1.445   .     S
C241   H250    1.077   .     S
C241   C243    1.397   .     A
C242   C244    1.397   .     A
C242   H249    1.077   .     S
C243   C245    1.418   .     A
C243   C247    1.420   .     A
C244   C248    1.421   .     A
C244   C246    1.420   .     A
C245   C869    1.403   .     S
C246   C870    1.404   1_554 S
C247   C896    1.413   .     S
C248   C895    1.413   1_554 S
N257   Zn267   2.014   .     S
N258   Zn268   2.014   .     S
O259   Zn267   1.993   .     S
O260   Zn268   1.993   .     S
O261   Zn268   1.985   .     S
O262   Zn267   1.985   .     S
O263   Zn267   1.970   .     S
O264   Zn268   1.970   .     S
O265   Zn268   1.912   .     S
O266   Zn267   1.912   .     S
C269   N414    1.157   1_455 S
N270   C341    1.157   .     S
C271   N272    1.157   .     T
C273   N274    1.157   .     T
C275   N276    1.157   .     T
C277   N278    1.157   .     T
C279   N280    1.157   .     T
C281   N282    1.157   .     T
C283   N284    1.157   .     T
C285   N286    1.157   .     T
C287   N288    1.157   .     T
C289   O333    1.279   .     A
C289   C300    1.412   .     S
C289   O331    1.280   .     A
C290   O334    1.279   .     A
C290   C299    1.412   .     S
C290   O332    1.280   .     A
C291   C293    1.392   .     A
C291   C320    1.417   .     A
C291   H325    1.079   .     S
C292   C294    1.392   .     A
C292   C319    1.416   .     A
C292   H326    1.080   .     S
C293   C341    1.446   .     S
C293   C965    1.403   1_554 S
C294   C343    1.447   .     S
C294   C966    1.404   .     S
C295   C300    1.405   .     A
C295   C349    1.454   .     S
C295   C513    1.385   .     S
C296   C299    1.405   .     A
C296   C351    1.454   .     S
C297   C299    1.404   .     A
C297   C353    1.455   .     S
C298   C300    1.404   .     A
C298   C355    1.455   .     S
C298   C512    1.385   .     S
C301   C357    1.436   .     S
C301   N330    1.373   .     A
C301   C375    1.417   .     S
C302   C359    1.436   .     S
C302   N329    1.371   .     A
C303   H327    1.083   .     S
C303   N329    1.363   .     A
C304   H328    1.083   .     S
C304   N330    1.364   .     A
C304   C374    1.418   .     S
C305   C307    1.469   .     S
C305   O337    1.299   .     A
C305   O335    1.294   .     A
C306   O336    1.293   .     A
C306   C308    1.464   .     S
C306   O338    1.296   .     A
C307   C311    1.411   .     A
C307   C313    1.395   .     A
C308   C312    1.409   .     A
C308   C314    1.390   .     A
C309   H323    1.084   .     S
C309   C311    1.394   .     A
C309   C317    1.410   .     A
C310   H324    1.084   .     S
C310   C312    1.395   .     A
C310   C318    1.411   .     A
C311   C347    1.445   .     S
C312   C345    1.445   .     S
C313   H322    1.077   .     S
C313   C315    1.397   .     A
C314   C316    1.397   .     A
C314   H321    1.077   .     S
C315   C317    1.418   .     A
C315   C319    1.420   .     A
C316   C320    1.421   .     A
C316   C318    1.420   .     A
C317   C941    1.403   .     S
C318   C942    1.404   1_554 S
C319   C968    1.413   .     S
C320   C967    1.413   1_554 S
N329   Zn339   2.014   .     S
N330   Zn340   2.014   .     S
O331   Zn339   1.993   .     S
O332   Zn340   1.993   .     S
O333   Zn340   1.985   .     S
O334   Zn339   1.985   .     S
O335   Zn339   1.970   .     S
O336   Zn340   1.970   .     S
O337   Zn340   1.912   .     S
O338   Zn339   1.912   .     S
N342   C413    1.157   .     S
C343   N344    1.157   .     T
C345   N346    1.157   .     T
C347   N348    1.157   .     T
C349   N350    1.157   .     T
C351   N352    1.157   .     T
C353   N354    1.157   .     T
C355   N356    1.157   .     T
C357   N358    1.157   .     T
C359   N360    1.157   .     T
C361   O405    1.279   .     A
C361   C372    1.412   .     S
C361   O403    1.280   .     A
C362   O406    1.279   .     A
C362   C371    1.412   .     S
C362   O404    1.280   .     A
C363   C365    1.392   .     A
C363   C392    1.417   .     A
C363   H397    1.079   .     S
C364   C366    1.392   .     A
C364   C391    1.416   .     A
C364   H398    1.080   .     S
C365   C413    1.446   .     S
C365   C1037   1.403   1_554 S
C366   C415    1.447   .     S
C366   C1038   1.404   .     S
C367   C372    1.405   .     A
C367   C421    1.454   .     S
C367   C585    1.385   .     S
C368   C371    1.405   .     A
C368   C423    1.454   .     S
C369   C371    1.404   .     A
C369   C425    1.455   .     S
C370   C372    1.404   .     A
C370   C427    1.455   .     S
C370   C584    1.385   .     S
C373   C429    1.436   .     S
C373   N402    1.373   .     A
C373   C231    1.417   1_655 S
C374   C431    1.436   .     S
C374   N401    1.371   .     A
C375   H399    1.083   .     S
C375   N401    1.363   .     A
C376   H400    1.083   .     S
C376   N402    1.364   .     A
C376   C230    1.418   1_655 S
C377   C379    1.469   .     S
C377   O409    1.299   .     A
C377   O407    1.294   .     A
C378   O408    1.293   .     A
C378   C380    1.464   .     S
C378   O410    1.296   .     A
C379   C383    1.411   .     A
C379   C385    1.395   .     A
C380   C384    1.409   .     A
C380   C386    1.390   .     A
C381   H395    1.084   .     S
C381   C383    1.394   .     A
C381   C389    1.410   .     A
C382   H396    1.084   .     S
C382   C384    1.395   .     A
C382   C390    1.411   .     A
C383   C419    1.445   .     S
C384   C417    1.445   .     S
C385   H394    1.077   .     S
C385   C387    1.397   .     A
C386   C388    1.397   .     A
C386   H393    1.077   .     S
C387   C389    1.418   .     A
C387   C391    1.420   .     A
C388   C392    1.421   .     A
C388   C390    1.420   .     A
C389   C1013   1.403   .     S
C390   C1014   1.404   1_554 S
C391   C1040   1.413   .     S
C392   C1039   1.413   1_554 S
N401   Zn411   2.014   .     S
N402   Zn412   2.014   .     S
O403   Zn411   1.993   .     S
O404   Zn412   1.993   .     S
O405   Zn412   1.985   .     S
O406   Zn411   1.985   .     S
O407   Zn411   1.970   .     S
O408   Zn412   1.970   .     S
O409   Zn412   1.912   .     S
O410   Zn411   1.912   .     S
N414   C269    1.157   1_655 S
C415   N416    1.157   .     T
C417   N418    1.157   .     T
C419   N420    1.157   .     T
C421   N422    1.157   .     T
C423   N424    1.157   .     T
C425   N426    1.157   .     T
C427   N428    1.157   .     T
C429   N430    1.157   .     T
C431   N432    1.157   .     T
C433   O477    1.279   .     A
C433   C444    1.412   .     S
C433   O475    1.280   .     A
C434   O478    1.279   .     A
C434   C443    1.412   .     S
C434   O476    1.280   .     A
C435   C437    1.392   .     A
C435   C464    1.417   .     A
C435   H469    1.079   .     S
C436   C438    1.392   .     A
C436   C463    1.416   .     A
C436   H470    1.080   .     S
C437   C485    1.446   .     S
C437   C1109   1.403   1_554 S
C438   C487    1.447   .     S
C438   C1110   1.404   .     S
C439   C444    1.405   .     A
C439   C493    1.454   .     S
C439   C9      1.385   1_565 S
C440   C443    1.405   .     A
C440   C495    1.454   .     S
C441   C443    1.404   .     A
C441   C497    1.455   .     S
C442   C444    1.404   .     A
C442   C499    1.455   .     S
C442   C8      1.385   1_565 S
C445   C501    1.436   .     S
C445   N474    1.373   .     A
C445   C519    1.417   .     S
C446   C503    1.436   .     S
C446   N473    1.371   .     A
C446   C592    1.418   1_455 S
C447   H471    1.083   .     S
C447   N473    1.363   .     A
C447   C589    1.417   1_455 S
C448   H472    1.083   .     S
C448   N474    1.364   .     A
C448   C518    1.418   .     S
C449   C451    1.469   .     S
C449   O481    1.299   .     A
C449   O479    1.294   .     A
C450   O480    1.293   .     A
C450   C452    1.464   .     S
C450   O482    1.296   .     A
C451   C455    1.411   .     A
C451   C457    1.395   .     A
C452   C456    1.409   .     A
C452   C458    1.390   .     A
C453   H467    1.084   .     S
C453   C455    1.394   .     A
C453   C461    1.410   .     A
C454   H468    1.084   .     S
C454   C456    1.395   .     A
C454   C462    1.411   .     A
C455   C491    1.445   .     S
C456   C489    1.445   .     S
C457   H466    1.077   .     S
C457   C459    1.397   .     A
C458   C460    1.397   .     A
C458   H465    1.077   .     S
C459   C461    1.418   .     A
C459   C463    1.420   .     A
C460   C464    1.421   .     A
C460   C462    1.420   .     A
C461   C1085   1.403   .     S
C462   C1086   1.404   1_554 S
C463   C1112   1.413   .     S
C464   C1111   1.413   1_554 S
N473   Zn483   2.014   .     S
N474   Zn484   2.014   .     S
O475   Zn483   1.993   .     S
O476   Zn484   1.993   .     S
O477   Zn484   1.985   .     S
O478   Zn483   1.985   .     S
O479   Zn483   1.970   .     S
O480   Zn484   1.970   .     S
O481   Zn484   1.912   .     S
O482   Zn483   1.912   .     S
C485   N630    1.157   1_455 S
N486   C557    1.157   .     S
C487   N488    1.157   .     T
C489   N490    1.157   .     T
C491   N492    1.157   .     T
C493   N494    1.157   .     T
C495   N496    1.157   .     T
C497   N498    1.157   .     T
C499   N500    1.157   .     T
C501   N502    1.157   .     T
C503   N504    1.157   .     T
C505   O549    1.279   .     A
C505   C516    1.412   .     S
C505   O547    1.280   .     A
C506   O550    1.279   .     A
C506   C515    1.412   .     S
C506   O548    1.280   .     A
C507   C509    1.392   .     A
C507   C536    1.417   .     A
C507   H541    1.079   .     S
C508   C510    1.392   .     A
C508   C535    1.416   .     A
C508   H542    1.080   .     S
C509   C557    1.446   .     S
C509   C1181   1.403   1_554 S
C510   C559    1.447   .     S
C510   C1182   1.404   .     S
C511   C516    1.405   .     A
C511   C565    1.454   .     S
C511   C81     1.385   1_565 S
C512   C515    1.405   .     A
C512   C567    1.454   .     S
C513   C515    1.404   .     A
C513   C569    1.455   .     S
C514   C516    1.404   .     A
C514   C571    1.455   .     S
C514   C80     1.385   1_565 S
C517   C573    1.436   .     S
C517   N546    1.373   .     A
C517   C591    1.417   .     S
C518   C575    1.436   .     S
C518   N545    1.371   .     A
C519   H543    1.083   .     S
C519   N545    1.363   .     A
C520   H544    1.083   .     S
C520   N546    1.364   .     A
C520   C590    1.418   .     S
C521   C523    1.469   .     S
C521   O553    1.299   .     A
C521   O551    1.294   .     A
C522   O552    1.293   .     A
C522   C524    1.464   .     S
C522   O554    1.296   .     A
C523   C527    1.411   .     A
C523   C529    1.395   .     A
C524   C528    1.409   .     A
C524   C530    1.390   .     A
C525   H539    1.084   .     S
C525   C527    1.394   .     A
C525   C533    1.410   .     A
C526   H540    1.084   .     S
C526   C528    1.395   .     A
C526   C534    1.411   .     A
C527   C563    1.445   .     S
C528   C561    1.445   .     S
C529   H538    1.077   .     S
C529   C531    1.397   .     A
C530   C532    1.397   .     A
C530   H537    1.077   .     S
C531   C533    1.418   .     A
C531   C535    1.420   .     A
C532   C536    1.421   .     A
C532   C534    1.420   .     A
C533   C1157   1.403   .     S
C534   C1158   1.404   1_554 S
C535   C1184   1.413   .     S
C536   C1183   1.413   1_554 S
N545   Zn555   2.014   .     S
N546   Zn556   2.014   .     S
O547   Zn555   1.993   .     S
O548   Zn556   1.993   .     S
O549   Zn556   1.985   .     S
O550   Zn555   1.985   .     S
O551   Zn555   1.970   .     S
O552   Zn556   1.970   .     S
O553   Zn556   1.912   .     S
O554   Zn555   1.912   .     S
N558   C629    1.157   .     S
C559   N560    1.157   .     T
C561   N562    1.157   .     T
C563   N564    1.157   .     T
C565   N566    1.157   .     T
C567   N568    1.157   .     T
C569   N570    1.157   .     T
C571   N572    1.157   .     T
C573   N574    1.157   .     T
C575   N576    1.157   .     T
C577   O621    1.279   .     A
C577   C588    1.412   .     S
C577   O619    1.280   .     A
C578   O622    1.279   .     A
C578   C587    1.412   .     S
C578   O620    1.280   .     A
C579   C581    1.392   .     A
C579   C608    1.417   .     A
C579   H613    1.079   .     S
C580   C582    1.392   .     A
C580   C607    1.416   .     A
C580   H614    1.080   .     S
C581   C629    1.446   .     S
C581   C1253   1.403   1_554 S
C582   C631    1.447   .     S
C582   C1254   1.404   .     S
C583   C588    1.405   .     A
C583   C637    1.454   .     S
C583   C153    1.385   1_565 S
C584   C587    1.405   .     A
C584   C639    1.454   .     S
C585   C587    1.404   .     A
C585   C641    1.455   .     S
C586   C588    1.404   .     A
C586   C643    1.455   .     S
C586   C152    1.385   1_565 S
C589   C645    1.436   .     S
C589   N618    1.373   .     A
C589   C447    1.417   1_655 S
C590   C647    1.436   .     S
C590   N617    1.371   .     A
C591   H615    1.083   .     S
C591   N617    1.363   .     A
C592   H616    1.083   .     S
C592   N618    1.364   .     A
C592   C446    1.418   1_655 S
C593   C595    1.469   .     S
C593   O625    1.299   .     A
C593   O623    1.294   .     A
C594   O624    1.293   .     A
C594   C596    1.464   .     S
C594   O626    1.296   .     A
C595   C599    1.411   .     A
C595   C601    1.395   .     A
C596   C600    1.409   .     A
C596   C602    1.390   .     A
C597   H611    1.084   .     S
C597   C599    1.394   .     A
C597   C605    1.410   .     A
C598   H612    1.084   .     S
C598   C600    1.395   .     A
C598   C606    1.411   .     A
C599   C635    1.445   .     S
C600   C633    1.445   .     S
C601   H610    1.077   .     S
C601   C603    1.397   .     A
C602   C604    1.397   .     A
C602   H609    1.077   .     S
C603   C605    1.418   .     A
C603   C607    1.420   .     A
C604   C608    1.421   .     A
C604   C606    1.420   .     A
C605   C1229   1.403   .     S
C606   C1230   1.404   1_554 S
C607   C1256   1.413   .     S
C608   C1255   1.413   1_554 S
N617   Zn627   2.014   .     S
N618   Zn628   2.014   .     S
O619   Zn627   1.993   .     S
O620   Zn628   1.993   .     S
O621   Zn628   1.985   .     S
O622   Zn627   1.985   .     S
O623   Zn627   1.970   .     S
O624   Zn628   1.970   .     S
O625   Zn628   1.912   .     S
O626   Zn627   1.912   .     S
N630   C485    1.157   1_655 S
C631   N632    1.157   .     T
C633   N634    1.157   .     T
C635   N636    1.157   .     T
C637   N638    1.157   .     T
C639   N640    1.157   .     T
C641   N642    1.157   .     T
C643   N644    1.157   .     T
C645   N646    1.157   .     T
C647   N648    1.157   .     T
C649   O693    1.279   .     A
C649   C660    1.412   .     S
C649   O691    1.280   .     A
C650   O694    1.279   .     A
C650   C659    1.412   .     S
C650   O692    1.280   .     A
C651   C653    1.392   .     A
C651   C680    1.417   .     A
C651   H685    1.079   .     S
C652   C654    1.392   .     A
C652   C679    1.416   .     A
C652   H686    1.080   .     S
C653   C701    1.446   .     S
C654   C703    1.447   .     S
C654   C30     1.404   1_556 S
C655   C660    1.405   .     A
C655   C709    1.454   .     S
C655   C873    1.385   .     S
C656   C659    1.405   .     A
C656   C711    1.454   .     S
C656   C1090   1.385   1_545 S
C657   C659    1.404   .     A
C657   C713    1.455   .     S
C657   C1087   1.385   1_545 S
C658   C660    1.404   .     A
C658   C715    1.455   .     S
C658   C872    1.385   .     S
C661   C717    1.436   .     S
C661   N690    1.373   .     A
C661   C735    1.417   .     S
C662   C719    1.436   .     S
C662   N689    1.371   .     A
C662   C808    1.418   1_455 S
C663   H687    1.083   .     S
C663   N689    1.363   .     A
C663   C805    1.417   1_455 S
C664   H688    1.083   .     S
C664   N690    1.364   .     A
C664   C734    1.418   .     S
C665   C667    1.469   .     S
C665   O697    1.299   .     A
C665   O695    1.294   .     A
C666   O696    1.293   .     A
C666   C668    1.464   .     S
C666   O698    1.296   .     A
C667   C671    1.411   .     A
C667   C673    1.395   .     A
C668   C672    1.409   .     A
C668   C674    1.390   .     A
C669   H683    1.084   .     S
C669   C671    1.394   .     A
C669   C677    1.410   .     A
C670   H684    1.084   .     S
C670   C672    1.395   .     A
C670   C678    1.411   .     A
C671   C707    1.445   .     S
C672   C705    1.445   .     S
C673   H682    1.077   .     S
C673   C675    1.397   .     A
C674   C676    1.397   .     A
C674   H681    1.077   .     S
C675   C677    1.418   .     A
C675   C679    1.420   .     A
C676   C680    1.421   .     A
C676   C678    1.420   .     A
C677   C5      1.403   1_556 S
C679   C32     1.413   1_556 S
N689   Zn699   2.014   .     S
N690   Zn700   2.014   .     S
O691   Zn699   1.993   .     S
O692   Zn700   1.993   .     S
O693   Zn700   1.985   .     S
O694   Zn699   1.985   .     S
O695   Zn699   1.970   .     S
O696   Zn700   1.970   .     S
O697   Zn700   1.912   .     S
O698   Zn699   1.912   .     S
C701   N846    1.157   1_455 S
N702   C773    1.157   .     S
C703   N704    1.157   .     T
C705   N706    1.157   .     T
C707   N708    1.157   .     T
C709   N710    1.157   .     T
C711   N712    1.157   .     T
C713   N714    1.157   .     T
C715   N716    1.157   .     T
C717   N718    1.157   .     T
C719   N720    1.157   .     T
C721   O765    1.279   .     A
C721   C732    1.412   .     S
C721   O763    1.280   .     A
C722   O766    1.279   .     A
C722   C731    1.412   .     S
C722   O764    1.280   .     A
C723   C725    1.392   .     A
C723   C752    1.417   .     A
C723   H757    1.079   .     S
C724   C726    1.392   .     A
C724   C751    1.416   .     A
C724   H758    1.080   .     S
C725   C773    1.446   .     S
C726   C775    1.447   .     S
C726   C102    1.404   1_556 S
C727   C732    1.405   .     A
C727   C781    1.454   .     S
C727   C945    1.385   .     S
C728   C731    1.405   .     A
C728   C783    1.454   .     S
C728   C1162   1.385   1_545 S
C729   C731    1.404   .     A
C729   C785    1.455   .     S
C729   C1159   1.385   1_545 S
C730   C732    1.404   .     A
C730   C787    1.455   .     S
C730   C944    1.385   .     S
C733   C789    1.436   .     S
C733   N762    1.373   .     A
C733   C807    1.417   .     S
C734   C791    1.436   .     S
C734   N761    1.371   .     A
C735   H759    1.083   .     S
C735   N761    1.363   .     A
C736   H760    1.083   .     S
C736   N762    1.364   .     A
C736   C806    1.418   .     S
C737   C739    1.469   .     S
C737   O769    1.299   .     A
C737   O767    1.294   .     A
C738   O768    1.293   .     A
C738   C740    1.464   .     S
C738   O770    1.296   .     A
C739   C743    1.411   .     A
C739   C745    1.395   .     A
C740   C744    1.409   .     A
C740   C746    1.390   .     A
C741   H755    1.084   .     S
C741   C743    1.394   .     A
C741   C749    1.410   .     A
C742   H756    1.084   .     S
C742   C744    1.395   .     A
C742   C750    1.411   .     A
C743   C779    1.445   .     S
C744   C777    1.445   .     S
C745   H754    1.077   .     S
C745   C747    1.397   .     A
C746   C748    1.397   .     A
C746   H753    1.077   .     S
C747   C749    1.418   .     A
C747   C751    1.420   .     A
C748   C752    1.421   .     A
C748   C750    1.420   .     A
C749   C77     1.403   1_556 S
C751   C104    1.413   1_556 S
N761   Zn771   2.014   .     S
N762   Zn772   2.014   .     S
O763   Zn771   1.993   .     S
O764   Zn772   1.993   .     S
O765   Zn772   1.985   .     S
O766   Zn771   1.985   .     S
O767   Zn771   1.970   .     S
O768   Zn772   1.970   .     S
O769   Zn772   1.912   .     S
O770   Zn771   1.912   .     S
N774   C845    1.157   .     S
C775   N776    1.157   .     T
C777   N778    1.157   .     T
C779   N780    1.157   .     T
C781   N782    1.157   .     T
C783   N784    1.157   .     T
C785   N786    1.157   .     T
C787   N788    1.157   .     T
C789   N790    1.157   .     T
C791   N792    1.157   .     T
C793   O837    1.279   .     A
C793   C804    1.412   .     S
C793   O835    1.280   .     A
C794   O838    1.279   .     A
C794   C803    1.412   .     S
C794   O836    1.280   .     A
C795   C797    1.392   .     A
C795   C824    1.417   .     A
C795   H829    1.079   .     S
C796   C798    1.392   .     A
C796   C823    1.416   .     A
C796   H830    1.080   .     S
C797   C845    1.446   .     S
C798   C847    1.447   .     S
C798   C174    1.404   1_556 S
C799   C804    1.405   .     A
C799   C853    1.454   .     S
C799   C1017   1.385   .     S
C800   C803    1.405   .     A
C800   C855    1.454   .     S
C800   C1234   1.385   1_545 S
C801   C803    1.404   .     A
C801   C857    1.455   .     S
C801   C1231   1.385   1_545 S
C802   C804    1.404   .     A
C802   C859    1.455   .     S
C802   C1016   1.385   .     S
C805   C861    1.436   .     S
C805   N834    1.373   .     A
C805   C663    1.417   1_655 S
C806   C863    1.436   .     S
C806   N833    1.371   .     A
C807   H831    1.083   .     S
C807   N833    1.363   .     A
C808   H832    1.083   .     S
C808   N834    1.364   .     A
C808   C662    1.418   1_655 S
C809   C811    1.469   .     S
C809   O841    1.299   .     A
C809   O839    1.294   .     A
C810   O840    1.293   .     A
C810   C812    1.464   .     S
C810   O842    1.296   .     A
C811   C815    1.411   .     A
C811   C817    1.395   .     A
C812   C816    1.409   .     A
C812   C818    1.390   .     A
C813   H827    1.084   .     S
C813   C815    1.394   .     A
C813   C821    1.410   .     A
C814   H828    1.084   .     S
C814   C816    1.395   .     A
C814   C822    1.411   .     A
C815   C851    1.445   .     S
C816   C849    1.445   .     S
C817   H826    1.077   .     S
C817   C819    1.397   .     A
C818   C820    1.397   .     A
C818   H825    1.077   .     S
C819   C821    1.418   .     A
C819   C823    1.420   .     A
C820   C824    1.421   .     A
C820   C822    1.420   .     A
C821   C149    1.403   1_556 S
C823   C176    1.413   1_556 S
N833   Zn843   2.014   .     S
N834   Zn844   2.014   .     S
O835   Zn843   1.993   .     S
O836   Zn844   1.993   .     S
O837   Zn844   1.985   .     S
O838   Zn843   1.985   .     S
O839   Zn843   1.970   .     S
O840   Zn844   1.970   .     S
O841   Zn844   1.912   .     S
O842   Zn843   1.912   .     S
N846   C701    1.157   1_655 S
C847   N848    1.157   .     T
C849   N850    1.157   .     T
C851   N852    1.157   .     T
C853   N854    1.157   .     T
C855   N856    1.157   .     T
C857   N858    1.157   .     T
C859   N860    1.157   .     T
C861   N862    1.157   .     T
C863   N864    1.157   .     T
C865   O909    1.279   .     A
C865   C876    1.412   .     S
C865   O907    1.280   .     A
C866   O910    1.279   .     A
C866   C875    1.412   .     S
C866   O908    1.280   .     A
C867   C869    1.392   .     A
C867   C896    1.417   .     A
C867   H901    1.079   .     S
C868   C870    1.392   .     A
C868   C895    1.416   .     A
C868   H902    1.080   .     S
C869   C917    1.446   .     S
C870   C919    1.447   .     S
C870   C246    1.404   1_556 S
C871   C876    1.405   .     A
C871   C925    1.454   .     S
C871   C1089   1.385   .     S
C872   C875    1.405   .     A
C872   C927    1.454   .     S
C873   C875    1.404   .     A
C873   C929    1.455   .     S
C874   C876    1.404   .     A
C874   C931    1.455   .     S
C874   C1088   1.385   .     S
C877   C933    1.436   .     S
C877   N906    1.373   .     A
C877   C951    1.417   .     S
C878   C935    1.436   .     S
C878   N905    1.371   .     A
C878   C1024   1.418   1_455 S
C879   H903    1.083   .     S
C879   N905    1.363   .     A
C879   C1021   1.417   1_455 S
C880   H904    1.083   .     S
C880   N906    1.364   .     A
C880   C950    1.418   .     S
C881   C883    1.469   .     S
C881   O913    1.299   .     A
C881   O911    1.294   .     A
C882   O912    1.293   .     A
C882   C884    1.464   .     S
C882   O914    1.296   .     A
C883   C887    1.411   .     A
C883   C889    1.395   .     A
C884   C888    1.409   .     A
C884   C890    1.390   .     A
C885   H899    1.084   .     S
C885   C887    1.394   .     A
C885   C893    1.410   .     A
C886   H900    1.084   .     S
C886   C888    1.395   .     A
C886   C894    1.411   .     A
C887   C923    1.445   .     S
C888   C921    1.445   .     S
C889   H898    1.077   .     S
C889   C891    1.397   .     A
C890   C892    1.397   .     A
C890   H897    1.077   .     S
C891   C893    1.418   .     A
C891   C895    1.420   .     A
C892   C896    1.421   .     A
C892   C894    1.420   .     A
C893   C221    1.403   1_556 S
C895   C248    1.413   1_556 S
N905   Zn915   2.014   .     S
N906   Zn916   2.014   .     S
O907   Zn915   1.993   .     S
O908   Zn916   1.993   .     S
O909   Zn916   1.985   .     S
O910   Zn915   1.985   .     S
O911   Zn915   1.970   .     S
O912   Zn916   1.970   .     S
O913   Zn916   1.912   .     S
O914   Zn915   1.912   .     S
C917   N1062   1.157   1_455 S
N918   C989    1.157   .     S
C919   N920    1.157   .     T
C921   N922    1.157   .     T
C923   N924    1.157   .     T
C925   N926    1.157   .     T
C927   N928    1.157   .     T
C929   N930    1.157   .     T
C931   N932    1.157   .     T
C933   N934    1.157   .     T
C935   N936    1.157   .     T
C937   O981    1.279   .     A
C937   C948    1.412   .     S
C937   O979    1.280   .     A
C938   O982    1.279   .     A
C938   C947    1.412   .     S
C938   O980    1.280   .     A
C939   C941    1.392   .     A
C939   C968    1.417   .     A
C939   H973    1.079   .     S
C940   C942    1.392   .     A
C940   C967    1.416   .     A
C940   H974    1.080   .     S
C941   C989    1.446   .     S
C942   C991    1.447   .     S
C942   C318    1.404   1_556 S
C943   C948    1.405   .     A
C943   C997    1.454   .     S
C943   C1161   1.385   .     S
C944   C947    1.405   .     A
C944   C999    1.454   .     S
C945   C947    1.404   .     A
C945   C1001   1.455   .     S
C946   C948    1.404   .     A
C946   C1003   1.455   .     S
C946   C1160   1.385   .     S
C949   C1005   1.436   .     S
C949   N978    1.373   .     A
C949   C1023   1.417   .     S
C950   C1007   1.436   .     S
C950   N977    1.371   .     A
C951   H975    1.083   .     S
C951   N977    1.363   .     A
C952   H976    1.083   .     S
C952   N978    1.364   .     A
C952   C1022   1.418   .     S
C953   C955    1.469   .     S
C953   O985    1.299   .     A
C953   O983    1.294   .     A
C954   O984    1.293   .     A
C954   C956    1.464   .     S
C954   O986    1.296   .     A
C955   C959    1.411   .     A
C955   C961    1.395   .     A
C956   C960    1.409   .     A
C956   C962    1.390   .     A
C957   H971    1.084   .     S
C957   C959    1.394   .     A
C957   C965    1.410   .     A
C958   H972    1.084   .     S
C958   C960    1.395   .     A
C958   C966    1.411   .     A
C959   C995    1.445   .     S
C960   C993    1.445   .     S
C961   H970    1.077   .     S
C961   C963    1.397   .     A
C962   C964    1.397   .     A
C962   H969    1.077   .     S
C963   C965    1.418   .     A
C963   C967    1.420   .     A
C964   C968    1.421   .     A
C964   C966    1.420   .     A
C965   C293    1.403   1_556 S
C967   C320    1.413   1_556 S
N977   Zn987   2.014   .     S
N978   Zn988   2.014   .     S
O979   Zn987   1.993   .     S
O980   Zn988   1.993   .     S
O981   Zn988   1.985   .     S
O982   Zn987   1.985   .     S
O983   Zn987   1.970   .     S
O984   Zn988   1.970   .     S
O985   Zn988   1.912   .     S
O986   Zn987   1.912   .     S
N990   C1061   1.157   .     S
C991   N992    1.157   .     T
C993   N994    1.157   .     T
C995   N996    1.157   .     T
C997   N998    1.157   .     T
C999   N1000   1.157   .     T
C1001  N1002   1.157   .     T
C1003  N1004   1.157   .     T
C1005  N1006   1.157   .     T
C1007  N1008   1.157   .     T
C1009  O1053   1.279   .     A
C1009  C1020   1.412   .     S
C1009  O1051   1.280   .     A
C1010  O1054   1.279   .     A
C1010  C1019   1.412   .     S
C1010  O1052   1.280   .     A
C1011  C1013   1.392   .     A
C1011  C1040   1.417   .     A
C1011  H1045   1.079   .     S
C1012  C1014   1.392   .     A
C1012  C1039   1.416   .     A
C1012  H1046   1.080   .     S
C1013  C1061   1.446   .     S
C1014  C1063   1.447   .     S
C1014  C390    1.404   1_556 S
C1015  C1020   1.405   .     A
C1015  C1069   1.454   .     S
C1015  C1233   1.385   .     S
C1016  C1019   1.405   .     A
C1016  C1071   1.454   .     S
C1017  C1019   1.404   .     A
C1017  C1073   1.455   .     S
C1018  C1020   1.404   .     A
C1018  C1075   1.455   .     S
C1018  C1232   1.385   .     S
C1021  C1077   1.436   .     S
C1021  N1050   1.373   .     A
C1021  C879    1.417   1_655 S
C1022  C1079   1.436   .     S
C1022  N1049   1.371   .     A
C1023  H1047   1.083   .     S
C1023  N1049   1.363   .     A
C1024  H1048   1.083   .     S
C1024  N1050   1.364   .     A
C1024  C878    1.418   1_655 S
C1025  C1027   1.469   .     S
C1025  O1057   1.299   .     A
C1025  O1055   1.294   .     A
C1026  O1056   1.293   .     A
C1026  C1028   1.464   .     S
C1026  O1058   1.296   .     A
C1027  C1031   1.411   .     A
C1027  C1033   1.395   .     A
C1028  C1032   1.409   .     A
C1028  C1034   1.390   .     A
C1029  H1043   1.084   .     S
C1029  C1031   1.394   .     A
C1029  C1037   1.410   .     A
C1030  H1044   1.084   .     S
C1030  C1032   1.395   .     A
C1030  C1038   1.411   .     A
C1031  C1067   1.445   .     S
C1032  C1065   1.445   .     S
C1033  H1042   1.077   .     S
C1033  C1035   1.397   .     A
C1034  C1036   1.397   .     A
C1034  H1041   1.077   .     S
C1035  C1037   1.418   .     A
C1035  C1039   1.420   .     A
C1036  C1040   1.421   .     A
C1036  C1038   1.420   .     A
C1037  C365    1.403   1_556 S
C1039  C392    1.413   1_556 S
N1049  Zn1059  2.014   .     S
N1050  Zn1060  2.014   .     S
O1051  Zn1059  1.993   .     S
O1052  Zn1060  1.993   .     S
O1053  Zn1060  1.985   .     S
O1054  Zn1059  1.985   .     S
O1055  Zn1059  1.970   .     S
O1056  Zn1060  1.970   .     S
O1057  Zn1060  1.912   .     S
O1058  Zn1059  1.912   .     S
N1062  C917    1.157   1_655 S
C1063  N1064   1.157   .     T
C1065  N1066   1.157   .     T
C1067  N1068   1.157   .     T
C1069  N1070   1.157   .     T
C1071  N1072   1.157   .     T
C1073  N1074   1.157   .     T
C1075  N1076   1.157   .     T
C1077  N1078   1.157   .     T
C1079  N1080   1.157   .     T
C1081  O1125   1.279   .     A
C1081  C1092   1.412   .     S
C1081  O1123   1.280   .     A
C1082  O1126   1.279   .     A
C1082  C1091   1.412   .     S
C1082  O1124   1.280   .     A
C1083  C1085   1.392   .     A
C1083  C1112   1.417   .     A
C1083  H1117   1.079   .     S
C1084  C1086   1.392   .     A
C1084  C1111   1.416   .     A
C1084  H1118   1.080   .     S
C1085  C1133   1.446   .     S
C1086  C1135   1.447   .     S
C1086  C462    1.404   1_556 S
C1087  C1092   1.405   .     A
C1087  C1141   1.454   .     S
C1087  C657    1.385   1_565 S
C1088  C1091   1.405   .     A
C1088  C1143   1.454   .     S
C1089  C1091   1.404   .     A
C1089  C1145   1.455   .     S
C1090  C1092   1.404   .     A
C1090  C1147   1.455   .     S
C1090  C656    1.385   1_565 S
C1093  C1149   1.436   .     S
C1093  N1122   1.373   .     A
C1093  C1167   1.417   .     S
C1094  C1151   1.436   .     S
C1094  N1121   1.371   .     A
C1094  C1240   1.418   1_455 S
C1095  H1119   1.083   .     S
C1095  N1121   1.363   .     A
C1095  C1237   1.417   1_455 S
C1096  H1120   1.083   .     S
C1096  N1122   1.364   .     A
C1096  C1166   1.418   .     S
C1097  C1099   1.469   .     S
C1097  O1129   1.299   .     A
C1097  O1127   1.294   .     A
C1098  O1128   1.293   .     A
C1098  C1100   1.464   .     S
C1098  O1130   1.296   .     A
C1099  C1103   1.411   .     A
C1099  C1105   1.395   .     A
C1100  C1104   1.409   .     A
C1100  C1106   1.390   .     A
C1101  H1115   1.084   .     S
C1101  C1103   1.394   .     A
C1101  C1109   1.410   .     A
C1102  H1116   1.084   .     S
C1102  C1104   1.395   .     A
C1102  C1110   1.411   .     A
C1103  C1139   1.445   .     S
C1104  C1137   1.445   .     S
C1105  H1114   1.077   .     S
C1105  C1107   1.397   .     A
C1106  C1108   1.397   .     A
C1106  H1113   1.077   .     S
C1107  C1109   1.418   .     A
C1107  C1111   1.420   .     A
C1108  C1112   1.421   .     A
C1108  C1110   1.420   .     A
C1109  C437    1.403   1_556 S
C1111  C464    1.413   1_556 S
N1121  Zn1131  2.014   .     S
N1122  Zn1132  2.014   .     S
O1123  Zn1131  1.993   .     S
O1124  Zn1132  1.993   .     S
O1125  Zn1132  1.985   .     S
O1126  Zn1131  1.985   .     S
O1127  Zn1131  1.970   .     S
O1128  Zn1132  1.970   .     S
O1129  Zn1132  1.912   .     S
O1130  Zn1131  1.912   .     S
C1133  N1278   1.157   1_455 S
N1134  C1205   1.157   .     S
C1135  N1136   1.157   .     T
C1137  N1138   1.157   .     T
C1139  N1140   1.157   .     T
C1141  N1142   1.157   .     T
C1143  N1144   1.157   .     T
C1145  N1146   1.157   .     T
C1147  N1148   1.157   .     T
C1149  N1150   1.157   .     T
C1151  N1152   1.157   .     T
C1153  O1197   1.279   .     A
C1153  C1164   1.412   .     S
C1153  O1195   1.280   .     A
C1154  O1198   1.279   .     A
C1154  C1163   1.412   .     S
C1154  O1196   1.280   .     A
C1155  C1157   1.392   .     A
C1155  C1184   1.417   .     A
C1155  H1189   1.079   .     S
C1156  C1158   1.392   .     A
C1156  C1183   1.416   .     A
C1156  H1190   1.080   .     S
C1157  C1205   1.446   .     S
C1158  C1207   1.447   .     S
C1158  C534    1.404   1_556 S
C1159  C1164   1.405   .     A
C1159  C1213   1.454   .     S
C1159  C729    1.385   1_565 S
C1160  C1163   1.405   .     A
C1160  C1215   1.454   .     S
C1161  C1163   1.404   .     A
C1161  C1217   1.455   .     S
C1162  C1164   1.404   .     A
C1162  C1219   1.455   .     S
C1162  C728    1.385   1_565 S
C1165  C1221   1.436   .     S
C1165  N1194   1.373   .     A
C1165  C1239   1.417   .     S
C1166  C1223   1.436   .     S
C1166  N1193   1.371   .     A
C1167  H1191   1.083   .     S
C1167  N1193   1.363   .     A
C1168  H1192   1.083   .     S
C1168  N1194   1.364   .     A
C1168  C1238   1.418   .     S
C1169  C1171   1.469   .     S
C1169  O1201   1.299   .     A
C1169  O1199   1.294   .     A
C1170  O1200   1.293   .     A
C1170  C1172   1.464   .     S
C1170  O1202   1.296   .     A
C1171  C1175   1.411   .     A
C1171  C1177   1.395   .     A
C1172  C1176   1.409   .     A
C1172  C1178   1.390   .     A
C1173  H1187   1.084   .     S
C1173  C1175   1.394   .     A
C1173  C1181   1.410   .     A
C1174  H1188   1.084   .     S
C1174  C1176   1.395   .     A
C1174  C1182   1.411   .     A
C1175  C1211   1.445   .     S
C1176  C1209   1.445   .     S
C1177  H1186   1.077   .     S
C1177  C1179   1.397   .     A
C1178  C1180   1.397   .     A
C1178  H1185   1.077   .     S
C1179  C1181   1.418   .     A
C1179  C1183   1.420   .     A
C1180  C1184   1.421   .     A
C1180  C1182   1.420   .     A
C1181  C509    1.403   1_556 S
C1183  C536    1.413   1_556 S
N1193  Zn1203  2.014   .     S
N1194  Zn1204  2.014   .     S
O1195  Zn1203  1.993   .     S
O1196  Zn1204  1.993   .     S
O1197  Zn1204  1.985   .     S
O1198  Zn1203  1.985   .     S
O1199  Zn1203  1.970   .     S
O1200  Zn1204  1.970   .     S
O1201  Zn1204  1.912   .     S
O1202  Zn1203  1.912   .     S
N1206  C1277   1.157   .     S
C1207  N1208   1.157   .     T
C1209  N1210   1.157   .     T
C1211  N1212   1.157   .     T
C1213  N1214   1.157   .     T
C1215  N1216   1.157   .     T
C1217  N1218   1.157   .     T
C1219  N1220   1.157   .     T
C1221  N1222   1.157   .     T
C1223  N1224   1.157   .     T
C1225  O1269   1.279   .     A
C1225  C1236   1.412   .     S
C1225  O1267   1.280   .     A
C1226  O1270   1.279   .     A
C1226  C1235   1.412   .     S
C1226  O1268   1.280   .     A
C1227  C1229   1.392   .     A
C1227  C1256   1.417   .     A
C1227  H1261   1.079   .     S
C1228  C1230   1.392   .     A
C1228  C1255   1.416   .     A
C1228  H1262   1.080   .     S
C1229  C1277   1.446   .     S
C1230  C1279   1.447   .     S
C1230  C606    1.404   1_556 S
C1231  C1236   1.405   .     A
C1231  C1285   1.454   .     S
C1231  C801    1.385   1_565 S
C1232  C1235   1.405   .     A
C1232  C1287   1.454   .     S
C1233  C1235   1.404   .     A
C1233  C1289   1.455   .     S
C1234  C1236   1.404   .     A
C1234  C1291   1.455   .     S
C1234  C800    1.385   1_565 S
C1237  C1293   1.436   .     S
C1237  N1266   1.373   .     A
C1237  C1095   1.417   1_655 S
C1238  C1295   1.436   .     S
C1238  N1265   1.371   .     A
C1239  H1263   1.083   .     S
C1239  N1265   1.363   .     A
C1240  H1264   1.083   .     S
C1240  N1266   1.364   .     A
C1240  C1094   1.418   1_655 S
C1241  C1243   1.469   .     S
C1241  O1273   1.299   .     A
C1241  O1271   1.294   .     A
C1242  O1272   1.293   .     A
C1242  C1244   1.464   .     S
C1242  O1274   1.296   .     A
C1243  C1247   1.411   .     A
C1243  C1249   1.395   .     A
C1244  C1248   1.409   .     A
C1244  C1250   1.390   .     A
C1245  H1259   1.084   .     S
C1245  C1247   1.394   .     A
C1245  C1253   1.410   .     A
C1246  H1260   1.084   .     S
C1246  C1248   1.395   .     A
C1246  C1254   1.411   .     A
C1247  C1283   1.445   .     S
C1248  C1281   1.445   .     S
C1249  H1258   1.077   .     S
C1249  C1251   1.397   .     A
C1250  C1252   1.397   .     A
C1250  H1257   1.077   .     S
C1251  C1253   1.418   .     A
C1251  C1255   1.420   .     A
C1252  C1256   1.421   .     A
C1252  C1254   1.420   .     A
C1253  C581    1.403   1_556 S
C1255  C608    1.413   1_556 S
N1265  Zn1275  2.014   .     S
N1266  Zn1276  2.014   .     S
O1267  Zn1275  1.993   .     S
O1268  Zn1276  1.993   .     S
O1269  Zn1276  1.985   .     S
O1270  Zn1275  1.985   .     S
O1271  Zn1275  1.970   .     S
O1272  Zn1276  1.970   .     S
O1273  Zn1276  1.912   .     S
O1274  Zn1275  1.912   .     S
N1278  C1133   1.157   1_655 S
C1279  N1280   1.157   .     T
C1281  N1282   1.157   .     T
C1283  N1284   1.157   .     T
C1285  N1286   1.157   .     T
C1287  N1288   1.157   .     T
C1289  N1290   1.157   .     T
C1291  N1292   1.157   .     T
C1293  N1294   1.157   .     T
C1295  N1296   1.157   .     T
