data_str_m3_o1_o1_pcu_sym.65
_audit_creation_date              2020-01-03
_audit_creation_method            'Materials Studio'
_symmetry_space_group_name_H-M    'P1'
_symmetry_Int_Tables_number       1
_symmetry_cell_setting            triclinic
loop_
_symmetry_equiv_pos_as_xyz
  x,y,z
_cell_length_a                    30.6317
_cell_length_b                    30.0278
_cell_length_c                    29.6904
_cell_angle_alpha                 90.0000
_cell_angle_beta                  90.0000
_cell_angle_gamma                 90.0000
loop_
_atom_site_label
_atom_site_type_symbol
_atom_site_fract_x
_atom_site_fract_y
_atom_site_fract_z
_atom_site_U_iso_or_equiv
_atom_site_adp_type
_atom_site_occupancy
C1     C     0.05996   0.18998   0.16667   0.00000  Uiso   1.00
C2     C     0.00000   0.21081   0.30939   0.00000  Uiso   1.00
C3     C     0.00000   0.21081   0.02394   0.00000  Uiso   1.00
C4     C     0.00000   0.28918   0.30939   0.00000  Uiso   1.00
C5     C     0.25000   0.03919   0.02394   0.00000  Uiso   1.00
C6     C     0.25000   0.46082   0.30939   0.00000  Uiso   1.00
C7     C     0.25000   0.46082   0.02394   0.00000  Uiso   1.00
C8     C     0.25000   0.03919   0.30939   0.00000  Uiso   1.00
C9     C     0.39096   0.14096   0.12559   0.00000  Uiso   1.00
C10    C     0.10904   0.35904   0.20774   0.00000  Uiso   1.00
C11    C     0.10904   0.35904   0.12559   0.00000  Uiso   1.00
C12    C     0.44003   0.31002   0.16667   0.00000  Uiso   1.00
C13    C     0.39096   0.14096   0.20774   0.00000  Uiso   1.00
C14    C     0.10904   0.14096   0.20774   0.00000  Uiso   1.00
C15    C     0.39096   0.35904   0.12559   0.00000  Uiso   1.00
C16    C     0.39096   0.35904   0.20774   0.00000  Uiso   1.00
C17    C     0.10904   0.14096   0.12559   0.00000  Uiso   1.00
C18    C     0.14096   0.39096   0.12559   0.00000  Uiso   1.00
C19    C     0.35904   0.10904   0.20774   0.00000  Uiso   1.00
C20    C     0.35904   0.10904   0.12559   0.00000  Uiso   1.00
C21    C     0.14096   0.39096   0.20774   0.00000  Uiso   1.00
C22    C     0.35904   0.39096   0.20774   0.00000  Uiso   1.00
C23    C     0.44003   0.18998   0.16667   0.00000  Uiso   1.00
C24    C     0.14096   0.10904   0.12559   0.00000  Uiso   1.00
C25    C     0.14096   0.10904   0.20774   0.00000  Uiso   1.00
C26    C     0.35904   0.39096   0.12559   0.00000  Uiso   1.00
C27    C     0.09312   0.34315   0.16667   0.00000  Uiso   1.00
C28    C     0.40688   0.15685   0.16667   0.00000  Uiso   1.00
C29    C     0.40688   0.34315   0.16667   0.00000  Uiso   1.00
C30    C     0.09312   0.15685   0.16667   0.00000  Uiso   1.00
C31    C     0.34312   0.09315   0.16667   0.00000  Uiso   1.00
C32    C     0.15688   0.40685   0.16667   0.00000  Uiso   1.00
C33    C     0.15688   0.09315   0.16667   0.00000  Uiso   1.00
C34    C     0.05996   0.31002   0.16667   0.00000  Uiso   1.00
C35    C     0.34312   0.40685   0.16667   0.00000  Uiso   1.00
C36    C     0.30996   0.43998   0.16667   0.00000  Uiso   1.00
C37    C     0.19003   0.06002   0.16667   0.00000  Uiso   1.00
C38    C     0.19003   0.43998   0.16667   0.00000  Uiso   1.00
C39    C     0.30996   0.06002   0.16667   0.00000  Uiso   1.00
C40    C     0.00000   0.28918   0.02394   0.00000  Uiso   1.00
Cl41   Cl    0.00000   0.34024   0.05300   0.00000  Uiso   1.00
Cl42   Cl    0.00000   0.15976   0.28033   0.00000  Uiso   1.00
Cl43   Cl    0.00000   0.15976   0.05300   0.00000  Uiso   1.00
Cl44   Cl    0.00000   0.34024   0.28033   0.00000  Uiso   1.00
Cl45   Cl    0.25000   0.09024   0.05300   0.00000  Uiso   1.00
Cl46   Cl    0.25000   0.40976   0.28033   0.00000  Uiso   1.00
Cl47   Cl    0.25000   0.40976   0.05300   0.00000  Uiso   1.00
Cl48   Cl    0.25000   0.09024   0.28033   0.00000  Uiso   1.00
H49    H     0.40302   0.15307   0.09355   0.00000  Uiso   1.00
H50    H     0.34698   0.09693   0.23978   0.00000  Uiso   1.00
H51    H     0.34698   0.09693   0.09355   0.00000  Uiso   1.00
H52    H     0.15302   0.40307   0.23978   0.00000  Uiso   1.00
H53    H     0.34698   0.40307   0.23978   0.00000  Uiso   1.00
H54    H     0.15302   0.09693   0.09355   0.00000  Uiso   1.00
H55    H     0.15302   0.09693   0.23978   0.00000  Uiso   1.00
H56    H     0.34698   0.40307   0.09355   0.00000  Uiso   1.00
H57    H     0.09698   0.34693   0.23978   0.00000  Uiso   1.00
H58    H     0.09698   0.34693   0.09355   0.00000  Uiso   1.00
H59    H     0.40302   0.15307   0.23978   0.00000  Uiso   1.00
H60    H     0.09698   0.15307   0.23978   0.00000  Uiso   1.00
H61    H     0.40302   0.34693   0.09355   0.00000  Uiso   1.00
H62    H     0.40302   0.34693   0.23978   0.00000  Uiso   1.00
H63    H     0.09698   0.15307   0.09355   0.00000  Uiso   1.00
H64    H     0.15302   0.40307   0.09355   0.00000  Uiso   1.00
N65    N     0.00000   0.25000   0.28573   0.00000  Uiso   1.00
N66    N     0.00000   0.25000   0.04760   0.00000  Uiso   1.00
N67    N     0.25000   0.00000   0.28573   0.00000  Uiso   1.00
N68    N     0.25000   0.00000   0.04760   0.00000  Uiso   1.00
O69    O     0.04580   0.20419   0.20487   0.00000  Uiso   1.00
O70    O     0.20419   0.04581   0.12846   0.00000  Uiso   1.00
O71    O     0.20419   0.04581   0.20487   0.00000  Uiso   1.00
O72    O     0.29580   0.45419   0.12846   0.00000  Uiso   1.00
O73    O     0.20419   0.45419   0.12846   0.00000  Uiso   1.00
O74    O     0.29580   0.04581   0.20487   0.00000  Uiso   1.00
O75    O     0.29580   0.04581   0.12846   0.00000  Uiso   1.00
O76    O     0.20419   0.45419   0.20487   0.00000  Uiso   1.00
O77    O     0.45419   0.29581   0.12846   0.00000  Uiso   1.00
O78    O     0.45419   0.29581   0.20487   0.00000  Uiso   1.00
O79    O     0.04580   0.20419   0.12846   0.00000  Uiso   1.00
O80    O     0.45419   0.20419   0.12846   0.00000  Uiso   1.00
O81    O     0.04580   0.29581   0.20487   0.00000  Uiso   1.00
O82    O     0.04580   0.29581   0.12846   0.00000  Uiso   1.00
O83    O     0.45419   0.20419   0.20487   0.00000  Uiso   1.00
O84    O     0.29580   0.45419   0.20487   0.00000  Uiso   1.00
Zn85   Zn    0.00000   0.25000   0.21771   0.00000  Uiso   1.00
Zn86   Zn    0.00000   0.25000   0.11563   0.00000  Uiso   1.00
Zn87   Zn    0.25000   0.00000   0.21771   0.00000  Uiso   1.00
Zn88   Zn    0.25000   0.00000   0.11563   0.00000  Uiso   1.00
C89    C     0.55996   0.18998   0.16667   0.00000  Uiso   1.00
C90    C     0.50000   0.21081   0.30939   0.00000  Uiso   1.00
C91    C     0.50000   0.21081   0.02394   0.00000  Uiso   1.00
C92    C     0.50000   0.28918   0.30939   0.00000  Uiso   1.00
C93    C     0.75000   0.03919   0.02394   0.00000  Uiso   1.00
C94    C     0.75000   0.46082   0.30939   0.00000  Uiso   1.00
C95    C     0.75000   0.46082   0.02394   0.00000  Uiso   1.00
C96    C     0.75000   0.03919   0.30939   0.00000  Uiso   1.00
C97    C     0.89096   0.14096   0.12559   0.00000  Uiso   1.00
C98    C     0.60904   0.35904   0.20774   0.00000  Uiso   1.00
C99    C     0.60904   0.35904   0.12559   0.00000  Uiso   1.00
C100   C     0.94003   0.31002   0.16667   0.00000  Uiso   1.00
C101   C     0.89096   0.14096   0.20774   0.00000  Uiso   1.00
C102   C     0.60904   0.14096   0.20774   0.00000  Uiso   1.00
C103   C     0.89096   0.35904   0.12559   0.00000  Uiso   1.00
C104   C     0.89096   0.35904   0.20774   0.00000  Uiso   1.00
C105   C     0.60904   0.14096   0.12559   0.00000  Uiso   1.00
C106   C     0.64096   0.39096   0.12559   0.00000  Uiso   1.00
C107   C     0.85904   0.10904   0.20774   0.00000  Uiso   1.00
C108   C     0.85904   0.10904   0.12559   0.00000  Uiso   1.00
C109   C     0.64096   0.39096   0.20774   0.00000  Uiso   1.00
C110   C     0.85904   0.39096   0.20774   0.00000  Uiso   1.00
C111   C     0.94003   0.18998   0.16667   0.00000  Uiso   1.00
C112   C     0.64096   0.10904   0.12559   0.00000  Uiso   1.00
C113   C     0.64096   0.10904   0.20774   0.00000  Uiso   1.00
C114   C     0.85904   0.39096   0.12559   0.00000  Uiso   1.00
C115   C     0.59312   0.34315   0.16667   0.00000  Uiso   1.00
C116   C     0.90688   0.15685   0.16667   0.00000  Uiso   1.00
C117   C     0.90688   0.34315   0.16667   0.00000  Uiso   1.00
C118   C     0.59312   0.15685   0.16667   0.00000  Uiso   1.00
C119   C     0.84312   0.09315   0.16667   0.00000  Uiso   1.00
C120   C     0.65688   0.40685   0.16667   0.00000  Uiso   1.00
C121   C     0.65688   0.09315   0.16667   0.00000  Uiso   1.00
C122   C     0.55996   0.31002   0.16667   0.00000  Uiso   1.00
C123   C     0.84312   0.40685   0.16667   0.00000  Uiso   1.00
C124   C     0.80996   0.43998   0.16667   0.00000  Uiso   1.00
C125   C     0.69003   0.06002   0.16667   0.00000  Uiso   1.00
C126   C     0.69003   0.43998   0.16667   0.00000  Uiso   1.00
C127   C     0.80996   0.06002   0.16667   0.00000  Uiso   1.00
C128   C     0.50000   0.28918   0.02394   0.00000  Uiso   1.00
Cl129  Cl    0.50000   0.34024   0.05300   0.00000  Uiso   1.00
Cl130  Cl    0.50000   0.15976   0.28033   0.00000  Uiso   1.00
Cl131  Cl    0.50000   0.15976   0.05300   0.00000  Uiso   1.00
Cl132  Cl    0.50000   0.34024   0.28033   0.00000  Uiso   1.00
Cl133  Cl    0.75000   0.09024   0.05300   0.00000  Uiso   1.00
Cl134  Cl    0.75000   0.40976   0.28033   0.00000  Uiso   1.00
Cl135  Cl    0.75000   0.40976   0.05300   0.00000  Uiso   1.00
Cl136  Cl    0.75000   0.09024   0.28033   0.00000  Uiso   1.00
H137   H     0.90302   0.15307   0.09355   0.00000  Uiso   1.00
H138   H     0.84698   0.09693   0.23978   0.00000  Uiso   1.00
H139   H     0.84698   0.09693   0.09355   0.00000  Uiso   1.00
H140   H     0.65302   0.40307   0.23978   0.00000  Uiso   1.00
H141   H     0.84698   0.40307   0.23978   0.00000  Uiso   1.00
H142   H     0.65302   0.09693   0.09355   0.00000  Uiso   1.00
H143   H     0.65302   0.09693   0.23978   0.00000  Uiso   1.00
H144   H     0.84698   0.40307   0.09355   0.00000  Uiso   1.00
H145   H     0.59698   0.34693   0.23978   0.00000  Uiso   1.00
H146   H     0.59698   0.34693   0.09355   0.00000  Uiso   1.00
H147   H     0.90302   0.15307   0.23978   0.00000  Uiso   1.00
H148   H     0.59698   0.15307   0.23978   0.00000  Uiso   1.00
H149   H     0.90302   0.34693   0.09355   0.00000  Uiso   1.00
H150   H     0.90302   0.34693   0.23978   0.00000  Uiso   1.00
H151   H     0.59698   0.15307   0.09355   0.00000  Uiso   1.00
H152   H     0.65302   0.40307   0.09355   0.00000  Uiso   1.00
N153   N     0.50000   0.25000   0.28573   0.00000  Uiso   1.00
N154   N     0.50000   0.25000   0.04760   0.00000  Uiso   1.00
N155   N     0.75000   0.00000   0.28573   0.00000  Uiso   1.00
N156   N     0.75000   0.00000   0.04760   0.00000  Uiso   1.00
O157   O     0.54580   0.20419   0.20487   0.00000  Uiso   1.00
O158   O     0.70419   0.04581   0.12846   0.00000  Uiso   1.00
O159   O     0.70419   0.04581   0.20487   0.00000  Uiso   1.00
O160   O     0.79580   0.45419   0.12846   0.00000  Uiso   1.00
O161   O     0.70419   0.45419   0.12846   0.00000  Uiso   1.00
O162   O     0.79580   0.04581   0.20487   0.00000  Uiso   1.00
O163   O     0.79580   0.04581   0.12846   0.00000  Uiso   1.00
O164   O     0.70419   0.45419   0.20487   0.00000  Uiso   1.00
O165   O     0.95419   0.29581   0.12846   0.00000  Uiso   1.00
O166   O     0.95419   0.29581   0.20487   0.00000  Uiso   1.00
O167   O     0.54580   0.20419   0.12846   0.00000  Uiso   1.00
O168   O     0.95419   0.20419   0.12846   0.00000  Uiso   1.00
O169   O     0.54580   0.29581   0.20487   0.00000  Uiso   1.00
O170   O     0.54580   0.29581   0.12846   0.00000  Uiso   1.00
O171   O     0.95419   0.20419   0.20487   0.00000  Uiso   1.00
O172   O     0.79580   0.45419   0.20487   0.00000  Uiso   1.00
Zn173  Zn    0.50000   0.25000   0.21771   0.00000  Uiso   1.00
Zn174  Zn    0.50000   0.25000   0.11563   0.00000  Uiso   1.00
Zn175  Zn    0.75000   0.00000   0.21771   0.00000  Uiso   1.00
Zn176  Zn    0.75000   0.00000   0.11563   0.00000  Uiso   1.00
C177   C     0.05996   0.68998   0.16667   0.00000  Uiso   1.00
C178   C     0.00000   0.71081   0.30939   0.00000  Uiso   1.00
C179   C     0.00000   0.71081   0.02394   0.00000  Uiso   1.00
C180   C     0.00000   0.78918   0.30939   0.00000  Uiso   1.00
C181   C     0.25000   0.53919   0.02394   0.00000  Uiso   1.00
C182   C     0.25000   0.96082   0.30939   0.00000  Uiso   1.00
C183   C     0.25000   0.96082   0.02394   0.00000  Uiso   1.00
C184   C     0.25000   0.53919   0.30939   0.00000  Uiso   1.00
C185   C     0.39096   0.64096   0.12559   0.00000  Uiso   1.00
C186   C     0.10904   0.85904   0.20774   0.00000  Uiso   1.00
C187   C     0.10904   0.85904   0.12559   0.00000  Uiso   1.00
C188   C     0.44003   0.81002   0.16667   0.00000  Uiso   1.00
C189   C     0.39096   0.64096   0.20774   0.00000  Uiso   1.00
C190   C     0.10904   0.64096   0.20774   0.00000  Uiso   1.00
C191   C     0.39096   0.85904   0.12559   0.00000  Uiso   1.00
C192   C     0.39096   0.85904   0.20774   0.00000  Uiso   1.00
C193   C     0.10904   0.64096   0.12559   0.00000  Uiso   1.00
C194   C     0.14096   0.89096   0.12559   0.00000  Uiso   1.00
C195   C     0.35904   0.60904   0.20774   0.00000  Uiso   1.00
C196   C     0.35904   0.60904   0.12559   0.00000  Uiso   1.00
C197   C     0.14096   0.89096   0.20774   0.00000  Uiso   1.00
C198   C     0.35904   0.89096   0.20774   0.00000  Uiso   1.00
C199   C     0.44003   0.68998   0.16667   0.00000  Uiso   1.00
C200   C     0.14096   0.60904   0.12559   0.00000  Uiso   1.00
C201   C     0.14096   0.60904   0.20774   0.00000  Uiso   1.00
C202   C     0.35904   0.89096   0.12559   0.00000  Uiso   1.00
C203   C     0.09312   0.84315   0.16667   0.00000  Uiso   1.00
C204   C     0.40688   0.65685   0.16667   0.00000  Uiso   1.00
C205   C     0.40688   0.84315   0.16667   0.00000  Uiso   1.00
C206   C     0.09312   0.65685   0.16667   0.00000  Uiso   1.00
C207   C     0.34312   0.59315   0.16667   0.00000  Uiso   1.00
C208   C     0.15688   0.90685   0.16667   0.00000  Uiso   1.00
C209   C     0.15688   0.59315   0.16667   0.00000  Uiso   1.00
C210   C     0.05996   0.81002   0.16667   0.00000  Uiso   1.00
C211   C     0.34312   0.90685   0.16667   0.00000  Uiso   1.00
C212   C     0.30996   0.93998   0.16667   0.00000  Uiso   1.00
C213   C     0.19003   0.56002   0.16667   0.00000  Uiso   1.00
C214   C     0.19003   0.93998   0.16667   0.00000  Uiso   1.00
C215   C     0.30996   0.56002   0.16667   0.00000  Uiso   1.00
C216   C     0.00000   0.78918   0.02394   0.00000  Uiso   1.00
Cl217  Cl    0.00000   0.84024   0.05300   0.00000  Uiso   1.00
Cl218  Cl    0.00000   0.65976   0.28033   0.00000  Uiso   1.00
Cl219  Cl    0.00000   0.65976   0.05300   0.00000  Uiso   1.00
Cl220  Cl    0.00000   0.84024   0.28033   0.00000  Uiso   1.00
Cl221  Cl    0.25000   0.59024   0.05300   0.00000  Uiso   1.00
Cl222  Cl    0.25000   0.90976   0.28033   0.00000  Uiso   1.00
Cl223  Cl    0.25000   0.90976   0.05300   0.00000  Uiso   1.00
Cl224  Cl    0.25000   0.59024   0.28033   0.00000  Uiso   1.00
H225   H     0.40302   0.65307   0.09355   0.00000  Uiso   1.00
H226   H     0.34698   0.59693   0.23978   0.00000  Uiso   1.00
H227   H     0.34698   0.59693   0.09355   0.00000  Uiso   1.00
H228   H     0.15302   0.90307   0.23978   0.00000  Uiso   1.00
H229   H     0.34698   0.90307   0.23978   0.00000  Uiso   1.00
H230   H     0.15302   0.59693   0.09355   0.00000  Uiso   1.00
H231   H     0.15302   0.59693   0.23978   0.00000  Uiso   1.00
H232   H     0.34698   0.90307   0.09355   0.00000  Uiso   1.00
H233   H     0.09698   0.84693   0.23978   0.00000  Uiso   1.00
H234   H     0.09698   0.84693   0.09355   0.00000  Uiso   1.00
H235   H     0.40302   0.65307   0.23978   0.00000  Uiso   1.00
H236   H     0.09698   0.65307   0.23978   0.00000  Uiso   1.00
H237   H     0.40302   0.84693   0.09355   0.00000  Uiso   1.00
H238   H     0.40302   0.84693   0.23978   0.00000  Uiso   1.00
H239   H     0.09698   0.65307   0.09355   0.00000  Uiso   1.00
H240   H     0.15302   0.90307   0.09355   0.00000  Uiso   1.00
N241   N     0.00000   0.75000   0.28573   0.00000  Uiso   1.00
N242   N     0.00000   0.75000   0.04760   0.00000  Uiso   1.00
N243   N     0.25000   0.50000   0.28573   0.00000  Uiso   1.00
N244   N     0.25000   0.50000   0.04760   0.00000  Uiso   1.00
O245   O     0.04580   0.70419   0.20487   0.00000  Uiso   1.00
O246   O     0.20419   0.54581   0.12846   0.00000  Uiso   1.00
O247   O     0.20419   0.54581   0.20487   0.00000  Uiso   1.00
O248   O     0.29580   0.95419   0.12846   0.00000  Uiso   1.00
O249   O     0.20419   0.95419   0.12846   0.00000  Uiso   1.00
O250   O     0.29580   0.54581   0.20487   0.00000  Uiso   1.00
O251   O     0.29580   0.54581   0.12846   0.00000  Uiso   1.00
O252   O     0.20419   0.95419   0.20487   0.00000  Uiso   1.00
O253   O     0.45419   0.79581   0.12846   0.00000  Uiso   1.00
O254   O     0.45419   0.79581   0.20487   0.00000  Uiso   1.00
O255   O     0.04580   0.70419   0.12846   0.00000  Uiso   1.00
O256   O     0.45419   0.70419   0.12846   0.00000  Uiso   1.00
O257   O     0.04580   0.79581   0.20487   0.00000  Uiso   1.00
O258   O     0.04580   0.79581   0.12846   0.00000  Uiso   1.00
O259   O     0.45419   0.70419   0.20487   0.00000  Uiso   1.00
O260   O     0.29580   0.95419   0.20487   0.00000  Uiso   1.00
Zn261  Zn    0.00000   0.75000   0.21771   0.00000  Uiso   1.00
Zn262  Zn    0.00000   0.75000   0.11563   0.00000  Uiso   1.00
Zn263  Zn    0.25000   0.50000   0.21771   0.00000  Uiso   1.00
Zn264  Zn    0.25000   0.50000   0.11563   0.00000  Uiso   1.00
C265   C     0.55996   0.68998   0.16667   0.00000  Uiso   1.00
C266   C     0.50000   0.71081   0.30939   0.00000  Uiso   1.00
C267   C     0.50000   0.71081   0.02394   0.00000  Uiso   1.00
C268   C     0.50000   0.78918   0.30939   0.00000  Uiso   1.00
C269   C     0.75000   0.53919   0.02394   0.00000  Uiso   1.00
C270   C     0.75000   0.96082   0.30939   0.00000  Uiso   1.00
C271   C     0.75000   0.96082   0.02394   0.00000  Uiso   1.00
C272   C     0.75000   0.53919   0.30939   0.00000  Uiso   1.00
C273   C     0.89096   0.64096   0.12559   0.00000  Uiso   1.00
C274   C     0.60904   0.85904   0.20774   0.00000  Uiso   1.00
C275   C     0.60904   0.85904   0.12559   0.00000  Uiso   1.00
C276   C     0.94003   0.81002   0.16667   0.00000  Uiso   1.00
C277   C     0.89096   0.64096   0.20774   0.00000  Uiso   1.00
C278   C     0.60904   0.64096   0.20774   0.00000  Uiso   1.00
C279   C     0.89096   0.85904   0.12559   0.00000  Uiso   1.00
C280   C     0.89096   0.85904   0.20774   0.00000  Uiso   1.00
C281   C     0.60904   0.64096   0.12559   0.00000  Uiso   1.00
C282   C     0.64096   0.89096   0.12559   0.00000  Uiso   1.00
C283   C     0.85904   0.60904   0.20774   0.00000  Uiso   1.00
C284   C     0.85904   0.60904   0.12559   0.00000  Uiso   1.00
C285   C     0.64096   0.89096   0.20774   0.00000  Uiso   1.00
C286   C     0.85904   0.89096   0.20774   0.00000  Uiso   1.00
C287   C     0.94003   0.68998   0.16667   0.00000  Uiso   1.00
C288   C     0.64096   0.60904   0.12559   0.00000  Uiso   1.00
C289   C     0.64096   0.60904   0.20774   0.00000  Uiso   1.00
C290   C     0.85904   0.89096   0.12559   0.00000  Uiso   1.00
C291   C     0.59312   0.84315   0.16667   0.00000  Uiso   1.00
C292   C     0.90688   0.65685   0.16667   0.00000  Uiso   1.00
C293   C     0.90688   0.84315   0.16667   0.00000  Uiso   1.00
C294   C     0.59312   0.65685   0.16667   0.00000  Uiso   1.00
C295   C     0.84312   0.59315   0.16667   0.00000  Uiso   1.00
C296   C     0.65688   0.90685   0.16667   0.00000  Uiso   1.00
C297   C     0.65688   0.59315   0.16667   0.00000  Uiso   1.00
C298   C     0.55996   0.81002   0.16667   0.00000  Uiso   1.00
C299   C     0.84312   0.90685   0.16667   0.00000  Uiso   1.00
C300   C     0.80996   0.93998   0.16667   0.00000  Uiso   1.00
C301   C     0.69003   0.56002   0.16667   0.00000  Uiso   1.00
C302   C     0.69003   0.93998   0.16667   0.00000  Uiso   1.00
C303   C     0.80996   0.56002   0.16667   0.00000  Uiso   1.00
C304   C     0.50000   0.78918   0.02394   0.00000  Uiso   1.00
Cl305  Cl    0.50000   0.84024   0.05300   0.00000  Uiso   1.00
Cl306  Cl    0.50000   0.65976   0.28033   0.00000  Uiso   1.00
Cl307  Cl    0.50000   0.65976   0.05300   0.00000  Uiso   1.00
Cl308  Cl    0.50000   0.84024   0.28033   0.00000  Uiso   1.00
Cl309  Cl    0.75000   0.59024   0.05300   0.00000  Uiso   1.00
Cl310  Cl    0.75000   0.90976   0.28033   0.00000  Uiso   1.00
Cl311  Cl    0.75000   0.90976   0.05300   0.00000  Uiso   1.00
Cl312  Cl    0.75000   0.59024   0.28033   0.00000  Uiso   1.00
H313   H     0.90302   0.65307   0.09355   0.00000  Uiso   1.00
H314   H     0.84698   0.59693   0.23978   0.00000  Uiso   1.00
H315   H     0.84698   0.59693   0.09355   0.00000  Uiso   1.00
H316   H     0.65302   0.90307   0.23978   0.00000  Uiso   1.00
H317   H     0.84698   0.90307   0.23978   0.00000  Uiso   1.00
H318   H     0.65302   0.59693   0.09355   0.00000  Uiso   1.00
H319   H     0.65302   0.59693   0.23978   0.00000  Uiso   1.00
H320   H     0.84698   0.90307   0.09355   0.00000  Uiso   1.00
H321   H     0.59698   0.84693   0.23978   0.00000  Uiso   1.00
H322   H     0.59698   0.84693   0.09355   0.00000  Uiso   1.00
H323   H     0.90302   0.65307   0.23978   0.00000  Uiso   1.00
H324   H     0.59698   0.65307   0.23978   0.00000  Uiso   1.00
H325   H     0.90302   0.84693   0.09355   0.00000  Uiso   1.00
H326   H     0.90302   0.84693   0.23978   0.00000  Uiso   1.00
H327   H     0.59698   0.65307   0.09355   0.00000  Uiso   1.00
H328   H     0.65302   0.90307   0.09355   0.00000  Uiso   1.00
N329   N     0.50000   0.75000   0.28573   0.00000  Uiso   1.00
N330   N     0.50000   0.75000   0.04760   0.00000  Uiso   1.00
N331   N     0.75000   0.50000   0.28573   0.00000  Uiso   1.00
N332   N     0.75000   0.50000   0.04760   0.00000  Uiso   1.00
O333   O     0.54580   0.70419   0.20487   0.00000  Uiso   1.00
O334   O     0.70419   0.54581   0.12846   0.00000  Uiso   1.00
O335   O     0.70419   0.54581   0.20487   0.00000  Uiso   1.00
O336   O     0.79580   0.95419   0.12846   0.00000  Uiso   1.00
O337   O     0.70419   0.95419   0.12846   0.00000  Uiso   1.00
O338   O     0.79580   0.54581   0.20487   0.00000  Uiso   1.00
O339   O     0.79580   0.54581   0.12846   0.00000  Uiso   1.00
O340   O     0.70419   0.95419   0.20487   0.00000  Uiso   1.00
O341   O     0.95419   0.79581   0.12846   0.00000  Uiso   1.00
O342   O     0.95419   0.79581   0.20487   0.00000  Uiso   1.00
O343   O     0.54580   0.70419   0.12846   0.00000  Uiso   1.00
O344   O     0.95419   0.70419   0.12846   0.00000  Uiso   1.00
O345   O     0.54580   0.79581   0.20487   0.00000  Uiso   1.00
O346   O     0.54580   0.79581   0.12846   0.00000  Uiso   1.00
O347   O     0.95419   0.70419   0.20487   0.00000  Uiso   1.00
O348   O     0.79580   0.95419   0.20487   0.00000  Uiso   1.00
Zn349  Zn    0.50000   0.75000   0.21771   0.00000  Uiso   1.00
Zn350  Zn    0.50000   0.75000   0.11563   0.00000  Uiso   1.00
Zn351  Zn    0.75000   0.50000   0.21771   0.00000  Uiso   1.00
Zn352  Zn    0.75000   0.50000   0.11563   0.00000  Uiso   1.00
C353   C     0.05996   0.18998   0.50000   0.00000  Uiso   1.00
C354   C     0.00000   0.21081   0.64273   0.00000  Uiso   1.00
C355   C     0.00000   0.21081   0.35727   0.00000  Uiso   1.00
C356   C     0.00000   0.28918   0.64273   0.00000  Uiso   1.00
C357   C     0.25000   0.03919   0.35727   0.00000  Uiso   1.00
C358   C     0.25000   0.46082   0.64273   0.00000  Uiso   1.00
C359   C     0.25000   0.46082   0.35727   0.00000  Uiso   1.00
C360   C     0.25000   0.03919   0.64273   0.00000  Uiso   1.00
C361   C     0.39096   0.14096   0.45892   0.00000  Uiso   1.00
C362   C     0.10904   0.35904   0.54108   0.00000  Uiso   1.00
C363   C     0.10904   0.35904   0.45892   0.00000  Uiso   1.00
C364   C     0.44003   0.31002   0.50000   0.00000  Uiso   1.00
C365   C     0.39096   0.14096   0.54108   0.00000  Uiso   1.00
C366   C     0.10904   0.14096   0.54108   0.00000  Uiso   1.00
C367   C     0.39096   0.35904   0.45892   0.00000  Uiso   1.00
C368   C     0.39096   0.35904   0.54108   0.00000  Uiso   1.00
C369   C     0.10904   0.14096   0.45892   0.00000  Uiso   1.00
C370   C     0.14096   0.39096   0.45892   0.00000  Uiso   1.00
C371   C     0.35904   0.10904   0.54108   0.00000  Uiso   1.00
C372   C     0.35904   0.10904   0.45892   0.00000  Uiso   1.00
C373   C     0.14096   0.39096   0.54108   0.00000  Uiso   1.00
C374   C     0.35904   0.39096   0.54108   0.00000  Uiso   1.00
C375   C     0.44003   0.18998   0.50000   0.00000  Uiso   1.00
C376   C     0.14096   0.10904   0.45892   0.00000  Uiso   1.00
C377   C     0.14096   0.10904   0.54108   0.00000  Uiso   1.00
C378   C     0.35904   0.39096   0.45892   0.00000  Uiso   1.00
C379   C     0.09312   0.34315   0.50000   0.00000  Uiso   1.00
C380   C     0.40688   0.15685   0.50000   0.00000  Uiso   1.00
C381   C     0.40688   0.34315   0.50000   0.00000  Uiso   1.00
C382   C     0.09312   0.15685   0.50000   0.00000  Uiso   1.00
C383   C     0.34312   0.09315   0.50000   0.00000  Uiso   1.00
C384   C     0.15688   0.40685   0.50000   0.00000  Uiso   1.00
C385   C     0.15688   0.09315   0.50000   0.00000  Uiso   1.00
C386   C     0.05996   0.31002   0.50000   0.00000  Uiso   1.00
C387   C     0.34312   0.40685   0.50000   0.00000  Uiso   1.00
C388   C     0.30996   0.43998   0.50000   0.00000  Uiso   1.00
C389   C     0.19003   0.06002   0.50000   0.00000  Uiso   1.00
C390   C     0.19003   0.43998   0.50000   0.00000  Uiso   1.00
C391   C     0.30996   0.06002   0.50000   0.00000  Uiso   1.00
C392   C     0.00000   0.28918   0.35727   0.00000  Uiso   1.00
Cl393  Cl    0.00000   0.34024   0.38633   0.00000  Uiso   1.00
Cl394  Cl    0.00000   0.15976   0.61367   0.00000  Uiso   1.00
Cl395  Cl    0.00000   0.15976   0.38633   0.00000  Uiso   1.00
Cl396  Cl    0.00000   0.34024   0.61367   0.00000  Uiso   1.00
Cl397  Cl    0.25000   0.09024   0.38633   0.00000  Uiso   1.00
Cl398  Cl    0.25000   0.40976   0.61367   0.00000  Uiso   1.00
Cl399  Cl    0.25000   0.40976   0.38633   0.00000  Uiso   1.00
Cl400  Cl    0.25000   0.09024   0.61367   0.00000  Uiso   1.00
H401   H     0.40302   0.15307   0.42688   0.00000  Uiso   1.00
H402   H     0.34698   0.09693   0.57312   0.00000  Uiso   1.00
H403   H     0.34698   0.09693   0.42688   0.00000  Uiso   1.00
H404   H     0.15302   0.40307   0.57312   0.00000  Uiso   1.00
H405   H     0.34698   0.40307   0.57312   0.00000  Uiso   1.00
H406   H     0.15302   0.09693   0.42688   0.00000  Uiso   1.00
H407   H     0.15302   0.09693   0.57312   0.00000  Uiso   1.00
H408   H     0.34698   0.40307   0.42688   0.00000  Uiso   1.00
H409   H     0.09698   0.34693   0.57312   0.00000  Uiso   1.00
H410   H     0.09698   0.34693   0.42688   0.00000  Uiso   1.00
H411   H     0.40302   0.15307   0.57312   0.00000  Uiso   1.00
H412   H     0.09698   0.15307   0.57312   0.00000  Uiso   1.00
H413   H     0.40302   0.34693   0.42688   0.00000  Uiso   1.00
H414   H     0.40302   0.34693   0.57312   0.00000  Uiso   1.00
H415   H     0.09698   0.15307   0.42688   0.00000  Uiso   1.00
H416   H     0.15302   0.40307   0.42688   0.00000  Uiso   1.00
N417   N     0.00000   0.25000   0.61907   0.00000  Uiso   1.00
N418   N     0.00000   0.25000   0.38093   0.00000  Uiso   1.00
N419   N     0.25000   0.00000   0.61907   0.00000  Uiso   1.00
N420   N     0.25000   0.00000   0.38093   0.00000  Uiso   1.00
O421   O     0.04580   0.20419   0.53821   0.00000  Uiso   1.00
O422   O     0.20419   0.04581   0.46179   0.00000  Uiso   1.00
O423   O     0.20419   0.04581   0.53821   0.00000  Uiso   1.00
O424   O     0.29580   0.45419   0.46179   0.00000  Uiso   1.00
O425   O     0.20419   0.45419   0.46179   0.00000  Uiso   1.00
O426   O     0.29580   0.04581   0.53821   0.00000  Uiso   1.00
O427   O     0.29580   0.04581   0.46179   0.00000  Uiso   1.00
O428   O     0.20419   0.45419   0.53821   0.00000  Uiso   1.00
O429   O     0.45419   0.29581   0.46179   0.00000  Uiso   1.00
O430   O     0.45419   0.29581   0.53821   0.00000  Uiso   1.00
O431   O     0.04580   0.20419   0.46179   0.00000  Uiso   1.00
O432   O     0.45419   0.20419   0.46179   0.00000  Uiso   1.00
O433   O     0.04580   0.29581   0.53821   0.00000  Uiso   1.00
O434   O     0.04580   0.29581   0.46179   0.00000  Uiso   1.00
O435   O     0.45419   0.20419   0.53821   0.00000  Uiso   1.00
O436   O     0.29580   0.45419   0.53821   0.00000  Uiso   1.00
Zn437  Zn    0.00000   0.25000   0.55104   0.00000  Uiso   1.00
Zn438  Zn    0.00000   0.25000   0.44896   0.00000  Uiso   1.00
Zn439  Zn    0.25000   0.00000   0.55104   0.00000  Uiso   1.00
Zn440  Zn    0.25000   0.00000   0.44896   0.00000  Uiso   1.00
C441   C     0.55996   0.18998   0.50000   0.00000  Uiso   1.00
C442   C     0.50000   0.21081   0.64273   0.00000  Uiso   1.00
C443   C     0.50000   0.21081   0.35727   0.00000  Uiso   1.00
C444   C     0.50000   0.28918   0.64273   0.00000  Uiso   1.00
C445   C     0.75000   0.03919   0.35727   0.00000  Uiso   1.00
C446   C     0.75000   0.46082   0.64273   0.00000  Uiso   1.00
C447   C     0.75000   0.46082   0.35727   0.00000  Uiso   1.00
C448   C     0.75000   0.03919   0.64273   0.00000  Uiso   1.00
C449   C     0.89096   0.14096   0.45892   0.00000  Uiso   1.00
C450   C     0.60904   0.35904   0.54108   0.00000  Uiso   1.00
C451   C     0.60904   0.35904   0.45892   0.00000  Uiso   1.00
C452   C     0.94003   0.31002   0.50000   0.00000  Uiso   1.00
C453   C     0.89096   0.14096   0.54108   0.00000  Uiso   1.00
C454   C     0.60904   0.14096   0.54108   0.00000  Uiso   1.00
C455   C     0.89096   0.35904   0.45892   0.00000  Uiso   1.00
C456   C     0.89096   0.35904   0.54108   0.00000  Uiso   1.00
C457   C     0.60904   0.14096   0.45892   0.00000  Uiso   1.00
C458   C     0.64096   0.39096   0.45892   0.00000  Uiso   1.00
C459   C     0.85904   0.10904   0.54108   0.00000  Uiso   1.00
C460   C     0.85904   0.10904   0.45892   0.00000  Uiso   1.00
C461   C     0.64096   0.39096   0.54108   0.00000  Uiso   1.00
C462   C     0.85904   0.39096   0.54108   0.00000  Uiso   1.00
C463   C     0.94003   0.18998   0.50000   0.00000  Uiso   1.00
C464   C     0.64096   0.10904   0.45892   0.00000  Uiso   1.00
C465   C     0.64096   0.10904   0.54108   0.00000  Uiso   1.00
C466   C     0.85904   0.39096   0.45892   0.00000  Uiso   1.00
C467   C     0.59312   0.34315   0.50000   0.00000  Uiso   1.00
C468   C     0.90688   0.15685   0.50000   0.00000  Uiso   1.00
C469   C     0.90688   0.34315   0.50000   0.00000  Uiso   1.00
C470   C     0.59312   0.15685   0.50000   0.00000  Uiso   1.00
C471   C     0.84312   0.09315   0.50000   0.00000  Uiso   1.00
C472   C     0.65688   0.40685   0.50000   0.00000  Uiso   1.00
C473   C     0.65688   0.09315   0.50000   0.00000  Uiso   1.00
C474   C     0.55996   0.31002   0.50000   0.00000  Uiso   1.00
C475   C     0.84312   0.40685   0.50000   0.00000  Uiso   1.00
C476   C     0.80996   0.43998   0.50000   0.00000  Uiso   1.00
C477   C     0.69003   0.06002   0.50000   0.00000  Uiso   1.00
C478   C     0.69003   0.43998   0.50000   0.00000  Uiso   1.00
C479   C     0.80996   0.06002   0.50000   0.00000  Uiso   1.00
C480   C     0.50000   0.28918   0.35727   0.00000  Uiso   1.00
Cl481  Cl    0.50000   0.34024   0.38633   0.00000  Uiso   1.00
Cl482  Cl    0.50000   0.15976   0.61367   0.00000  Uiso   1.00
Cl483  Cl    0.50000   0.15976   0.38633   0.00000  Uiso   1.00
Cl484  Cl    0.50000   0.34024   0.61367   0.00000  Uiso   1.00
Cl485  Cl    0.75000   0.09024   0.38633   0.00000  Uiso   1.00
Cl486  Cl    0.75000   0.40976   0.61367   0.00000  Uiso   1.00
Cl487  Cl    0.75000   0.40976   0.38633   0.00000  Uiso   1.00
Cl488  Cl    0.75000   0.09024   0.61367   0.00000  Uiso   1.00
H489   H     0.90302   0.15307   0.42688   0.00000  Uiso   1.00
H490   H     0.84698   0.09693   0.57312   0.00000  Uiso   1.00
H491   H     0.84698   0.09693   0.42688   0.00000  Uiso   1.00
H492   H     0.65302   0.40307   0.57312   0.00000  Uiso   1.00
H493   H     0.84698   0.40307   0.57312   0.00000  Uiso   1.00
H494   H     0.65302   0.09693   0.42688   0.00000  Uiso   1.00
H495   H     0.65302   0.09693   0.57312   0.00000  Uiso   1.00
H496   H     0.84698   0.40307   0.42688   0.00000  Uiso   1.00
H497   H     0.59698   0.34693   0.57312   0.00000  Uiso   1.00
H498   H     0.59698   0.34693   0.42688   0.00000  Uiso   1.00
H499   H     0.90302   0.15307   0.57312   0.00000  Uiso   1.00
H500   H     0.59698   0.15307   0.57312   0.00000  Uiso   1.00
H501   H     0.90302   0.34693   0.42688   0.00000  Uiso   1.00
H502   H     0.90302   0.34693   0.57312   0.00000  Uiso   1.00
H503   H     0.59698   0.15307   0.42688   0.00000  Uiso   1.00
H504   H     0.65302   0.40307   0.42688   0.00000  Uiso   1.00
N505   N     0.50000   0.25000   0.61907   0.00000  Uiso   1.00
N506   N     0.50000   0.25000   0.38093   0.00000  Uiso   1.00
N507   N     0.75000   0.00000   0.61907   0.00000  Uiso   1.00
N508   N     0.75000   0.00000   0.38093   0.00000  Uiso   1.00
O509   O     0.54580   0.20419   0.53821   0.00000  Uiso   1.00
O510   O     0.70419   0.04581   0.46179   0.00000  Uiso   1.00
O511   O     0.70419   0.04581   0.53821   0.00000  Uiso   1.00
O512   O     0.79580   0.45419   0.46179   0.00000  Uiso   1.00
O513   O     0.70419   0.45419   0.46179   0.00000  Uiso   1.00
O514   O     0.79580   0.04581   0.53821   0.00000  Uiso   1.00
O515   O     0.79580   0.04581   0.46179   0.00000  Uiso   1.00
O516   O     0.70419   0.45419   0.53821   0.00000  Uiso   1.00
O517   O     0.95419   0.29581   0.46179   0.00000  Uiso   1.00
O518   O     0.95419   0.29581   0.53821   0.00000  Uiso   1.00
O519   O     0.54580   0.20419   0.46179   0.00000  Uiso   1.00
O520   O     0.95419   0.20419   0.46179   0.00000  Uiso   1.00
O521   O     0.54580   0.29581   0.53821   0.00000  Uiso   1.00
O522   O     0.54580   0.29581   0.46179   0.00000  Uiso   1.00
O523   O     0.95419   0.20419   0.53821   0.00000  Uiso   1.00
O524   O     0.79580   0.45419   0.53821   0.00000  Uiso   1.00
Zn525  Zn    0.50000   0.25000   0.55104   0.00000  Uiso   1.00
Zn526  Zn    0.50000   0.25000   0.44896   0.00000  Uiso   1.00
Zn527  Zn    0.75000   0.00000   0.55104   0.00000  Uiso   1.00
Zn528  Zn    0.75000   0.00000   0.44896   0.00000  Uiso   1.00
C529   C     0.05996   0.68998   0.50000   0.00000  Uiso   1.00
C530   C     0.00000   0.71081   0.64273   0.00000  Uiso   1.00
C531   C     0.00000   0.71081   0.35727   0.00000  Uiso   1.00
C532   C     0.00000   0.78918   0.64273   0.00000  Uiso   1.00
C533   C     0.25000   0.53919   0.35727   0.00000  Uiso   1.00
C534   C     0.25000   0.96082   0.64273   0.00000  Uiso   1.00
C535   C     0.25000   0.96082   0.35727   0.00000  Uiso   1.00
C536   C     0.25000   0.53919   0.64273   0.00000  Uiso   1.00
C537   C     0.39096   0.64096   0.45892   0.00000  Uiso   1.00
C538   C     0.10904   0.85904   0.54108   0.00000  Uiso   1.00
C539   C     0.10904   0.85904   0.45892   0.00000  Uiso   1.00
C540   C     0.44003   0.81002   0.50000   0.00000  Uiso   1.00
C541   C     0.39096   0.64096   0.54108   0.00000  Uiso   1.00
C542   C     0.10904   0.64096   0.54108   0.00000  Uiso   1.00
C543   C     0.39096   0.85904   0.45892   0.00000  Uiso   1.00
C544   C     0.39096   0.85904   0.54108   0.00000  Uiso   1.00
C545   C     0.10904   0.64096   0.45892   0.00000  Uiso   1.00
C546   C     0.14096   0.89096   0.45892   0.00000  Uiso   1.00
C547   C     0.35904   0.60904   0.54108   0.00000  Uiso   1.00
C548   C     0.35904   0.60904   0.45892   0.00000  Uiso   1.00
C549   C     0.14096   0.89096   0.54108   0.00000  Uiso   1.00
C550   C     0.35904   0.89096   0.54108   0.00000  Uiso   1.00
C551   C     0.44003   0.68998   0.50000   0.00000  Uiso   1.00
C552   C     0.14096   0.60904   0.45892   0.00000  Uiso   1.00
C553   C     0.14096   0.60904   0.54108   0.00000  Uiso   1.00
C554   C     0.35904   0.89096   0.45892   0.00000  Uiso   1.00
C555   C     0.09312   0.84315   0.50000   0.00000  Uiso   1.00
C556   C     0.40688   0.65685   0.50000   0.00000  Uiso   1.00
C557   C     0.40688   0.84315   0.50000   0.00000  Uiso   1.00
C558   C     0.09312   0.65685   0.50000   0.00000  Uiso   1.00
C559   C     0.34312   0.59315   0.50000   0.00000  Uiso   1.00
C560   C     0.15688   0.90685   0.50000   0.00000  Uiso   1.00
C561   C     0.15688   0.59315   0.50000   0.00000  Uiso   1.00
C562   C     0.05996   0.81002   0.50000   0.00000  Uiso   1.00
C563   C     0.34312   0.90685   0.50000   0.00000  Uiso   1.00
C564   C     0.30996   0.93998   0.50000   0.00000  Uiso   1.00
C565   C     0.19003   0.56002   0.50000   0.00000  Uiso   1.00
C566   C     0.19003   0.93998   0.50000   0.00000  Uiso   1.00
C567   C     0.30996   0.56002   0.50000   0.00000  Uiso   1.00
C568   C     0.00000   0.78918   0.35727   0.00000  Uiso   1.00
Cl569  Cl    0.00000   0.84024   0.38633   0.00000  Uiso   1.00
Cl570  Cl    0.00000   0.65976   0.61367   0.00000  Uiso   1.00
Cl571  Cl    0.00000   0.65976   0.38633   0.00000  Uiso   1.00
Cl572  Cl    0.00000   0.84024   0.61367   0.00000  Uiso   1.00
Cl573  Cl    0.25000   0.59024   0.38633   0.00000  Uiso   1.00
Cl574  Cl    0.25000   0.90976   0.61367   0.00000  Uiso   1.00
Cl575  Cl    0.25000   0.90976   0.38633   0.00000  Uiso   1.00
Cl576  Cl    0.25000   0.59024   0.61367   0.00000  Uiso   1.00
H577   H     0.40302   0.65307   0.42688   0.00000  Uiso   1.00
H578   H     0.34698   0.59693   0.57312   0.00000  Uiso   1.00
H579   H     0.34698   0.59693   0.42688   0.00000  Uiso   1.00
H580   H     0.15302   0.90307   0.57312   0.00000  Uiso   1.00
H581   H     0.34698   0.90307   0.57312   0.00000  Uiso   1.00
H582   H     0.15302   0.59693   0.42688   0.00000  Uiso   1.00
H583   H     0.15302   0.59693   0.57312   0.00000  Uiso   1.00
H584   H     0.34698   0.90307   0.42688   0.00000  Uiso   1.00
H585   H     0.09698   0.84693   0.57312   0.00000  Uiso   1.00
H586   H     0.09698   0.84693   0.42688   0.00000  Uiso   1.00
H587   H     0.40302   0.65307   0.57312   0.00000  Uiso   1.00
H588   H     0.09698   0.65307   0.57312   0.00000  Uiso   1.00
H589   H     0.40302   0.84693   0.42688   0.00000  Uiso   1.00
H590   H     0.40302   0.84693   0.57312   0.00000  Uiso   1.00
H591   H     0.09698   0.65307   0.42688   0.00000  Uiso   1.00
H592   H     0.15302   0.90307   0.42688   0.00000  Uiso   1.00
N593   N     0.00000   0.75000   0.61907   0.00000  Uiso   1.00
N594   N     0.00000   0.75000   0.38093   0.00000  Uiso   1.00
N595   N     0.25000   0.50000   0.61907   0.00000  Uiso   1.00
N596   N     0.25000   0.50000   0.38093   0.00000  Uiso   1.00
O597   O     0.04580   0.70419   0.53821   0.00000  Uiso   1.00
O598   O     0.20419   0.54581   0.46179   0.00000  Uiso   1.00
O599   O     0.20419   0.54581   0.53821   0.00000  Uiso   1.00
O600   O     0.29580   0.95419   0.46179   0.00000  Uiso   1.00
O601   O     0.20419   0.95419   0.46179   0.00000  Uiso   1.00
O602   O     0.29580   0.54581   0.53821   0.00000  Uiso   1.00
O603   O     0.29580   0.54581   0.46179   0.00000  Uiso   1.00
O604   O     0.20419   0.95419   0.53821   0.00000  Uiso   1.00
O605   O     0.45419   0.79581   0.46179   0.00000  Uiso   1.00
O606   O     0.45419   0.79581   0.53821   0.00000  Uiso   1.00
O607   O     0.04580   0.70419   0.46179   0.00000  Uiso   1.00
O608   O     0.45419   0.70419   0.46179   0.00000  Uiso   1.00
O609   O     0.04580   0.79581   0.53821   0.00000  Uiso   1.00
O610   O     0.04580   0.79581   0.46179   0.00000  Uiso   1.00
O611   O     0.45419   0.70419   0.53821   0.00000  Uiso   1.00
O612   O     0.29580   0.95419   0.53821   0.00000  Uiso   1.00
Zn613  Zn    0.00000   0.75000   0.55104   0.00000  Uiso   1.00
Zn614  Zn    0.00000   0.75000   0.44896   0.00000  Uiso   1.00
Zn615  Zn    0.25000   0.50000   0.55104   0.00000  Uiso   1.00
Zn616  Zn    0.25000   0.50000   0.44896   0.00000  Uiso   1.00
C617   C     0.55996   0.68998   0.50000   0.00000  Uiso   1.00
C618   C     0.50000   0.71081   0.64273   0.00000  Uiso   1.00
C619   C     0.50000   0.71081   0.35727   0.00000  Uiso   1.00
C620   C     0.50000   0.78918   0.64273   0.00000  Uiso   1.00
C621   C     0.75000   0.53919   0.35727   0.00000  Uiso   1.00
C622   C     0.75000   0.96082   0.64273   0.00000  Uiso   1.00
C623   C     0.75000   0.96082   0.35727   0.00000  Uiso   1.00
C624   C     0.75000   0.53919   0.64273   0.00000  Uiso   1.00
C625   C     0.89096   0.64096   0.45892   0.00000  Uiso   1.00
C626   C     0.60904   0.85904   0.54108   0.00000  Uiso   1.00
C627   C     0.60904   0.85904   0.45892   0.00000  Uiso   1.00
C628   C     0.94003   0.81002   0.50000   0.00000  Uiso   1.00
C629   C     0.89096   0.64096   0.54108   0.00000  Uiso   1.00
C630   C     0.60904   0.64096   0.54108   0.00000  Uiso   1.00
C631   C     0.89096   0.85904   0.45892   0.00000  Uiso   1.00
C632   C     0.89096   0.85904   0.54108   0.00000  Uiso   1.00
C633   C     0.60904   0.64096   0.45892   0.00000  Uiso   1.00
C634   C     0.64096   0.89096   0.45892   0.00000  Uiso   1.00
C635   C     0.85904   0.60904   0.54108   0.00000  Uiso   1.00
C636   C     0.85904   0.60904   0.45892   0.00000  Uiso   1.00
C637   C     0.64096   0.89096   0.54108   0.00000  Uiso   1.00
C638   C     0.85904   0.89096   0.54108   0.00000  Uiso   1.00
C639   C     0.94003   0.68998   0.50000   0.00000  Uiso   1.00
C640   C     0.64096   0.60904   0.45892   0.00000  Uiso   1.00
C641   C     0.64096   0.60904   0.54108   0.00000  Uiso   1.00
C642   C     0.85904   0.89096   0.45892   0.00000  Uiso   1.00
C643   C     0.59312   0.84315   0.50000   0.00000  Uiso   1.00
C644   C     0.90688   0.65685   0.50000   0.00000  Uiso   1.00
C645   C     0.90688   0.84315   0.50000   0.00000  Uiso   1.00
C646   C     0.59312   0.65685   0.50000   0.00000  Uiso   1.00
C647   C     0.84312   0.59315   0.50000   0.00000  Uiso   1.00
C648   C     0.65688   0.90685   0.50000   0.00000  Uiso   1.00
C649   C     0.65688   0.59315   0.50000   0.00000  Uiso   1.00
C650   C     0.55996   0.81002   0.50000   0.00000  Uiso   1.00
C651   C     0.84312   0.90685   0.50000   0.00000  Uiso   1.00
C652   C     0.80996   0.93998   0.50000   0.00000  Uiso   1.00
C653   C     0.69003   0.56002   0.50000   0.00000  Uiso   1.00
C654   C     0.69003   0.93998   0.50000   0.00000  Uiso   1.00
C655   C     0.80996   0.56002   0.50000   0.00000  Uiso   1.00
C656   C     0.50000   0.78918   0.35727   0.00000  Uiso   1.00
Cl657  Cl    0.50000   0.84024   0.38633   0.00000  Uiso   1.00
Cl658  Cl    0.50000   0.65976   0.61367   0.00000  Uiso   1.00
Cl659  Cl    0.50000   0.65976   0.38633   0.00000  Uiso   1.00
Cl660  Cl    0.50000   0.84024   0.61367   0.00000  Uiso   1.00
Cl661  Cl    0.75000   0.59024   0.38633   0.00000  Uiso   1.00
Cl662  Cl    0.75000   0.90976   0.61367   0.00000  Uiso   1.00
Cl663  Cl    0.75000   0.90976   0.38633   0.00000  Uiso   1.00
Cl664  Cl    0.75000   0.59024   0.61367   0.00000  Uiso   1.00
H665   H     0.90302   0.65307   0.42688   0.00000  Uiso   1.00
H666   H     0.84698   0.59693   0.57312   0.00000  Uiso   1.00
H667   H     0.84698   0.59693   0.42688   0.00000  Uiso   1.00
H668   H     0.65302   0.90307   0.57312   0.00000  Uiso   1.00
H669   H     0.84698   0.90307   0.57312   0.00000  Uiso   1.00
H670   H     0.65302   0.59693   0.42688   0.00000  Uiso   1.00
H671   H     0.65302   0.59693   0.57312   0.00000  Uiso   1.00
H672   H     0.84698   0.90307   0.42688   0.00000  Uiso   1.00
H673   H     0.59698   0.84693   0.57312   0.00000  Uiso   1.00
H674   H     0.59698   0.84693   0.42688   0.00000  Uiso   1.00
H675   H     0.90302   0.65307   0.57312   0.00000  Uiso   1.00
H676   H     0.59698   0.65307   0.57312   0.00000  Uiso   1.00
H677   H     0.90302   0.84693   0.42688   0.00000  Uiso   1.00
H678   H     0.90302   0.84693   0.57312   0.00000  Uiso   1.00
H679   H     0.59698   0.65307   0.42688   0.00000  Uiso   1.00
H680   H     0.65302   0.90307   0.42688   0.00000  Uiso   1.00
N681   N     0.50000   0.75000   0.61907   0.00000  Uiso   1.00
N682   N     0.50000   0.75000   0.38093   0.00000  Uiso   1.00
N683   N     0.75000   0.50000   0.61907   0.00000  Uiso   1.00
N684   N     0.75000   0.50000   0.38093   0.00000  Uiso   1.00
O685   O     0.54580   0.70419   0.53821   0.00000  Uiso   1.00
O686   O     0.70419   0.54581   0.46179   0.00000  Uiso   1.00
O687   O     0.70419   0.54581   0.53821   0.00000  Uiso   1.00
O688   O     0.79580   0.95419   0.46179   0.00000  Uiso   1.00
O689   O     0.70419   0.95419   0.46179   0.00000  Uiso   1.00
O690   O     0.79580   0.54581   0.53821   0.00000  Uiso   1.00
O691   O     0.79580   0.54581   0.46179   0.00000  Uiso   1.00
O692   O     0.70419   0.95419   0.53821   0.00000  Uiso   1.00
O693   O     0.95419   0.79581   0.46179   0.00000  Uiso   1.00
O694   O     0.95419   0.79581   0.53821   0.00000  Uiso   1.00
O695   O     0.54580   0.70419   0.46179   0.00000  Uiso   1.00
O696   O     0.95419   0.70419   0.46179   0.00000  Uiso   1.00
O697   O     0.54580   0.79581   0.53821   0.00000  Uiso   1.00
O698   O     0.54580   0.79581   0.46179   0.00000  Uiso   1.00
O699   O     0.95419   0.70419   0.53821   0.00000  Uiso   1.00
O700   O     0.79580   0.95419   0.53821   0.00000  Uiso   1.00
Zn701  Zn    0.50000   0.75000   0.55104   0.00000  Uiso   1.00
Zn702  Zn    0.50000   0.75000   0.44896   0.00000  Uiso   1.00
Zn703  Zn    0.75000   0.50000   0.55104   0.00000  Uiso   1.00
Zn704  Zn    0.75000   0.50000   0.44896   0.00000  Uiso   1.00
C705   C     0.05996   0.18998   0.83333   0.00000  Uiso   1.00
C706   C     0.00000   0.21081   0.97606   0.00000  Uiso   1.00
C707   C     0.00000   0.21081   0.69061   0.00000  Uiso   1.00
C708   C     0.00000   0.28918   0.97606   0.00000  Uiso   1.00
C709   C     0.25000   0.03919   0.69061   0.00000  Uiso   1.00
C710   C     0.25000   0.46082   0.97606   0.00000  Uiso   1.00
C711   C     0.25000   0.46082   0.69061   0.00000  Uiso   1.00
C712   C     0.25000   0.03919   0.97606   0.00000  Uiso   1.00
C713   C     0.39096   0.14096   0.79226   0.00000  Uiso   1.00
C714   C     0.10904   0.35904   0.87441   0.00000  Uiso   1.00
C715   C     0.10904   0.35904   0.79226   0.00000  Uiso   1.00
C716   C     0.44003   0.31002   0.83333   0.00000  Uiso   1.00
C717   C     0.39096   0.14096   0.87441   0.00000  Uiso   1.00
C718   C     0.10904   0.14096   0.87441   0.00000  Uiso   1.00
C719   C     0.39096   0.35904   0.79226   0.00000  Uiso   1.00
C720   C     0.39096   0.35904   0.87441   0.00000  Uiso   1.00
C721   C     0.10904   0.14096   0.79226   0.00000  Uiso   1.00
C722   C     0.14096   0.39096   0.79226   0.00000  Uiso   1.00
C723   C     0.35904   0.10904   0.87441   0.00000  Uiso   1.00
C724   C     0.35904   0.10904   0.79226   0.00000  Uiso   1.00
C725   C     0.14096   0.39096   0.87441   0.00000  Uiso   1.00
C726   C     0.35904   0.39096   0.87441   0.00000  Uiso   1.00
C727   C     0.44003   0.18998   0.83333   0.00000  Uiso   1.00
C728   C     0.14096   0.10904   0.79226   0.00000  Uiso   1.00
C729   C     0.14096   0.10904   0.87441   0.00000  Uiso   1.00
C730   C     0.35904   0.39096   0.79226   0.00000  Uiso   1.00
C731   C     0.09312   0.34315   0.83333   0.00000  Uiso   1.00
C732   C     0.40688   0.15685   0.83333   0.00000  Uiso   1.00
C733   C     0.40688   0.34315   0.83333   0.00000  Uiso   1.00
C734   C     0.09312   0.15685   0.83333   0.00000  Uiso   1.00
C735   C     0.34312   0.09315   0.83333   0.00000  Uiso   1.00
C736   C     0.15688   0.40685   0.83333   0.00000  Uiso   1.00
C737   C     0.15688   0.09315   0.83333   0.00000  Uiso   1.00
C738   C     0.05996   0.31002   0.83333   0.00000  Uiso   1.00
C739   C     0.34312   0.40685   0.83333   0.00000  Uiso   1.00
C740   C     0.30996   0.43998   0.83333   0.00000  Uiso   1.00
C741   C     0.19003   0.06002   0.83333   0.00000  Uiso   1.00
C742   C     0.19003   0.43998   0.83333   0.00000  Uiso   1.00
C743   C     0.30996   0.06002   0.83333   0.00000  Uiso   1.00
C744   C     0.00000   0.28918   0.69061   0.00000  Uiso   1.00
Cl745  Cl    0.00000   0.34024   0.71967   0.00000  Uiso   1.00
Cl746  Cl    0.00000   0.15976   0.94700   0.00000  Uiso   1.00
Cl747  Cl    0.00000   0.15976   0.71967   0.00000  Uiso   1.00
Cl748  Cl    0.00000   0.34024   0.94700   0.00000  Uiso   1.00
Cl749  Cl    0.25000   0.09024   0.71967   0.00000  Uiso   1.00
Cl750  Cl    0.25000   0.40976   0.94700   0.00000  Uiso   1.00
Cl751  Cl    0.25000   0.40976   0.71967   0.00000  Uiso   1.00
Cl752  Cl    0.25000   0.09024   0.94700   0.00000  Uiso   1.00
H753   H     0.40302   0.15307   0.76022   0.00000  Uiso   1.00
H754   H     0.34698   0.09693   0.90645   0.00000  Uiso   1.00
H755   H     0.34698   0.09693   0.76022   0.00000  Uiso   1.00
H756   H     0.15302   0.40307   0.90645   0.00000  Uiso   1.00
H757   H     0.34698   0.40307   0.90645   0.00000  Uiso   1.00
H758   H     0.15302   0.09693   0.76022   0.00000  Uiso   1.00
H759   H     0.15302   0.09693   0.90645   0.00000  Uiso   1.00
H760   H     0.34698   0.40307   0.76022   0.00000  Uiso   1.00
H761   H     0.09698   0.34693   0.90645   0.00000  Uiso   1.00
H762   H     0.09698   0.34693   0.76022   0.00000  Uiso   1.00
H763   H     0.40302   0.15307   0.90645   0.00000  Uiso   1.00
H764   H     0.09698   0.15307   0.90645   0.00000  Uiso   1.00
H765   H     0.40302   0.34693   0.76022   0.00000  Uiso   1.00
H766   H     0.40302   0.34693   0.90645   0.00000  Uiso   1.00
H767   H     0.09698   0.15307   0.76022   0.00000  Uiso   1.00
H768   H     0.15302   0.40307   0.76022   0.00000  Uiso   1.00
N769   N     0.00000   0.25000   0.95240   0.00000  Uiso   1.00
N770   N     0.00000   0.25000   0.71427   0.00000  Uiso   1.00
N771   N     0.25000   0.00000   0.95240   0.00000  Uiso   1.00
N772   N     0.25000   0.00000   0.71427   0.00000  Uiso   1.00
O773   O     0.04580   0.20419   0.87154   0.00000  Uiso   1.00
O774   O     0.20419   0.04581   0.79513   0.00000  Uiso   1.00
O775   O     0.20419   0.04581   0.87154   0.00000  Uiso   1.00
O776   O     0.29580   0.45419   0.79513   0.00000  Uiso   1.00
O777   O     0.20419   0.45419   0.79513   0.00000  Uiso   1.00
O778   O     0.29580   0.04581   0.87154   0.00000  Uiso   1.00
O779   O     0.29580   0.04581   0.79513   0.00000  Uiso   1.00
O780   O     0.20419   0.45419   0.87154   0.00000  Uiso   1.00
O781   O     0.45419   0.29581   0.79513   0.00000  Uiso   1.00
O782   O     0.45419   0.29581   0.87154   0.00000  Uiso   1.00
O783   O     0.04580   0.20419   0.79513   0.00000  Uiso   1.00
O784   O     0.45419   0.20419   0.79513   0.00000  Uiso   1.00
O785   O     0.04580   0.29581   0.87154   0.00000  Uiso   1.00
O786   O     0.04580   0.29581   0.79513   0.00000  Uiso   1.00
O787   O     0.45419   0.20419   0.87154   0.00000  Uiso   1.00
O788   O     0.29580   0.45419   0.87154   0.00000  Uiso   1.00
Zn789  Zn    0.00000   0.25000   0.88437   0.00000  Uiso   1.00
Zn790  Zn    0.00000   0.25000   0.78229   0.00000  Uiso   1.00
Zn791  Zn    0.25000   0.00000   0.88437   0.00000  Uiso   1.00
Zn792  Zn    0.25000   0.00000   0.78229   0.00000  Uiso   1.00
C793   C     0.55996   0.18998   0.83333   0.00000  Uiso   1.00
C794   C     0.50000   0.21081   0.97606   0.00000  Uiso   1.00
C795   C     0.50000   0.21081   0.69061   0.00000  Uiso   1.00
C796   C     0.50000   0.28918   0.97606   0.00000  Uiso   1.00
C797   C     0.75000   0.03919   0.69061   0.00000  Uiso   1.00
C798   C     0.75000   0.46082   0.97606   0.00000  Uiso   1.00
C799   C     0.75000   0.46082   0.69061   0.00000  Uiso   1.00
C800   C     0.75000   0.03919   0.97606   0.00000  Uiso   1.00
C801   C     0.89096   0.14096   0.79226   0.00000  Uiso   1.00
C802   C     0.60904   0.35904   0.87441   0.00000  Uiso   1.00
C803   C     0.60904   0.35904   0.79226   0.00000  Uiso   1.00
C804   C     0.94003   0.31002   0.83333   0.00000  Uiso   1.00
C805   C     0.89096   0.14096   0.87441   0.00000  Uiso   1.00
C806   C     0.60904   0.14096   0.87441   0.00000  Uiso   1.00
C807   C     0.89096   0.35904   0.79226   0.00000  Uiso   1.00
C808   C     0.89096   0.35904   0.87441   0.00000  Uiso   1.00
C809   C     0.60904   0.14096   0.79226   0.00000  Uiso   1.00
C810   C     0.64096   0.39096   0.79226   0.00000  Uiso   1.00
C811   C     0.85904   0.10904   0.87441   0.00000  Uiso   1.00
C812   C     0.85904   0.10904   0.79226   0.00000  Uiso   1.00
C813   C     0.64096   0.39096   0.87441   0.00000  Uiso   1.00
C814   C     0.85904   0.39096   0.87441   0.00000  Uiso   1.00
C815   C     0.94003   0.18998   0.83333   0.00000  Uiso   1.00
C816   C     0.64096   0.10904   0.79226   0.00000  Uiso   1.00
C817   C     0.64096   0.10904   0.87441   0.00000  Uiso   1.00
C818   C     0.85904   0.39096   0.79226   0.00000  Uiso   1.00
C819   C     0.59312   0.34315   0.83333   0.00000  Uiso   1.00
C820   C     0.90688   0.15685   0.83333   0.00000  Uiso   1.00
C821   C     0.90688   0.34315   0.83333   0.00000  Uiso   1.00
C822   C     0.59312   0.15685   0.83333   0.00000  Uiso   1.00
C823   C     0.84312   0.09315   0.83333   0.00000  Uiso   1.00
C824   C     0.65688   0.40685   0.83333   0.00000  Uiso   1.00
C825   C     0.65688   0.09315   0.83333   0.00000  Uiso   1.00
C826   C     0.55996   0.31002   0.83333   0.00000  Uiso   1.00
C827   C     0.84312   0.40685   0.83333   0.00000  Uiso   1.00
C828   C     0.80996   0.43998   0.83333   0.00000  Uiso   1.00
C829   C     0.69003   0.06002   0.83333   0.00000  Uiso   1.00
C830   C     0.69003   0.43998   0.83333   0.00000  Uiso   1.00
C831   C     0.80996   0.06002   0.83333   0.00000  Uiso   1.00
C832   C     0.50000   0.28918   0.69061   0.00000  Uiso   1.00
Cl833  Cl    0.50000   0.34024   0.71967   0.00000  Uiso   1.00
Cl834  Cl    0.50000   0.15976   0.94700   0.00000  Uiso   1.00
Cl835  Cl    0.50000   0.15976   0.71967   0.00000  Uiso   1.00
Cl836  Cl    0.50000   0.34024   0.94700   0.00000  Uiso   1.00
Cl837  Cl    0.75000   0.09024   0.71967   0.00000  Uiso   1.00
Cl838  Cl    0.75000   0.40976   0.94700   0.00000  Uiso   1.00
Cl839  Cl    0.75000   0.40976   0.71967   0.00000  Uiso   1.00
Cl840  Cl    0.75000   0.09024   0.94700   0.00000  Uiso   1.00
H841   H     0.90302   0.15307   0.76022   0.00000  Uiso   1.00
H842   H     0.84698   0.09693   0.90645   0.00000  Uiso   1.00
H843   H     0.84698   0.09693   0.76022   0.00000  Uiso   1.00
H844   H     0.65302   0.40307   0.90645   0.00000  Uiso   1.00
H845   H     0.84698   0.40307   0.90645   0.00000  Uiso   1.00
H846   H     0.65302   0.09693   0.76022   0.00000  Uiso   1.00
H847   H     0.65302   0.09693   0.90645   0.00000  Uiso   1.00
H848   H     0.84698   0.40307   0.76022   0.00000  Uiso   1.00
H849   H     0.59698   0.34693   0.90645   0.00000  Uiso   1.00
H850   H     0.59698   0.34693   0.76022   0.00000  Uiso   1.00
H851   H     0.90302   0.15307   0.90645   0.00000  Uiso   1.00
H852   H     0.59698   0.15307   0.90645   0.00000  Uiso   1.00
H853   H     0.90302   0.34693   0.76022   0.00000  Uiso   1.00
H854   H     0.90302   0.34693   0.90645   0.00000  Uiso   1.00
H855   H     0.59698   0.15307   0.76022   0.00000  Uiso   1.00
H856   H     0.65302   0.40307   0.76022   0.00000  Uiso   1.00
N857   N     0.50000   0.25000   0.95240   0.00000  Uiso   1.00
N858   N     0.50000   0.25000   0.71427   0.00000  Uiso   1.00
N859   N     0.75000   0.00000   0.95240   0.00000  Uiso   1.00
N860   N     0.75000   0.00000   0.71427   0.00000  Uiso   1.00
O861   O     0.54580   0.20419   0.87154   0.00000  Uiso   1.00
O862   O     0.70419   0.04581   0.79513   0.00000  Uiso   1.00
O863   O     0.70419   0.04581   0.87154   0.00000  Uiso   1.00
O864   O     0.79580   0.45419   0.79513   0.00000  Uiso   1.00
O865   O     0.70419   0.45419   0.79513   0.00000  Uiso   1.00
O866   O     0.79580   0.04581   0.87154   0.00000  Uiso   1.00
O867   O     0.79580   0.04581   0.79513   0.00000  Uiso   1.00
O868   O     0.70419   0.45419   0.87154   0.00000  Uiso   1.00
O869   O     0.95419   0.29581   0.79513   0.00000  Uiso   1.00
O870   O     0.95419   0.29581   0.87154   0.00000  Uiso   1.00
O871   O     0.54580   0.20419   0.79513   0.00000  Uiso   1.00
O872   O     0.95419   0.20419   0.79513   0.00000  Uiso   1.00
O873   O     0.54580   0.29581   0.87154   0.00000  Uiso   1.00
O874   O     0.54580   0.29581   0.79513   0.00000  Uiso   1.00
O875   O     0.95419   0.20419   0.87154   0.00000  Uiso   1.00
O876   O     0.79580   0.45419   0.87154   0.00000  Uiso   1.00
Zn877  Zn    0.50000   0.25000   0.88437   0.00000  Uiso   1.00
Zn878  Zn    0.50000   0.25000   0.78229   0.00000  Uiso   1.00
Zn879  Zn    0.75000   0.00000   0.88437   0.00000  Uiso   1.00
Zn880  Zn    0.75000   0.00000   0.78229   0.00000  Uiso   1.00
C881   C     0.05996   0.68998   0.83333   0.00000  Uiso   1.00
C882   C     0.00000   0.71081   0.97606   0.00000  Uiso   1.00
C883   C     0.00000   0.71081   0.69061   0.00000  Uiso   1.00
C884   C     0.00000   0.78918   0.97606   0.00000  Uiso   1.00
C885   C     0.25000   0.53919   0.69061   0.00000  Uiso   1.00
C886   C     0.25000   0.96082   0.97606   0.00000  Uiso   1.00
C887   C     0.25000   0.96082   0.69061   0.00000  Uiso   1.00
C888   C     0.25000   0.53919   0.97606   0.00000  Uiso   1.00
C889   C     0.39096   0.64096   0.79226   0.00000  Uiso   1.00
C890   C     0.10904   0.85904   0.87441   0.00000  Uiso   1.00
C891   C     0.10904   0.85904   0.79226   0.00000  Uiso   1.00
C892   C     0.44003   0.81002   0.83333   0.00000  Uiso   1.00
C893   C     0.39096   0.64096   0.87441   0.00000  Uiso   1.00
C894   C     0.10904   0.64096   0.87441   0.00000  Uiso   1.00
C895   C     0.39096   0.85904   0.79226   0.00000  Uiso   1.00
C896   C     0.39096   0.85904   0.87441   0.00000  Uiso   1.00
C897   C     0.10904   0.64096   0.79226   0.00000  Uiso   1.00
C898   C     0.14096   0.89096   0.79226   0.00000  Uiso   1.00
C899   C     0.35904   0.60904   0.87441   0.00000  Uiso   1.00
C900   C     0.35904   0.60904   0.79226   0.00000  Uiso   1.00
C901   C     0.14096   0.89096   0.87441   0.00000  Uiso   1.00
C902   C     0.35904   0.89096   0.87441   0.00000  Uiso   1.00
C903   C     0.44003   0.68998   0.83333   0.00000  Uiso   1.00
C904   C     0.14096   0.60904   0.79226   0.00000  Uiso   1.00
C905   C     0.14096   0.60904   0.87441   0.00000  Uiso   1.00
C906   C     0.35904   0.89096   0.79226   0.00000  Uiso   1.00
C907   C     0.09312   0.84315   0.83333   0.00000  Uiso   1.00
C908   C     0.40688   0.65685   0.83333   0.00000  Uiso   1.00
C909   C     0.40688   0.84315   0.83333   0.00000  Uiso   1.00
C910   C     0.09312   0.65685   0.83333   0.00000  Uiso   1.00
C911   C     0.34312   0.59315   0.83333   0.00000  Uiso   1.00
C912   C     0.15688   0.90685   0.83333   0.00000  Uiso   1.00
C913   C     0.15688   0.59315   0.83333   0.00000  Uiso   1.00
C914   C     0.05996   0.81002   0.83333   0.00000  Uiso   1.00
C915   C     0.34312   0.90685   0.83333   0.00000  Uiso   1.00
C916   C     0.30996   0.93998   0.83333   0.00000  Uiso   1.00
C917   C     0.19003   0.56002   0.83333   0.00000  Uiso   1.00
C918   C     0.19003   0.93998   0.83333   0.00000  Uiso   1.00
C919   C     0.30996   0.56002   0.83333   0.00000  Uiso   1.00
C920   C     0.00000   0.78918   0.69061   0.00000  Uiso   1.00
Cl921  Cl    0.00000   0.84024   0.71967   0.00000  Uiso   1.00
Cl922  Cl    0.00000   0.65976   0.94700   0.00000  Uiso   1.00
Cl923  Cl    0.00000   0.65976   0.71967   0.00000  Uiso   1.00
Cl924  Cl    0.00000   0.84024   0.94700   0.00000  Uiso   1.00
Cl925  Cl    0.25000   0.59024   0.71967   0.00000  Uiso   1.00
Cl926  Cl    0.25000   0.90976   0.94700   0.00000  Uiso   1.00
Cl927  Cl    0.25000   0.90976   0.71967   0.00000  Uiso   1.00
Cl928  Cl    0.25000   0.59024   0.94700   0.00000  Uiso   1.00
H929   H     0.40302   0.65307   0.76022   0.00000  Uiso   1.00
H930   H     0.34698   0.59693   0.90645   0.00000  Uiso   1.00
H931   H     0.34698   0.59693   0.76022   0.00000  Uiso   1.00
H932   H     0.15302   0.90307   0.90645   0.00000  Uiso   1.00
H933   H     0.34698   0.90307   0.90645   0.00000  Uiso   1.00
H934   H     0.15302   0.59693   0.76022   0.00000  Uiso   1.00
H935   H     0.15302   0.59693   0.90645   0.00000  Uiso   1.00
H936   H     0.34698   0.90307   0.76022   0.00000  Uiso   1.00
H937   H     0.09698   0.84693   0.90645   0.00000  Uiso   1.00
H938   H     0.09698   0.84693   0.76022   0.00000  Uiso   1.00
H939   H     0.40302   0.65307   0.90645   0.00000  Uiso   1.00
H940   H     0.09698   0.65307   0.90645   0.00000  Uiso   1.00
H941   H     0.40302   0.84693   0.76022   0.00000  Uiso   1.00
H942   H     0.40302   0.84693   0.90645   0.00000  Uiso   1.00
H943   H     0.09698   0.65307   0.76022   0.00000  Uiso   1.00
H944   H     0.15302   0.90307   0.76022   0.00000  Uiso   1.00
N945   N     0.00000   0.75000   0.95240   0.00000  Uiso   1.00
N946   N     0.00000   0.75000   0.71427   0.00000  Uiso   1.00
N947   N     0.25000   0.50000   0.95240   0.00000  Uiso   1.00
N948   N     0.25000   0.50000   0.71427   0.00000  Uiso   1.00
O949   O     0.04580   0.70419   0.87154   0.00000  Uiso   1.00
O950   O     0.20419   0.54581   0.79513   0.00000  Uiso   1.00
O951   O     0.20419   0.54581   0.87154   0.00000  Uiso   1.00
O952   O     0.29580   0.95419   0.79513   0.00000  Uiso   1.00
O953   O     0.20419   0.95419   0.79513   0.00000  Uiso   1.00
O954   O     0.29580   0.54581   0.87154   0.00000  Uiso   1.00
O955   O     0.29580   0.54581   0.79513   0.00000  Uiso   1.00
O956   O     0.20419   0.95419   0.87154   0.00000  Uiso   1.00
O957   O     0.45419   0.79581   0.79513   0.00000  Uiso   1.00
O958   O     0.45419   0.79581   0.87154   0.00000  Uiso   1.00
O959   O     0.04580   0.70419   0.79513   0.00000  Uiso   1.00
O960   O     0.45419   0.70419   0.79513   0.00000  Uiso   1.00
O961   O     0.04580   0.79581   0.87154   0.00000  Uiso   1.00
O962   O     0.04580   0.79581   0.79513   0.00000  Uiso   1.00
O963   O     0.45419   0.70419   0.87154   0.00000  Uiso   1.00
O964   O     0.29580   0.95419   0.87154   0.00000  Uiso   1.00
Zn965  Zn    0.00000   0.75000   0.88437   0.00000  Uiso   1.00
Zn966  Zn    0.00000   0.75000   0.78229   0.00000  Uiso   1.00
Zn967  Zn    0.25000   0.50000   0.88437   0.00000  Uiso   1.00
Zn968  Zn    0.25000   0.50000   0.78229   0.00000  Uiso   1.00
C969   C     0.55996   0.68998   0.83333   0.00000  Uiso   1.00
C970   C     0.50000   0.71081   0.97606   0.00000  Uiso   1.00
C971   C     0.50000   0.71081   0.69061   0.00000  Uiso   1.00
C972   C     0.50000   0.78918   0.97606   0.00000  Uiso   1.00
C973   C     0.75000   0.53919   0.69061   0.00000  Uiso   1.00
C974   C     0.75000   0.96082   0.97606   0.00000  Uiso   1.00
C975   C     0.75000   0.96082   0.69061   0.00000  Uiso   1.00
C976   C     0.75000   0.53919   0.97606   0.00000  Uiso   1.00
C977   C     0.89096   0.64096   0.79226   0.00000  Uiso   1.00
C978   C     0.60904   0.85904   0.87441   0.00000  Uiso   1.00
C979   C     0.60904   0.85904   0.79226   0.00000  Uiso   1.00
C980   C     0.94003   0.81002   0.83333   0.00000  Uiso   1.00
C981   C     0.89096   0.64096   0.87441   0.00000  Uiso   1.00
C982   C     0.60904   0.64096   0.87441   0.00000  Uiso   1.00
C983   C     0.89096   0.85904   0.79226   0.00000  Uiso   1.00
C984   C     0.89096   0.85904   0.87441   0.00000  Uiso   1.00
C985   C     0.60904   0.64096   0.79226   0.00000  Uiso   1.00
C986   C     0.64096   0.89096   0.79226   0.00000  Uiso   1.00
C987   C     0.85904   0.60904   0.87441   0.00000  Uiso   1.00
C988   C     0.85904   0.60904   0.79226   0.00000  Uiso   1.00
C989   C     0.64096   0.89096   0.87441   0.00000  Uiso   1.00
C990   C     0.85904   0.89096   0.87441   0.00000  Uiso   1.00
C991   C     0.94003   0.68998   0.83333   0.00000  Uiso   1.00
C992   C     0.64096   0.60904   0.79226   0.00000  Uiso   1.00
C993   C     0.64096   0.60904   0.87441   0.00000  Uiso   1.00
C994   C     0.85904   0.89096   0.79226   0.00000  Uiso   1.00
C995   C     0.59312   0.84315   0.83333   0.00000  Uiso   1.00
C996   C     0.90688   0.65685   0.83333   0.00000  Uiso   1.00
C997   C     0.90688   0.84315   0.83333   0.00000  Uiso   1.00
C998   C     0.59312   0.65685   0.83333   0.00000  Uiso   1.00
C999   C     0.84312   0.59315   0.83333   0.00000  Uiso   1.00
C1000  C     0.65688   0.90685   0.83333   0.00000  Uiso   1.00
C1001  C     0.65688   0.59315   0.83333   0.00000  Uiso   1.00
C1002  C     0.55996   0.81002   0.83333   0.00000  Uiso   1.00
C1003  C     0.84312   0.90685   0.83333   0.00000  Uiso   1.00
C1004  C     0.80996   0.93998   0.83333   0.00000  Uiso   1.00
C1005  C     0.69003   0.56002   0.83333   0.00000  Uiso   1.00
C1006  C     0.69003   0.93998   0.83333   0.00000  Uiso   1.00
C1007  C     0.80996   0.56002   0.83333   0.00000  Uiso   1.00
C1008  C     0.50000   0.78918   0.69061   0.00000  Uiso   1.00
Cl1009 Cl    0.50000   0.84024   0.71967   0.00000  Uiso   1.00
Cl1010 Cl    0.50000   0.65976   0.94700   0.00000  Uiso   1.00
Cl1011 Cl    0.50000   0.65976   0.71967   0.00000  Uiso   1.00
Cl1012 Cl    0.50000   0.84024   0.94700   0.00000  Uiso   1.00
Cl1013 Cl    0.75000   0.59024   0.71967   0.00000  Uiso   1.00
Cl1014 Cl    0.75000   0.90976   0.94700   0.00000  Uiso   1.00
Cl1015 Cl    0.75000   0.90976   0.71967   0.00000  Uiso   1.00
Cl1016 Cl    0.75000   0.59024   0.94700   0.00000  Uiso   1.00
H1017  H     0.90302   0.65307   0.76022   0.00000  Uiso   1.00
H1018  H     0.84698   0.59693   0.90645   0.00000  Uiso   1.00
H1019  H     0.84698   0.59693   0.76022   0.00000  Uiso   1.00
H1020  H     0.65302   0.90307   0.90645   0.00000  Uiso   1.00
H1021  H     0.84698   0.90307   0.90645   0.00000  Uiso   1.00
H1022  H     0.65302   0.59693   0.76022   0.00000  Uiso   1.00
H1023  H     0.65302   0.59693   0.90645   0.00000  Uiso   1.00
H1024  H     0.84698   0.90307   0.76022   0.00000  Uiso   1.00
H1025  H     0.59698   0.84693   0.90645   0.00000  Uiso   1.00
H1026  H     0.59698   0.84693   0.76022   0.00000  Uiso   1.00
H1027  H     0.90302   0.65307   0.90645   0.00000  Uiso   1.00
H1028  H     0.59698   0.65307   0.90645   0.00000  Uiso   1.00
H1029  H     0.90302   0.84693   0.76022   0.00000  Uiso   1.00
H1030  H     0.90302   0.84693   0.90645   0.00000  Uiso   1.00
H1031  H     0.59698   0.65307   0.76022   0.00000  Uiso   1.00
H1032  H     0.65302   0.90307   0.76022   0.00000  Uiso   1.00
N1033  N     0.50000   0.75000   0.95240   0.00000  Uiso   1.00
N1034  N     0.50000   0.75000   0.71427   0.00000  Uiso   1.00
N1035  N     0.75000   0.50000   0.95240   0.00000  Uiso   1.00
N1036  N     0.75000   0.50000   0.71427   0.00000  Uiso   1.00
O1037  O     0.54580   0.70419   0.87154   0.00000  Uiso   1.00
O1038  O     0.70419   0.54581   0.79513   0.00000  Uiso   1.00
O1039  O     0.70419   0.54581   0.87154   0.00000  Uiso   1.00
O1040  O     0.79580   0.95419   0.79513   0.00000  Uiso   1.00
O1041  O     0.70419   0.95419   0.79513   0.00000  Uiso   1.00
O1042  O     0.79580   0.54581   0.87154   0.00000  Uiso   1.00
O1043  O     0.79580   0.54581   0.79513   0.00000  Uiso   1.00
O1044  O     0.70419   0.95419   0.87154   0.00000  Uiso   1.00
O1045  O     0.95419   0.79581   0.79513   0.00000  Uiso   1.00
O1046  O     0.95419   0.79581   0.87154   0.00000  Uiso   1.00
O1047  O     0.54580   0.70419   0.79513   0.00000  Uiso   1.00
O1048  O     0.95419   0.70419   0.79513   0.00000  Uiso   1.00
O1049  O     0.54580   0.79581   0.87154   0.00000  Uiso   1.00
O1050  O     0.54580   0.79581   0.79513   0.00000  Uiso   1.00
O1051  O     0.95419   0.70419   0.87154   0.00000  Uiso   1.00
O1052  O     0.79580   0.95419   0.87154   0.00000  Uiso   1.00
Zn1053 Zn    0.50000   0.75000   0.88437   0.00000  Uiso   1.00
Zn1054 Zn    0.50000   0.75000   0.78229   0.00000  Uiso   1.00
Zn1055 Zn    0.75000   0.50000   0.88437   0.00000  Uiso   1.00
Zn1056 Zn    0.75000   0.50000   0.78229   0.00000  Uiso   1.00
loop_
_geom_bond_atom_site_label_1
_geom_bond_atom_site_label_2
_geom_bond_distance
_geom_bond_site_symmetry_2
_ccdc_geom_bond_type
C1     O79     1.287   .     A
C1     C30     1.421   .     S
C1     O69     1.287   .     A
C2     N65     1.370   .     A
C2     Cl42    1.759   .     S
C2     C355    1.422   .     S
C3     Cl43    1.759   .     S
C3     N66     1.370   .     A
C3     C706    1.422   1_554 S
C4     N65     1.370   .     A
C4     Cl44    1.759   .     S
C4     C392    1.422   .     S
C5     N68     1.370   .     A
C5     Cl45    1.759   .     S
C5     C712    1.422   1_554 S
C6     N243    1.370   .     A
C6     Cl46    1.759   .     S
C6     C359    1.422   .     S
C7     Cl47    1.759   .     S
C7     C710    1.422   1_554 S
C7     N244    1.370   .     S
C8     Cl48    1.759   .     S
C8     C357    1.422   .     S
C8     N67     1.370   .     S
C9     H49     1.083   .     S
C9     C20     1.369   .     A
C9     C28     1.397   .     A
C10    C27     1.397   .     A
C10    C21     1.369   .     A
C10    H57     1.083   .     S
C11    C18     1.369   .     A
C11    H58     1.083   .     S
C11    C27     1.397   .     A
C12    C29     1.421   .     S
C12    O78     1.287   .     A
C12    O77     1.287   .     A
C13    C28     1.397   .     A
C13    C19     1.369   .     A
C13    H59     1.083   .     S
C14    C30     1.397   .     A
C14    H60     1.083   .     S
C14    C25     1.369   .     A
C15    C29     1.397   .     A
C15    C26     1.369   .     A
C15    H61     1.083   .     S
C16    H62     1.083   .     S
C16    C29     1.397   .     A
C16    C22     1.369   .     A
C17    C30     1.397   .     A
C17    C24     1.369   .     A
C17    H63     1.083   .     S
C18    C32     1.397   .     A
C18    H64     1.083   .     S
C19    C31     1.397   .     A
C19    H50     1.083   .     S
C20    H51     1.083   .     S
C20    C31     1.397   .     A
C21    C32     1.397   .     A
C21    H52     1.083   .     S
C22    C35     1.397   .     A
C22    H53     1.083   .     S
C23    O83     1.287   .     A
C23    C28     1.421   .     S
C23    O80     1.287   .     A
C24    H54     1.083   .     S
C24    C33     1.397   .     A
C25    H55     1.083   .     S
C25    C33     1.397   .     A
C26    C35     1.397   .     A
C26    H56     1.083   .     S
C27    C34     1.421   .     S
C31    C39     1.421   .     S
C32    C38     1.421   .     S
C33    C37     1.421   .     S
C34    O81     1.287   .     A
C34    O82     1.287   .     A
C35    C36     1.421   .     S
C36    O84     1.287   .     A
C36    O72     1.287   .     A
C37    O70     1.287   .     A
C37    O71     1.287   .     A
C38    O76     1.287   .     A
C38    O73     1.287   .     A
C39    O74     1.287   .     A
C39    O75     1.287   .     A
C40    N66     1.370   .     A
C40    Cl41    1.759   .     S
C40    C708    1.422   1_554 S
N65    Zn85    2.020   .     S
N66    Zn86    2.020   .     S
N67    C182    1.370   1_545 A
N67    Zn87    2.020   .     S
N68    Zn88    2.020   .     S
N68    C183    1.370   1_545 S
O69    Zn85    2.002   .     S
O70    Zn88    2.002   .     S
O71    Zn87    2.002   .     S
O72    Zn264   2.002   .     S
O73    Zn264   2.002   .     S
O74    Zn87    2.002   .     S
O75    Zn88    2.002   .     S
O76    Zn263   2.002   .     S
O77    Zn174   2.002   .     S
O78    Zn173   2.002   .     S
O79    Zn86    2.002   .     S
O80    Zn174   2.002   .     S
O81    Zn85    2.002   .     S
O82    Zn86    2.002   .     S
O83    Zn173   2.002   .     S
O84    Zn263   2.002   .     S
Zn85   O171    2.002   1_455 S
Zn85   O166    2.002   1_455 S
Zn86   O168    2.002   1_455 S
Zn86   O165    2.002   1_455 S
Zn87   O260    2.002   1_545 S
Zn87   O252    2.002   1_545 S
Zn88   O249    2.002   1_545 S
Zn88   O248    2.002   1_545 S
C89    O167    1.287   .     A
C89    C118    1.421   .     S
C89    O157    1.287   .     A
C90    N153    1.370   .     A
C90    Cl130   1.759   .     S
C90    C443    1.422   .     S
C91    Cl131   1.759   .     S
C91    N154    1.370   .     A
C91    C794    1.422   1_554 S
C92    N153    1.370   .     A
C92    Cl132   1.759   .     S
C92    C480    1.422   .     S
C93    N156    1.370   .     A
C93    Cl133   1.759   .     S
C93    C800    1.422   1_554 S
C94    N331    1.370   .     A
C94    Cl134   1.759   .     S
C94    C447    1.422   .     S
C95    Cl135   1.759   .     S
C95    C798    1.422   1_554 S
C95    N332    1.370   .     S
C96    Cl136   1.759   .     S
C96    C445    1.422   .     S
C96    N155    1.370   .     S
C97    H137    1.083   .     S
C97    C108    1.369   .     A
C97    C116    1.397   .     A
C98    C115    1.397   .     A
C98    C109    1.369   .     A
C98    H145    1.083   .     S
C99    C106    1.369   .     A
C99    H146    1.083   .     S
C99    C115    1.397   .     A
C100   C117    1.421   .     S
C100   O166    1.287   .     A
C100   O165    1.287   .     A
C101   C116    1.397   .     A
C101   C107    1.369   .     A
C101   H147    1.083   .     S
C102   C118    1.397   .     A
C102   H148    1.083   .     S
C102   C113    1.369   .     A
C103   C117    1.397   .     A
C103   C114    1.369   .     A
C103   H149    1.083   .     S
C104   H150    1.083   .     S
C104   C117    1.397   .     A
C104   C110    1.369   .     A
C105   C118    1.397   .     A
C105   C112    1.369   .     A
C105   H151    1.083   .     S
C106   C120    1.397   .     A
C106   H152    1.083   .     S
C107   C119    1.397   .     A
C107   H138    1.083   .     S
C108   H139    1.083   .     S
C108   C119    1.397   .     A
C109   C120    1.397   .     A
C109   H140    1.083   .     S
C110   C123    1.397   .     A
C110   H141    1.083   .     S
C111   O171    1.287   .     A
C111   C116    1.421   .     S
C111   O168    1.287   .     A
C112   H142    1.083   .     S
C112   C121    1.397   .     A
C113   H143    1.083   .     S
C113   C121    1.397   .     A
C114   C123    1.397   .     A
C114   H144    1.083   .     S
C115   C122    1.421   .     S
C119   C127    1.421   .     S
C120   C126    1.421   .     S
C121   C125    1.421   .     S
C122   O169    1.287   .     A
C122   O170    1.287   .     A
C123   C124    1.421   .     S
C124   O172    1.287   .     A
C124   O160    1.287   .     A
C125   O158    1.287   .     A
C125   O159    1.287   .     A
C126   O164    1.287   .     A
C126   O161    1.287   .     A
C127   O162    1.287   .     A
C127   O163    1.287   .     A
C128   N154    1.370   .     A
C128   Cl129   1.759   .     S
C128   C796    1.422   1_554 S
N153   Zn173   2.020   .     S
N154   Zn174   2.020   .     S
N155   C270    1.370   1_545 A
N155   Zn175   2.020   .     S
N156   Zn176   2.020   .     S
N156   C271    1.370   1_545 S
O157   Zn173   2.002   .     S
O158   Zn176   2.002   .     S
O159   Zn175   2.002   .     S
O160   Zn352   2.002   .     S
O161   Zn352   2.002   .     S
O162   Zn175   2.002   .     S
O163   Zn176   2.002   .     S
O164   Zn351   2.002   .     S
O165   Zn86    2.002   1_655 S
O166   Zn85    2.002   1_655 S
O167   Zn174   2.002   .     S
O168   Zn86    2.002   1_655 S
O169   Zn173   2.002   .     S
O170   Zn174   2.002   .     S
O171   Zn85    2.002   1_655 S
O172   Zn351   2.002   .     S
Zn175  O348    2.002   1_545 S
Zn175  O340    2.002   1_545 S
Zn176  O337    2.002   1_545 S
Zn176  O336    2.002   1_545 S
C177   O255    1.287   .     A
C177   C206    1.421   .     S
C177   O245    1.287   .     A
C178   N241    1.370   .     A
C178   Cl218   1.759   .     S
C178   C531    1.422   .     S
C179   Cl219   1.759   .     S
C179   N242    1.370   .     A
C179   C882    1.422   1_554 S
C180   N241    1.370   .     A
C180   Cl220   1.759   .     S
C180   C568    1.422   .     S
C181   N244    1.370   .     A
C181   Cl221   1.759   .     S
C181   C888    1.422   1_554 S
C182   N67     1.370   1_565 A
C182   Cl222   1.759   .     S
C182   C535    1.422   .     S
C183   Cl223   1.759   .     S
C183   C886    1.422   1_554 S
C183   N68     1.370   1_565 S
C184   Cl224   1.759   .     S
C184   C533    1.422   .     S
C184   N243    1.370   .     S
C185   H225    1.083   .     S
C185   C196    1.369   .     A
C185   C204    1.397   .     A
C186   C203    1.397   .     A
C186   C197    1.369   .     A
C186   H233    1.083   .     S
C187   C194    1.369   .     A
C187   H234    1.083   .     S
C187   C203    1.397   .     A
C188   C205    1.421   .     S
C188   O254    1.287   .     A
C188   O253    1.287   .     A
C189   C204    1.397   .     A
C189   C195    1.369   .     A
C189   H235    1.083   .     S
C190   C206    1.397   .     A
C190   H236    1.083   .     S
C190   C201    1.369   .     A
C191   C205    1.397   .     A
C191   C202    1.369   .     A
C191   H237    1.083   .     S
C192   H238    1.083   .     S
C192   C205    1.397   .     A
C192   C198    1.369   .     A
C193   C206    1.397   .     A
C193   C200    1.369   .     A
C193   H239    1.083   .     S
C194   C208    1.397   .     A
C194   H240    1.083   .     S
C195   C207    1.397   .     A
C195   H226    1.083   .     S
C196   H227    1.083   .     S
C196   C207    1.397   .     A
C197   C208    1.397   .     A
C197   H228    1.083   .     S
C198   C211    1.397   .     A
C198   H229    1.083   .     S
C199   O259    1.287   .     A
C199   C204    1.421   .     S
C199   O256    1.287   .     A
C200   H230    1.083   .     S
C200   C209    1.397   .     A
C201   H231    1.083   .     S
C201   C209    1.397   .     A
C202   C211    1.397   .     A
C202   H232    1.083   .     S
C203   C210    1.421   .     S
C207   C215    1.421   .     S
C208   C214    1.421   .     S
C209   C213    1.421   .     S
C210   O257    1.287   .     A
C210   O258    1.287   .     A
C211   C212    1.421   .     S
C212   O260    1.287   .     A
C212   O248    1.287   .     A
C213   O246    1.287   .     A
C213   O247    1.287   .     A
C214   O252    1.287   .     A
C214   O249    1.287   .     A
C215   O250    1.287   .     A
C215   O251    1.287   .     A
C216   N242    1.370   .     A
C216   Cl217   1.759   .     S
C216   C884    1.422   1_554 S
N241   Zn261   2.020   .     S
N242   Zn262   2.020   .     S
N243   Zn263   2.020   .     S
N244   Zn264   2.020   .     S
O245   Zn261   2.002   .     S
O246   Zn264   2.002   .     S
O247   Zn263   2.002   .     S
O248   Zn88    2.002   1_565 S
O249   Zn88    2.002   1_565 S
O250   Zn263   2.002   .     S
O251   Zn264   2.002   .     S
O252   Zn87    2.002   1_565 S
O253   Zn350   2.002   .     S
O254   Zn349   2.002   .     S
O255   Zn262   2.002   .     S
O256   Zn350   2.002   .     S
O257   Zn261   2.002   .     S
O258   Zn262   2.002   .     S
O259   Zn349   2.002   .     S
O260   Zn87    2.002   1_565 S
Zn261  O347    2.002   1_455 S
Zn261  O342    2.002   1_455 S
Zn262  O344    2.002   1_455 S
Zn262  O341    2.002   1_455 S
C265   O343    1.287   .     A
C265   C294    1.421   .     S
C265   O333    1.287   .     A
C266   N329    1.370   .     A
C266   Cl306   1.759   .     S
C266   C619    1.422   .     S
C267   Cl307   1.759   .     S
C267   N330    1.370   .     A
C267   C970    1.422   1_554 S
C268   N329    1.370   .     A
C268   Cl308   1.759   .     S
C268   C656    1.422   .     S
C269   N332    1.370   .     A
C269   Cl309   1.759   .     S
C269   C976    1.422   1_554 S
C270   N155    1.370   1_565 A
C270   Cl310   1.759   .     S
C270   C623    1.422   .     S
C271   Cl311   1.759   .     S
C271   C974    1.422   1_554 S
C271   N156    1.370   1_565 S
C272   Cl312   1.759   .     S
C272   C621    1.422   .     S
C272   N331    1.370   .     S
C273   H313    1.083   .     S
C273   C284    1.369   .     A
C273   C292    1.397   .     A
C274   C291    1.397   .     A
C274   C285    1.369   .     A
C274   H321    1.083   .     S
C275   C282    1.369   .     A
C275   H322    1.083   .     S
C275   C291    1.397   .     A
C276   C293    1.421   .     S
C276   O342    1.287   .     A
C276   O341    1.287   .     A
C277   C292    1.397   .     A
C277   C283    1.369   .     A
C277   H323    1.083   .     S
C278   C294    1.397   .     A
C278   H324    1.083   .     S
C278   C289    1.369   .     A
C279   C293    1.397   .     A
C279   C290    1.369   .     A
C279   H325    1.083   .     S
C280   H326    1.083   .     S
C280   C293    1.397   .     A
C280   C286    1.369   .     A
C281   C294    1.397   .     A
C281   C288    1.369   .     A
C281   H327    1.083   .     S
C282   C296    1.397   .     A
C282   H328    1.083   .     S
C283   C295    1.397   .     A
C283   H314    1.083   .     S
C284   H315    1.083   .     S
C284   C295    1.397   .     A
C285   C296    1.397   .     A
C285   H316    1.083   .     S
C286   C299    1.397   .     A
C286   H317    1.083   .     S
C287   O347    1.287   .     A
C287   C292    1.421   .     S
C287   O344    1.287   .     A
C288   H318    1.083   .     S
C288   C297    1.397   .     A
C289   H319    1.083   .     S
C289   C297    1.397   .     A
C290   C299    1.397   .     A
C290   H320    1.083   .     S
C291   C298    1.421   .     S
C295   C303    1.421   .     S
C296   C302    1.421   .     S
C297   C301    1.421   .     S
C298   O345    1.287   .     A
C298   O346    1.287   .     A
C299   C300    1.421   .     S
C300   O348    1.287   .     A
C300   O336    1.287   .     A
C301   O334    1.287   .     A
C301   O335    1.287   .     A
C302   O340    1.287   .     A
C302   O337    1.287   .     A
C303   O338    1.287   .     A
C303   O339    1.287   .     A
C304   N330    1.370   .     A
C304   Cl305   1.759   .     S
C304   C972    1.422   1_554 S
N329   Zn349   2.020   .     S
N330   Zn350   2.020   .     S
N331   Zn351   2.020   .     S
N332   Zn352   2.020   .     S
O333   Zn349   2.002   .     S
O334   Zn352   2.002   .     S
O335   Zn351   2.002   .     S
O336   Zn176   2.002   1_565 S
O337   Zn176   2.002   1_565 S
O338   Zn351   2.002   .     S
O339   Zn352   2.002   .     S
O340   Zn175   2.002   1_565 S
O341   Zn262   2.002   1_655 S
O342   Zn261   2.002   1_655 S
O343   Zn350   2.002   .     S
O344   Zn262   2.002   1_655 S
O345   Zn349   2.002   .     S
O346   Zn350   2.002   .     S
O347   Zn261   2.002   1_655 S
O348   Zn175   2.002   1_565 S
C353   O431    1.287   .     A
C353   C382    1.421   .     S
C353   O421    1.287   .     A
C354   N417    1.370   .     A
C354   Cl394   1.759   .     S
C354   C707    1.422   .     S
C355   Cl395   1.759   .     S
C355   N418    1.370   .     A
C356   N417    1.370   .     A
C356   Cl396   1.759   .     S
C356   C744    1.422   .     S
C357   N420    1.370   .     A
C357   Cl397   1.759   .     S
C358   N595    1.370   .     A
C358   Cl398   1.759   .     S
C358   C711    1.422   .     S
C359   Cl399   1.759   .     S
C359   N596    1.370   .     S
C360   Cl400   1.759   .     S
C360   C709    1.422   .     S
C360   N419    1.370   .     S
C361   H401    1.083   .     S
C361   C372    1.369   .     A
C361   C380    1.397   .     A
C362   C379    1.397   .     A
C362   C373    1.369   .     A
C362   H409    1.083   .     S
C363   C370    1.369   .     A
C363   H410    1.083   .     S
C363   C379    1.397   .     A
C364   C381    1.421   .     S
C364   O430    1.287   .     A
C364   O429    1.287   .     A
C365   C380    1.397   .     A
C365   C371    1.369   .     A
C365   H411    1.083   .     S
C366   C382    1.397   .     A
C366   H412    1.083   .     S
C366   C377    1.369   .     A
C367   C381    1.397   .     A
C367   C378    1.369   .     A
C367   H413    1.083   .     S
C368   H414    1.083   .     S
C368   C381    1.397   .     A
C368   C374    1.369   .     A
C369   C382    1.397   .     A
C369   C376    1.369   .     A
C369   H415    1.083   .     S
C370   C384    1.397   .     A
C370   H416    1.083   .     S
C371   C383    1.397   .     A
C371   H402    1.083   .     S
C372   H403    1.083   .     S
C372   C383    1.397   .     A
C373   C384    1.397   .     A
C373   H404    1.083   .     S
C374   C387    1.397   .     A
C374   H405    1.083   .     S
C375   O435    1.287   .     A
C375   C380    1.421   .     S
C375   O432    1.287   .     A
C376   H406    1.083   .     S
C376   C385    1.397   .     A
C377   H407    1.083   .     S
C377   C385    1.397   .     A
C378   C387    1.397   .     A
C378   H408    1.083   .     S
C379   C386    1.421   .     S
C383   C391    1.421   .     S
C384   C390    1.421   .     S
C385   C389    1.421   .     S
C386   O433    1.287   .     A
C386   O434    1.287   .     A
C387   C388    1.421   .     S
C388   O436    1.287   .     A
C388   O424    1.287   .     A
C389   O422    1.287   .     A
C389   O423    1.287   .     A
C390   O428    1.287   .     A
C390   O425    1.287   .     A
C391   O426    1.287   .     A
C391   O427    1.287   .     A
C392   N418    1.370   .     A
C392   Cl393   1.759   .     S
N417   Zn437   2.020   .     S
N418   Zn438   2.020   .     S
N419   C534    1.370   1_545 A
N419   Zn439   2.020   .     S
N420   Zn440   2.020   .     S
N420   C535    1.370   1_545 S
O421   Zn437   2.002   .     S
O422   Zn440   2.002   .     S
O423   Zn439   2.002   .     S
O424   Zn616   2.002   .     S
O425   Zn616   2.002   .     S
O426   Zn439   2.002   .     S
O427   Zn440   2.002   .     S
O428   Zn615   2.002   .     S
O429   Zn526   2.002   .     S
O430   Zn525   2.002   .     S
O431   Zn438   2.002   .     S
O432   Zn526   2.002   .     S
O433   Zn437   2.002   .     S
O434   Zn438   2.002   .     S
O435   Zn525   2.002   .     S
O436   Zn615   2.002   .     S
Zn437  O523    2.002   1_455 S
Zn437  O518    2.002   1_455 S
Zn438  O520    2.002   1_455 S
Zn438  O517    2.002   1_455 S
Zn439  O612    2.002   1_545 S
Zn439  O604    2.002   1_545 S
Zn440  O601    2.002   1_545 S
Zn440  O600    2.002   1_545 S
C441   O519    1.287   .     A
C441   C470    1.421   .     S
C441   O509    1.287   .     A
C442   N505    1.370   .     A
C442   Cl482   1.759   .     S
C442   C795    1.422   .     S
C443   Cl483   1.759   .     S
C443   N506    1.370   .     A
C444   N505    1.370   .     A
C444   Cl484   1.759   .     S
C444   C832    1.422   .     S
C445   N508    1.370   .     A
C445   Cl485   1.759   .     S
C446   N683    1.370   .     A
C446   Cl486   1.759   .     S
C446   C799    1.422   .     S
C447   Cl487   1.759   .     S
C447   N684    1.370   .     S
C448   Cl488   1.759   .     S
C448   C797    1.422   .     S
C448   N507    1.370   .     S
C449   H489    1.083   .     S
C449   C460    1.369   .     A
C449   C468    1.397   .     A
C450   C467    1.397   .     A
C450   C461    1.369   .     A
C450   H497    1.083   .     S
C451   C458    1.369   .     A
C451   H498    1.083   .     S
C451   C467    1.397   .     A
C452   C469    1.421   .     S
C452   O518    1.287   .     A
C452   O517    1.287   .     A
C453   C468    1.397   .     A
C453   C459    1.369   .     A
C453   H499    1.083   .     S
C454   C470    1.397   .     A
C454   H500    1.083   .     S
C454   C465    1.369   .     A
C455   C469    1.397   .     A
C455   C466    1.369   .     A
C455   H501    1.083   .     S
C456   H502    1.083   .     S
C456   C469    1.397   .     A
C456   C462    1.369   .     A
C457   C470    1.397   .     A
C457   C464    1.369   .     A
C457   H503    1.083   .     S
C458   C472    1.397   .     A
C458   H504    1.083   .     S
C459   C471    1.397   .     A
C459   H490    1.083   .     S
C460   H491    1.083   .     S
C460   C471    1.397   .     A
C461   C472    1.397   .     A
C461   H492    1.083   .     S
C462   C475    1.397   .     A
C462   H493    1.083   .     S
C463   O523    1.287   .     A
C463   C468    1.421   .     S
C463   O520    1.287   .     A
C464   H494    1.083   .     S
C464   C473    1.397   .     A
C465   H495    1.083   .     S
C465   C473    1.397   .     A
C466   C475    1.397   .     A
C466   H496    1.083   .     S
C467   C474    1.421   .     S
C471   C479    1.421   .     S
C472   C478    1.421   .     S
C473   C477    1.421   .     S
C474   O521    1.287   .     A
C474   O522    1.287   .     A
C475   C476    1.421   .     S
C476   O524    1.287   .     A
C476   O512    1.287   .     A
C477   O510    1.287   .     A
C477   O511    1.287   .     A
C478   O516    1.287   .     A
C478   O513    1.287   .     A
C479   O514    1.287   .     A
C479   O515    1.287   .     A
C480   N506    1.370   .     A
C480   Cl481   1.759   .     S
N505   Zn525   2.020   .     S
N506   Zn526   2.020   .     S
N507   C622    1.370   1_545 A
N507   Zn527   2.020   .     S
N508   Zn528   2.020   .     S
N508   C623    1.370   1_545 S
O509   Zn525   2.002   .     S
O510   Zn528   2.002   .     S
O511   Zn527   2.002   .     S
O512   Zn704   2.002   .     S
O513   Zn704   2.002   .     S
O514   Zn527   2.002   .     S
O515   Zn528   2.002   .     S
O516   Zn703   2.002   .     S
O517   Zn438   2.002   1_655 S
O518   Zn437   2.002   1_655 S
O519   Zn526   2.002   .     S
O520   Zn438   2.002   1_655 S
O521   Zn525   2.002   .     S
O522   Zn526   2.002   .     S
O523   Zn437   2.002   1_655 S
O524   Zn703   2.002   .     S
Zn527  O700    2.002   1_545 S
Zn527  O692    2.002   1_545 S
Zn528  O689    2.002   1_545 S
Zn528  O688    2.002   1_545 S
C529   O607    1.287   .     A
C529   C558    1.421   .     S
C529   O597    1.287   .     A
C530   N593    1.370   .     A
C530   Cl570   1.759   .     S
C530   C883    1.422   .     S
C531   Cl571   1.759   .     S
C531   N594    1.370   .     A
C532   N593    1.370   .     A
C532   Cl572   1.759   .     S
C532   C920    1.422   .     S
C533   N596    1.370   .     A
C533   Cl573   1.759   .     S
C534   N419    1.370   1_565 A
C534   Cl574   1.759   .     S
C534   C887    1.422   .     S
C535   Cl575   1.759   .     S
C535   N420    1.370   1_565 S
C536   Cl576   1.759   .     S
C536   C885    1.422   .     S
C536   N595    1.370   .     S
C537   H577    1.083   .     S
C537   C548    1.369   .     A
C537   C556    1.397   .     A
C538   C555    1.397   .     A
C538   C549    1.369   .     A
C538   H585    1.083   .     S
C539   C546    1.369   .     A
C539   H586    1.083   .     S
C539   C555    1.397   .     A
C540   C557    1.421   .     S
C540   O606    1.287   .     A
C540   O605    1.287   .     A
C541   C556    1.397   .     A
C541   C547    1.369   .     A
C541   H587    1.083   .     S
C542   C558    1.397   .     A
C542   H588    1.083   .     S
C542   C553    1.369   .     A
C543   C557    1.397   .     A
C543   C554    1.369   .     A
C543   H589    1.083   .     S
C544   H590    1.083   .     S
C544   C557    1.397   .     A
C544   C550    1.369   .     A
C545   C558    1.397   .     A
C545   C552    1.369   .     A
C545   H591    1.083   .     S
C546   C560    1.397   .     A
C546   H592    1.083   .     S
C547   C559    1.397   .     A
C547   H578    1.083   .     S
C548   H579    1.083   .     S
C548   C559    1.397   .     A
C549   C560    1.397   .     A
C549   H580    1.083   .     S
C550   C563    1.397   .     A
C550   H581    1.083   .     S
C551   O611    1.287   .     A
C551   C556    1.421   .     S
C551   O608    1.287   .     A
C552   H582    1.083   .     S
C552   C561    1.397   .     A
C553   H583    1.083   .     S
C553   C561    1.397   .     A
C554   C563    1.397   .     A
C554   H584    1.083   .     S
C555   C562    1.421   .     S
C559   C567    1.421   .     S
C560   C566    1.421   .     S
C561   C565    1.421   .     S
C562   O609    1.287   .     A
C562   O610    1.287   .     A
C563   C564    1.421   .     S
C564   O612    1.287   .     A
C564   O600    1.287   .     A
C565   O598    1.287   .     A
C565   O599    1.287   .     A
C566   O604    1.287   .     A
C566   O601    1.287   .     A
C567   O602    1.287   .     A
C567   O603    1.287   .     A
C568   N594    1.370   .     A
C568   Cl569   1.759   .     S
N593   Zn613   2.020   .     S
N594   Zn614   2.020   .     S
N595   Zn615   2.020   .     S
N596   Zn616   2.020   .     S
O597   Zn613   2.002   .     S
O598   Zn616   2.002   .     S
O599   Zn615   2.002   .     S
O600   Zn440   2.002   1_565 S
O601   Zn440   2.002   1_565 S
O602   Zn615   2.002   .     S
O603   Zn616   2.002   .     S
O604   Zn439   2.002   1_565 S
O605   Zn702   2.002   .     S
O606   Zn701   2.002   .     S
O607   Zn614   2.002   .     S
O608   Zn702   2.002   .     S
O609   Zn613   2.002   .     S
O610   Zn614   2.002   .     S
O611   Zn701   2.002   .     S
O612   Zn439   2.002   1_565 S
Zn613  O699    2.002   1_455 S
Zn613  O694    2.002   1_455 S
Zn614  O696    2.002   1_455 S
Zn614  O693    2.002   1_455 S
C617   O695    1.287   .     A
C617   C646    1.421   .     S
C617   O685    1.287   .     A
C618   N681    1.370   .     A
C618   Cl658   1.759   .     S
C618   C971    1.422   .     S
C619   Cl659   1.759   .     S
C619   N682    1.370   .     A
C620   N681    1.370   .     A
C620   Cl660   1.759   .     S
C620   C1008   1.422   .     S
C621   N684    1.370   .     A
C621   Cl661   1.759   .     S
C622   N507    1.370   1_565 A
C622   Cl662   1.759   .     S
C622   C975    1.422   .     S
C623   Cl663   1.759   .     S
C623   N508    1.370   1_565 S
C624   Cl664   1.759   .     S
C624   C973    1.422   .     S
C624   N683    1.370   .     S
C625   H665    1.083   .     S
C625   C636    1.369   .     A
C625   C644    1.397   .     A
C626   C643    1.397   .     A
C626   C637    1.369   .     A
C626   H673    1.083   .     S
C627   C634    1.369   .     A
C627   H674    1.083   .     S
C627   C643    1.397   .     A
C628   C645    1.421   .     S
C628   O694    1.287   .     A
C628   O693    1.287   .     A
C629   C644    1.397   .     A
C629   C635    1.369   .     A
C629   H675    1.083   .     S
C630   C646    1.397   .     A
C630   H676    1.083   .     S
C630   C641    1.369   .     A
C631   C645    1.397   .     A
C631   C642    1.369   .     A
C631   H677    1.083   .     S
C632   H678    1.083   .     S
C632   C645    1.397   .     A
C632   C638    1.369   .     A
C633   C646    1.397   .     A
C633   C640    1.369   .     A
C633   H679    1.083   .     S
C634   C648    1.397   .     A
C634   H680    1.083   .     S
C635   C647    1.397   .     A
C635   H666    1.083   .     S
C636   H667    1.083   .     S
C636   C647    1.397   .     A
C637   C648    1.397   .     A
C637   H668    1.083   .     S
C638   C651    1.397   .     A
C638   H669    1.083   .     S
C639   O699    1.287   .     A
C639   C644    1.421   .     S
C639   O696    1.287   .     A
C640   H670    1.083   .     S
C640   C649    1.397   .     A
C641   H671    1.083   .     S
C641   C649    1.397   .     A
C642   C651    1.397   .     A
C642   H672    1.083   .     S
C643   C650    1.421   .     S
C647   C655    1.421   .     S
C648   C654    1.421   .     S
C649   C653    1.421   .     S
C650   O697    1.287   .     A
C650   O698    1.287   .     A
C651   C652    1.421   .     S
C652   O700    1.287   .     A
C652   O688    1.287   .     A
C653   O686    1.287   .     A
C653   O687    1.287   .     A
C654   O692    1.287   .     A
C654   O689    1.287   .     A
C655   O690    1.287   .     A
C655   O691    1.287   .     A
C656   N682    1.370   .     A
C656   Cl657   1.759   .     S
N681   Zn701   2.020   .     S
N682   Zn702   2.020   .     S
N683   Zn703   2.020   .     S
N684   Zn704   2.020   .     S
O685   Zn701   2.002   .     S
O686   Zn704   2.002   .     S
O687   Zn703   2.002   .     S
O688   Zn528   2.002   1_565 S
O689   Zn528   2.002   1_565 S
O690   Zn703   2.002   .     S
O691   Zn704   2.002   .     S
O692   Zn527   2.002   1_565 S
O693   Zn614   2.002   1_655 S
O694   Zn613   2.002   1_655 S
O695   Zn702   2.002   .     S
O696   Zn614   2.002   1_655 S
O697   Zn701   2.002   .     S
O698   Zn702   2.002   .     S
O699   Zn613   2.002   1_655 S
O700   Zn527   2.002   1_565 S
C705   O783    1.287   .     A
C705   C734    1.421   .     S
C705   O773    1.287   .     A
C706   N769    1.370   .     A
C706   Cl746   1.759   .     S
C706   C3      1.422   1_556 S
C707   Cl747   1.759   .     S
C707   N770    1.370   .     A
C708   N769    1.370   .     A
C708   Cl748   1.759   .     S
C708   C40     1.422   1_556 S
C709   N772    1.370   .     A
C709   Cl749   1.759   .     S
C710   N947    1.370   .     A
C710   Cl750   1.759   .     S
C710   C7      1.422   1_556 S
C711   Cl751   1.759   .     S
C711   N948    1.370   .     S
C712   Cl752   1.759   .     S
C712   C5      1.422   1_556 S
C712   N771    1.370   .     S
C713   H753    1.083   .     S
C713   C724    1.369   .     A
C713   C732    1.397   .     A
C714   C731    1.397   .     A
C714   C725    1.369   .     A
C714   H761    1.083   .     S
C715   C722    1.369   .     A
C715   H762    1.083   .     S
C715   C731    1.397   .     A
C716   C733    1.421   .     S
C716   O782    1.287   .     A
C716   O781    1.287   .     A
C717   C732    1.397   .     A
C717   C723    1.369   .     A
C717   H763    1.083   .     S
C718   C734    1.397   .     A
C718   H764    1.083   .     S
C718   C729    1.369   .     A
C719   C733    1.397   .     A
C719   C730    1.369   .     A
C719   H765    1.083   .     S
C720   H766    1.083   .     S
C720   C733    1.397   .     A
C720   C726    1.369   .     A
C721   C734    1.397   .     A
C721   C728    1.369   .     A
C721   H767    1.083   .     S
C722   C736    1.397   .     A
C722   H768    1.083   .     S
C723   C735    1.397   .     A
C723   H754    1.083   .     S
C724   H755    1.083   .     S
C724   C735    1.397   .     A
C725   C736    1.397   .     A
C725   H756    1.083   .     S
C726   C739    1.397   .     A
C726   H757    1.083   .     S
C727   O787    1.287   .     A
C727   C732    1.421   .     S
C727   O784    1.287   .     A
C728   H758    1.083   .     S
C728   C737    1.397   .     A
C729   H759    1.083   .     S
C729   C737    1.397   .     A
C730   C739    1.397   .     A
C730   H760    1.083   .     S
C731   C738    1.421   .     S
C735   C743    1.421   .     S
C736   C742    1.421   .     S
C737   C741    1.421   .     S
C738   O785    1.287   .     A
C738   O786    1.287   .     A
C739   C740    1.421   .     S
C740   O788    1.287   .     A
C740   O776    1.287   .     A
C741   O774    1.287   .     A
C741   O775    1.287   .     A
C742   O780    1.287   .     A
C742   O777    1.287   .     A
C743   O778    1.287   .     A
C743   O779    1.287   .     A
C744   N770    1.370   .     A
C744   Cl745   1.759   .     S
N769   Zn789   2.020   .     S
N770   Zn790   2.020   .     S
N771   C886    1.370   1_545 A
N771   Zn791   2.020   .     S
N772   Zn792   2.020   .     S
N772   C887    1.370   1_545 S
O773   Zn789   2.002   .     S
O774   Zn792   2.002   .     S
O775   Zn791   2.002   .     S
O776   Zn968   2.002   .     S
O777   Zn968   2.002   .     S
O778   Zn791   2.002   .     S
O779   Zn792   2.002   .     S
O780   Zn967   2.002   .     S
O781   Zn878   2.002   .     S
O782   Zn877   2.002   .     S
O783   Zn790   2.002   .     S
O784   Zn878   2.002   .     S
O785   Zn789   2.002   .     S
O786   Zn790   2.002   .     S
O787   Zn877   2.002   .     S
O788   Zn967   2.002   .     S
Zn789  O875    2.002   1_455 S
Zn789  O870    2.002   1_455 S
Zn790  O872    2.002   1_455 S
Zn790  O869    2.002   1_455 S
Zn791  O964    2.002   1_545 S
Zn791  O956    2.002   1_545 S
Zn792  O953    2.002   1_545 S
Zn792  O952    2.002   1_545 S
C793   O871    1.287   .     A
C793   C822    1.421   .     S
C793   O861    1.287   .     A
C794   N857    1.370   .     A
C794   Cl834   1.759   .     S
C794   C91     1.422   1_556 S
C795   Cl835   1.759   .     S
C795   N858    1.370   .     A
C796   N857    1.370   .     A
C796   Cl836   1.759   .     S
C796   C128    1.422   1_556 S
C797   N860    1.370   .     A
C797   Cl837   1.759   .     S
C798   N1035   1.370   .     A
C798   Cl838   1.759   .     S
C798   C95     1.422   1_556 S
C799   Cl839   1.759   .     S
C799   N1036   1.370   .     S
C800   Cl840   1.759   .     S
C800   C93     1.422   1_556 S
C800   N859    1.370   .     S
C801   H841    1.083   .     S
C801   C812    1.369   .     A
C801   C820    1.397   .     A
C802   C819    1.397   .     A
C802   C813    1.369   .     A
C802   H849    1.083   .     S
C803   C810    1.369   .     A
C803   H850    1.083   .     S
C803   C819    1.397   .     A
C804   C821    1.421   .     S
C804   O870    1.287   .     A
C804   O869    1.287   .     A
C805   C820    1.397   .     A
C805   C811    1.369   .     A
C805   H851    1.083   .     S
C806   C822    1.397   .     A
C806   H852    1.083   .     S
C806   C817    1.369   .     A
C807   C821    1.397   .     A
C807   C818    1.369   .     A
C807   H853    1.083   .     S
C808   H854    1.083   .     S
C808   C821    1.397   .     A
C808   C814    1.369   .     A
C809   C822    1.397   .     A
C809   C816    1.369   .     A
C809   H855    1.083   .     S
C810   C824    1.397   .     A
C810   H856    1.083   .     S
C811   C823    1.397   .     A
C811   H842    1.083   .     S
C812   H843    1.083   .     S
C812   C823    1.397   .     A
C813   C824    1.397   .     A
C813   H844    1.083   .     S
C814   C827    1.397   .     A
C814   H845    1.083   .     S
C815   O875    1.287   .     A
C815   C820    1.421   .     S
C815   O872    1.287   .     A
C816   H846    1.083   .     S
C816   C825    1.397   .     A
C817   H847    1.083   .     S
C817   C825    1.397   .     A
C818   C827    1.397   .     A
C818   H848    1.083   .     S
C819   C826    1.421   .     S
C823   C831    1.421   .     S
C824   C830    1.421   .     S
C825   C829    1.421   .     S
C826   O873    1.287   .     A
C826   O874    1.287   .     A
C827   C828    1.421   .     S
C828   O876    1.287   .     A
C828   O864    1.287   .     A
C829   O862    1.287   .     A
C829   O863    1.287   .     A
C830   O868    1.287   .     A
C830   O865    1.287   .     A
C831   O866    1.287   .     A
C831   O867    1.287   .     A
C832   N858    1.370   .     A
C832   Cl833   1.759   .     S
N857   Zn877   2.020   .     S
N858   Zn878   2.020   .     S
N859   C974    1.370   1_545 A
N859   Zn879   2.020   .     S
N860   Zn880   2.020   .     S
N860   C975    1.370   1_545 S
O861   Zn877   2.002   .     S
O862   Zn880   2.002   .     S
O863   Zn879   2.002   .     S
O864   Zn1056  2.002   .     S
O865   Zn1056  2.002   .     S
O866   Zn879   2.002   .     S
O867   Zn880   2.002   .     S
O868   Zn1055  2.002   .     S
O869   Zn790   2.002   1_655 S
O870   Zn789   2.002   1_655 S
O871   Zn878   2.002   .     S
O872   Zn790   2.002   1_655 S
O873   Zn877   2.002   .     S
O874   Zn878   2.002   .     S
O875   Zn789   2.002   1_655 S
O876   Zn1055  2.002   .     S
Zn879  O1052   2.002   1_545 S
Zn879  O1044   2.002   1_545 S
Zn880  O1041   2.002   1_545 S
Zn880  O1040   2.002   1_545 S
C881   O959    1.287   .     A
C881   C910    1.421   .     S
C881   O949    1.287   .     A
C882   N945    1.370   .     A
C882   Cl922   1.759   .     S
C882   C179    1.422   1_556 S
C883   Cl923   1.759   .     S
C883   N946    1.370   .     A
C884   N945    1.370   .     A
C884   Cl924   1.759   .     S
C884   C216    1.422   1_556 S
C885   N948    1.370   .     A
C885   Cl925   1.759   .     S
C886   N771    1.370   1_565 A
C886   Cl926   1.759   .     S
C886   C183    1.422   1_556 S
C887   Cl927   1.759   .     S
C887   N772    1.370   1_565 S
C888   Cl928   1.759   .     S
C888   C181    1.422   1_556 S
C888   N947    1.370   .     S
C889   H929    1.083   .     S
C889   C900    1.369   .     A
C889   C908    1.397   .     A
C890   C907    1.397   .     A
C890   C901    1.369   .     A
C890   H937    1.083   .     S
C891   C898    1.369   .     A
C891   H938    1.083   .     S
C891   C907    1.397   .     A
C892   C909    1.421   .     S
C892   O958    1.287   .     A
C892   O957    1.287   .     A
C893   C908    1.397   .     A
C893   C899    1.369   .     A
C893   H939    1.083   .     S
C894   C910    1.397   .     A
C894   H940    1.083   .     S
C894   C905    1.369   .     A
C895   C909    1.397   .     A
C895   C906    1.369   .     A
C895   H941    1.083   .     S
C896   H942    1.083   .     S
C896   C909    1.397   .     A
C896   C902    1.369   .     A
C897   C910    1.397   .     A
C897   C904    1.369   .     A
C897   H943    1.083   .     S
C898   C912    1.397   .     A
C898   H944    1.083   .     S
C899   C911    1.397   .     A
C899   H930    1.083   .     S
C900   H931    1.083   .     S
C900   C911    1.397   .     A
C901   C912    1.397   .     A
C901   H932    1.083   .     S
C902   C915    1.397   .     A
C902   H933    1.083   .     S
C903   O963    1.287   .     A
C903   C908    1.421   .     S
C903   O960    1.287   .     A
C904   H934    1.083   .     S
C904   C913    1.397   .     A
C905   H935    1.083   .     S
C905   C913    1.397   .     A
C906   C915    1.397   .     A
C906   H936    1.083   .     S
C907   C914    1.421   .     S
C911   C919    1.421   .     S
C912   C918    1.421   .     S
C913   C917    1.421   .     S
C914   O961    1.287   .     A
C914   O962    1.287   .     A
C915   C916    1.421   .     S
C916   O964    1.287   .     A
C916   O952    1.287   .     A
C917   O950    1.287   .     A
C917   O951    1.287   .     A
C918   O956    1.287   .     A
C918   O953    1.287   .     A
C919   O954    1.287   .     A
C919   O955    1.287   .     A
C920   N946    1.370   .     A
C920   Cl921   1.759   .     S
N945   Zn965   2.020   .     S
N946   Zn966   2.020   .     S
N947   Zn967   2.020   .     S
N948   Zn968   2.020   .     S
O949   Zn965   2.002   .     S
O950   Zn968   2.002   .     S
O951   Zn967   2.002   .     S
O952   Zn792   2.002   1_565 S
O953   Zn792   2.002   1_565 S
O954   Zn967   2.002   .     S
O955   Zn968   2.002   .     S
O956   Zn791   2.002   1_565 S
O957   Zn1054  2.002   .     S
O958   Zn1053  2.002   .     S
O959   Zn966   2.002   .     S
O960   Zn1054  2.002   .     S
O961   Zn965   2.002   .     S
O962   Zn966   2.002   .     S
O963   Zn1053  2.002   .     S
O964   Zn791   2.002   1_565 S
Zn965  O1051   2.002   1_455 S
Zn965  O1046   2.002   1_455 S
Zn966  O1048   2.002   1_455 S
Zn966  O1045   2.002   1_455 S
C969   O1047   1.287   .     A
C969   C998    1.421   .     S
C969   O1037   1.287   .     A
C970   N1033   1.370   .     A
C970   Cl1010  1.759   .     S
C970   C267    1.422   1_556 S
C971   Cl1011  1.759   .     S
C971   N1034   1.370   .     A
C972   N1033   1.370   .     A
C972   Cl1012  1.759   .     S
C972   C304    1.422   1_556 S
C973   N1036   1.370   .     A
C973   Cl1013  1.759   .     S
C974   N859    1.370   1_565 A
C974   Cl1014  1.759   .     S
C974   C271    1.422   1_556 S
C975   Cl1015  1.759   .     S
C975   N860    1.370   1_565 S
C976   Cl1016  1.759   .     S
C976   C269    1.422   1_556 S
C976   N1035   1.370   .     S
C977   H1017   1.083   .     S
C977   C988    1.369   .     A
C977   C996    1.397   .     A
C978   C995    1.397   .     A
C978   C989    1.369   .     A
C978   H1025   1.083   .     S
C979   C986    1.369   .     A
C979   H1026   1.083   .     S
C979   C995    1.397   .     A
C980   C997    1.421   .     S
C980   O1046   1.287   .     A
C980   O1045   1.287   .     A
C981   C996    1.397   .     A
C981   C987    1.369   .     A
C981   H1027   1.083   .     S
C982   C998    1.397   .     A
C982   H1028   1.083   .     S
C982   C993    1.369   .     A
C983   C997    1.397   .     A
C983   C994    1.369   .     A
C983   H1029   1.083   .     S
C984   H1030   1.083   .     S
C984   C997    1.397   .     A
C984   C990    1.369   .     A
C985   C998    1.397   .     A
C985   C992    1.369   .     A
C985   H1031   1.083   .     S
C986   C1000   1.397   .     A
C986   H1032   1.083   .     S
C987   C999    1.397   .     A
C987   H1018   1.083   .     S
C988   H1019   1.083   .     S
C988   C999    1.397   .     A
C989   C1000   1.397   .     A
C989   H1020   1.083   .     S
C990   C1003   1.397   .     A
C990   H1021   1.083   .     S
C991   O1051   1.287   .     A
C991   C996    1.421   .     S
C991   O1048   1.287   .     A
C992   H1022   1.083   .     S
C992   C1001   1.397   .     A
C993   H1023   1.083   .     S
C993   C1001   1.397   .     A
C994   C1003   1.397   .     A
C994   H1024   1.083   .     S
C995   C1002   1.421   .     S
C999   C1007   1.421   .     S
C1000  C1006   1.421   .     S
C1001  C1005   1.421   .     S
C1002  O1049   1.287   .     A
C1002  O1050   1.287   .     A
C1003  C1004   1.421   .     S
C1004  O1052   1.287   .     A
C1004  O1040   1.287   .     A
C1005  O1038   1.287   .     A
C1005  O1039   1.287   .     A
C1006  O1044   1.287   .     A
C1006  O1041   1.287   .     A
C1007  O1042   1.287   .     A
C1007  O1043   1.287   .     A
C1008  N1034   1.370   .     A
C1008  Cl1009  1.759   .     S
N1033  Zn1053  2.020   .     S
N1034  Zn1054  2.020   .     S
N1035  Zn1055  2.020   .     S
N1036  Zn1056  2.020   .     S
O1037  Zn1053  2.002   .     S
O1038  Zn1056  2.002   .     S
O1039  Zn1055  2.002   .     S
O1040  Zn880   2.002   1_565 S
O1041  Zn880   2.002   1_565 S
O1042  Zn1055  2.002   .     S
O1043  Zn1056  2.002   .     S
O1044  Zn879   2.002   1_565 S
O1045  Zn966   2.002   1_655 S
O1046  Zn965   2.002   1_655 S
O1047  Zn1054  2.002   .     S
O1048  Zn966   2.002   1_655 S
O1049  Zn1053  2.002   .     S
O1050  Zn1054  2.002   .     S
O1051  Zn965   2.002   1_655 S
O1052  Zn879   2.002   1_565 S
