data_str_m3_o1_o10_pcu_sym.202
_audit_creation_date              2020-01-03
_audit_creation_method            'Materials Studio'
_symmetry_space_group_name_H-M    'P1'
_symmetry_Int_Tables_number       1
_symmetry_cell_setting            triclinic
loop_
_symmetry_equiv_pos_as_xyz
  x,y,z
_cell_length_a                    26.0401
_cell_length_b                    32.2661
_cell_length_c                    29.9200
_cell_angle_alpha                 89.0371
_cell_angle_beta                  98.4401
_cell_angle_gamma                 92.9807
loop_
_atom_site_label
_atom_site_type_symbol
_atom_site_fract_x
_atom_site_fract_y
_atom_site_fract_z
_atom_site_U_iso_or_equiv
_atom_site_adp_type
_atom_site_occupancy
C1     C     0.17047   0.08700   0.16717   0.00000  Uiso   1.00
C2     C     0.16460   0.24646   0.16626   0.00000  Uiso   1.00
C3     C     0.06743   0.16533   0.15524   0.00000  Uiso   1.00
C4     C     0.26601   0.16712   0.17825   0.00000  Uiso   1.00
C5     C     0.01311   0.15683   0.15177   0.00000  Uiso   1.00
C6     C     0.32067   0.17378   0.18259   0.00000  Uiso   1.00
C7     C     0.18971   0.02147   0.13092   0.00000  Uiso   1.00
C8     C     0.14935   0.31212   0.20261   0.00000  Uiso   1.00
C9     C     0.18405   0.31202   0.13092   0.00000  Uiso   1.00
C10    C     0.15831   0.02115   0.20397   0.00000  Uiso   1.00
C11    C     0.16406   0.29077   0.16612   0.00000  Uiso   1.00
C12    C     0.17480   0.04275   0.16758   0.00000  Uiso   1.00
C13    C     0.19891   0.19386   0.02721   0.00000  Uiso   1.00
C14    C     0.13562   0.13803   0.30632   0.00000  Uiso   1.00
C15    C     0.19499   0.19633   0.31246   0.00000  Uiso   1.00
C16    C     0.13356   0.14032   0.02083   0.00000  Uiso   1.00
H17    H     0.19681   0.29513   0.10389   0.00000  Uiso   1.00
H18    H     0.14947   0.03770   0.23248   0.00000  Uiso   1.00
N19    N     0.16665   0.16666   0.28573   0.00000  Uiso   1.00
N20    N     0.16668   0.16668   0.04760   0.00000  Uiso   1.00
O21    O     0.16666   0.10558   0.20487   0.00000  Uiso   1.00
O22    O     0.16667   0.22775   0.12846   0.00000  Uiso   1.00
O23    O     0.16666   0.10559   0.12843   0.00000  Uiso   1.00
O24    O     0.16667   0.22774   0.20490   0.00000  Uiso   1.00
O25    O     0.09058   0.16666   0.19595   0.00000  Uiso   1.00
O26    O     0.24275   0.16667   0.13739   0.00000  Uiso   1.00
O27    O     0.09058   0.16667   0.11950   0.00000  Uiso   1.00
O28    O     0.24275   0.16666   0.21383   0.00000  Uiso   1.00
Zn29   Zn    0.16667   0.16666   0.21771   0.00000  Uiso   1.00
Zn30   Zn    0.16667   0.16667   0.11563   0.00000  Uiso   1.00
C31    C     0.32462   0.12222   0.12168   0.00000  Uiso   1.00
H32    H     0.29245   0.12677   0.09503   0.00000  Uiso   1.00
O33    O     0.01060   0.08842   0.12590   0.00000  Uiso   1.00
C34    C     0.01015   0.20729   0.21383   0.00000  Uiso   1.00
H35    H     0.00673   0.23946   0.20321   0.00000  Uiso   1.00
O36    O     0.03203   0.19891   0.25159   0.00000  Uiso   1.00
C37    C     0.21373   0.04225   0.09376   0.00000  Uiso   1.00
H38    H     0.23248   0.07279   0.09820   0.00000  Uiso   1.00
O39    O     0.21353   0.02501   0.05768   0.00000  Uiso   1.00
C40    C     0.12156   0.29180   0.23782   0.00000  Uiso   1.00
H41    H     0.09847   0.26321   0.23068   0.00000  Uiso   1.00
O42    O     0.12369   0.30704   0.27516   0.00000  Uiso   1.00
N43    N     0.23524   0.22158   0.05357   0.00000  Uiso   1.00
H44    H     0.22867   0.22800   0.08531   0.00000  Uiso   1.00
C45    C     0.28978   0.21668   0.05167   0.00000  Uiso   1.00
H46    H     0.31012   0.20852   0.08551   0.00000  Uiso   1.00
H47    H     0.30783   0.24655   0.04149   0.00000  Uiso   1.00
H48    H     0.29551   0.19199   0.02788   0.00000  Uiso   1.00
N49    N     0.10064   0.10955   0.27917   0.00000  Uiso   1.00
H50    H     0.09754   0.11304   0.24505   0.00000  Uiso   1.00
C51    C     0.09513   0.06653   0.29323   0.00000  Uiso   1.00
H52    H     0.08039   0.04709   0.26343   0.00000  Uiso   1.00
H53    H     0.06434   0.06206   0.31488   0.00000  Uiso   1.00
H54    H     0.13272   0.05531   0.31036   0.00000  Uiso   1.00
N55    N     0.21279   0.23362   0.29231   0.00000  Uiso   1.00
H56    H     0.20564   0.26035   0.30828   0.00000  Uiso   1.00
C57    C     0.26379   0.23465   0.27877   0.00000  Uiso   1.00
H58    H     0.28980   0.25849   0.29811   0.00000  Uiso   1.00
H59    H     0.26062   0.24380   0.24267   0.00000  Uiso   1.00
H60    H     0.28150   0.20413   0.28419   0.00000  Uiso   1.00
N61    N     0.09508   0.11744   0.04116   0.00000  Uiso   1.00
H62    H     0.10109   0.08643   0.04724   0.00000  Uiso   1.00
C63    C     0.04214   0.12911   0.02720   0.00000  Uiso   1.00
H64    H     0.01474   0.10576   0.03955   0.00000  Uiso   1.00
H65    H     0.03208   0.13090   0.32329   0.00000  Uiso   1.00
H66    H     0.03721   0.15992   0.04113   0.00000  Uiso   1.00
C67    C     0.50380   0.08700   0.16717   0.00000  Uiso   1.00
C68    C     0.49793   0.24646   0.16626   0.00000  Uiso   1.00
C69    C     0.40076   0.16533   0.15524   0.00000  Uiso   1.00
C70    C     0.59934   0.16712   0.17825   0.00000  Uiso   1.00
C71    C     0.34644   0.15683   0.15177   0.00000  Uiso   1.00
C72    C     0.65400   0.17378   0.18259   0.00000  Uiso   1.00
C73    C     0.52304   0.02147   0.13092   0.00000  Uiso   1.00
C74    C     0.48268   0.31212   0.20261   0.00000  Uiso   1.00
C75    C     0.51738   0.31202   0.13092   0.00000  Uiso   1.00
C76    C     0.49164   0.02115   0.20397   0.00000  Uiso   1.00
C77    C     0.49740   0.29077   0.16612   0.00000  Uiso   1.00
C78    C     0.50813   0.04275   0.16758   0.00000  Uiso   1.00
C79    C     0.53224   0.19386   0.02721   0.00000  Uiso   1.00
C80    C     0.46896   0.13803   0.30632   0.00000  Uiso   1.00
C81    C     0.52832   0.19633   0.31246   0.00000  Uiso   1.00
C82    C     0.46690   0.14032   0.02083   0.00000  Uiso   1.00
H83    H     0.53014   0.29513   0.10389   0.00000  Uiso   1.00
H84    H     0.48280   0.03770   0.23248   0.00000  Uiso   1.00
N85    N     0.49999   0.16666   0.28573   0.00000  Uiso   1.00
N86    N     0.50001   0.16668   0.04760   0.00000  Uiso   1.00
O87    O     0.50000   0.10558   0.20487   0.00000  Uiso   1.00
O88    O     0.50000   0.22775   0.12846   0.00000  Uiso   1.00
O89    O     0.50000   0.10559   0.12843   0.00000  Uiso   1.00
O90    O     0.50000   0.22774   0.20490   0.00000  Uiso   1.00
O91    O     0.42392   0.16666   0.19595   0.00000  Uiso   1.00
O92    O     0.57608   0.16667   0.13739   0.00000  Uiso   1.00
O93    O     0.42392   0.16667   0.11950   0.00000  Uiso   1.00
O94    O     0.57608   0.16666   0.21383   0.00000  Uiso   1.00
Zn95   Zn    0.50000   0.16666   0.21771   0.00000  Uiso   1.00
Zn96   Zn    0.50000   0.16667   0.11563   0.00000  Uiso   1.00
C97    C     0.65795   0.12222   0.12168   0.00000  Uiso   1.00
H98    H     0.62579   0.12677   0.09503   0.00000  Uiso   1.00
O99    O     0.34393   0.08842   0.12590   0.00000  Uiso   1.00
C100   C     0.34349   0.20729   0.21383   0.00000  Uiso   1.00
H101   H     0.34006   0.23946   0.20321   0.00000  Uiso   1.00
O102   O     0.36537   0.19891   0.25159   0.00000  Uiso   1.00
C103   C     0.54707   0.04225   0.09376   0.00000  Uiso   1.00
H104   H     0.56582   0.07279   0.09820   0.00000  Uiso   1.00
O105   O     0.54687   0.02501   0.05768   0.00000  Uiso   1.00
C106   C     0.45489   0.29180   0.23782   0.00000  Uiso   1.00
H107   H     0.43181   0.26321   0.23068   0.00000  Uiso   1.00
O108   O     0.45703   0.30704   0.27516   0.00000  Uiso   1.00
N109   N     0.56857   0.22158   0.05357   0.00000  Uiso   1.00
H110   H     0.56200   0.22800   0.08531   0.00000  Uiso   1.00
C111   C     0.62311   0.21668   0.05167   0.00000  Uiso   1.00
H112   H     0.64346   0.20852   0.08551   0.00000  Uiso   1.00
H113   H     0.64116   0.24655   0.04149   0.00000  Uiso   1.00
H114   H     0.62885   0.19199   0.02788   0.00000  Uiso   1.00
N115   N     0.43397   0.10955   0.27917   0.00000  Uiso   1.00
H116   H     0.43087   0.11304   0.24505   0.00000  Uiso   1.00
C117   C     0.42846   0.06653   0.29323   0.00000  Uiso   1.00
H118   H     0.41372   0.04709   0.26343   0.00000  Uiso   1.00
H119   H     0.39767   0.06206   0.31488   0.00000  Uiso   1.00
H120   H     0.46605   0.05531   0.31036   0.00000  Uiso   1.00
N121   N     0.54612   0.23362   0.29231   0.00000  Uiso   1.00
H122   H     0.53897   0.26035   0.30828   0.00000  Uiso   1.00
C123   C     0.59712   0.23465   0.27877   0.00000  Uiso   1.00
H124   H     0.62314   0.25849   0.29811   0.00000  Uiso   1.00
H125   H     0.59395   0.24380   0.24267   0.00000  Uiso   1.00
H126   H     0.61483   0.20413   0.28419   0.00000  Uiso   1.00
N127   N     0.42842   0.11744   0.04116   0.00000  Uiso   1.00
H128   H     0.43443   0.08643   0.04724   0.00000  Uiso   1.00
C129   C     0.37547   0.12911   0.02720   0.00000  Uiso   1.00
H130   H     0.34808   0.10576   0.03955   0.00000  Uiso   1.00
H131   H     0.36541   0.13090   0.32329   0.00000  Uiso   1.00
H132   H     0.37054   0.15992   0.04113   0.00000  Uiso   1.00
C133   C     0.83713   0.08700   0.16717   0.00000  Uiso   1.00
C134   C     0.83127   0.24646   0.16626   0.00000  Uiso   1.00
C135   C     0.73409   0.16533   0.15524   0.00000  Uiso   1.00
C136   C     0.93268   0.16712   0.17825   0.00000  Uiso   1.00
C137   C     0.67977   0.15683   0.15177   0.00000  Uiso   1.00
C138   C     0.98733   0.17378   0.18259   0.00000  Uiso   1.00
C139   C     0.85638   0.02147   0.13092   0.00000  Uiso   1.00
C140   C     0.81602   0.31212   0.20261   0.00000  Uiso   1.00
C141   C     0.85071   0.31202   0.13092   0.00000  Uiso   1.00
C142   C     0.82498   0.02115   0.20397   0.00000  Uiso   1.00
C143   C     0.83073   0.29077   0.16612   0.00000  Uiso   1.00
C144   C     0.84146   0.04275   0.16758   0.00000  Uiso   1.00
C145   C     0.86558   0.19386   0.02721   0.00000  Uiso   1.00
C146   C     0.80229   0.13803   0.30632   0.00000  Uiso   1.00
C147   C     0.86165   0.19633   0.31246   0.00000  Uiso   1.00
C148   C     0.80023   0.14032   0.02083   0.00000  Uiso   1.00
H149   H     0.86348   0.29513   0.10389   0.00000  Uiso   1.00
H150   H     0.81614   0.03770   0.23248   0.00000  Uiso   1.00
N151   N     0.83332   0.16666   0.28573   0.00000  Uiso   1.00
N152   N     0.83335   0.16668   0.04760   0.00000  Uiso   1.00
O153   O     0.83333   0.10558   0.20487   0.00000  Uiso   1.00
O154   O     0.83334   0.22775   0.12846   0.00000  Uiso   1.00
O155   O     0.83333   0.10559   0.12843   0.00000  Uiso   1.00
O156   O     0.83334   0.22774   0.20490   0.00000  Uiso   1.00
O157   O     0.75725   0.16666   0.19595   0.00000  Uiso   1.00
O158   O     0.90942   0.16667   0.13739   0.00000  Uiso   1.00
O159   O     0.75725   0.16667   0.11950   0.00000  Uiso   1.00
O160   O     0.90942   0.16666   0.21383   0.00000  Uiso   1.00
Zn161  Zn    0.83333   0.16666   0.21771   0.00000  Uiso   1.00
Zn162  Zn    0.83333   0.16667   0.11563   0.00000  Uiso   1.00
C163   C     0.99129   0.12222   0.12168   0.00000  Uiso   1.00
H164   H     0.95912   0.12677   0.09503   0.00000  Uiso   1.00
O165   O     0.67726   0.08842   0.12590   0.00000  Uiso   1.00
C166   C     0.67682   0.20729   0.21383   0.00000  Uiso   1.00
H167   H     0.67340   0.23946   0.20321   0.00000  Uiso   1.00
O168   O     0.69870   0.19891   0.25159   0.00000  Uiso   1.00
C169   C     0.88040   0.04225   0.09376   0.00000  Uiso   1.00
H170   H     0.89915   0.07279   0.09820   0.00000  Uiso   1.00
O171   O     0.88020   0.02501   0.05768   0.00000  Uiso   1.00
C172   C     0.78822   0.29180   0.23782   0.00000  Uiso   1.00
H173   H     0.76514   0.26321   0.23068   0.00000  Uiso   1.00
O174   O     0.79036   0.30704   0.27516   0.00000  Uiso   1.00
N175   N     0.90190   0.22158   0.05357   0.00000  Uiso   1.00
H176   H     0.89534   0.22800   0.08531   0.00000  Uiso   1.00
C177   C     0.95644   0.21668   0.05167   0.00000  Uiso   1.00
H178   H     0.97679   0.20852   0.08551   0.00000  Uiso   1.00
H179   H     0.97450   0.24655   0.04149   0.00000  Uiso   1.00
H180   H     0.96218   0.19199   0.02788   0.00000  Uiso   1.00
N181   N     0.76731   0.10955   0.27917   0.00000  Uiso   1.00
H182   H     0.76421   0.11304   0.24505   0.00000  Uiso   1.00
C183   C     0.76179   0.06653   0.29323   0.00000  Uiso   1.00
H184   H     0.74706   0.04709   0.26343   0.00000  Uiso   1.00
H185   H     0.73100   0.06206   0.31488   0.00000  Uiso   1.00
H186   H     0.79939   0.05531   0.31036   0.00000  Uiso   1.00
N187   N     0.87946   0.23362   0.29231   0.00000  Uiso   1.00
H188   H     0.87231   0.26035   0.30828   0.00000  Uiso   1.00
C189   C     0.93046   0.23465   0.27877   0.00000  Uiso   1.00
H190   H     0.95647   0.25849   0.29811   0.00000  Uiso   1.00
H191   H     0.92729   0.24380   0.24267   0.00000  Uiso   1.00
H192   H     0.94816   0.20413   0.28419   0.00000  Uiso   1.00
N193   N     0.76175   0.11744   0.04116   0.00000  Uiso   1.00
H194   H     0.76776   0.08643   0.04724   0.00000  Uiso   1.00
C195   C     0.70881   0.12911   0.02720   0.00000  Uiso   1.00
H196   H     0.68141   0.10576   0.03955   0.00000  Uiso   1.00
H197   H     0.69874   0.13090   0.32329   0.00000  Uiso   1.00
H198   H     0.70388   0.15992   0.04113   0.00000  Uiso   1.00
C199   C     0.17047   0.42033   0.16717   0.00000  Uiso   1.00
C200   C     0.16460   0.57979   0.16626   0.00000  Uiso   1.00
C201   C     0.06743   0.49867   0.15524   0.00000  Uiso   1.00
C202   C     0.26601   0.50045   0.17825   0.00000  Uiso   1.00
C203   C     0.01311   0.49017   0.15177   0.00000  Uiso   1.00
C204   C     0.32067   0.50711   0.18259   0.00000  Uiso   1.00
C205   C     0.18971   0.35480   0.13092   0.00000  Uiso   1.00
C206   C     0.14935   0.64545   0.20261   0.00000  Uiso   1.00
C207   C     0.18405   0.64535   0.13092   0.00000  Uiso   1.00
C208   C     0.15831   0.35448   0.20397   0.00000  Uiso   1.00
C209   C     0.16406   0.62410   0.16612   0.00000  Uiso   1.00
C210   C     0.17480   0.37609   0.16758   0.00000  Uiso   1.00
C211   C     0.19891   0.52720   0.02721   0.00000  Uiso   1.00
C212   C     0.13562   0.47136   0.30632   0.00000  Uiso   1.00
C213   C     0.19499   0.52967   0.31246   0.00000  Uiso   1.00
C214   C     0.13356   0.47365   0.02083   0.00000  Uiso   1.00
H215   H     0.19681   0.62846   0.10389   0.00000  Uiso   1.00
H216   H     0.14947   0.37104   0.23248   0.00000  Uiso   1.00
N217   N     0.16665   0.49999   0.28573   0.00000  Uiso   1.00
N218   N     0.16668   0.50001   0.04760   0.00000  Uiso   1.00
O219   O     0.16666   0.43892   0.20487   0.00000  Uiso   1.00
O220   O     0.16667   0.56108   0.12846   0.00000  Uiso   1.00
O221   O     0.16666   0.43893   0.12843   0.00000  Uiso   1.00
O222   O     0.16667   0.56107   0.20490   0.00000  Uiso   1.00
O223   O     0.09058   0.50000   0.19595   0.00000  Uiso   1.00
O224   O     0.24275   0.50000   0.13739   0.00000  Uiso   1.00
O225   O     0.09058   0.50000   0.11950   0.00000  Uiso   1.00
O226   O     0.24275   0.50000   0.21383   0.00000  Uiso   1.00
Zn227  Zn    0.16667   0.49999   0.21771   0.00000  Uiso   1.00
Zn228  Zn    0.16667   0.50001   0.11563   0.00000  Uiso   1.00
C229   C     0.32462   0.45555   0.12168   0.00000  Uiso   1.00
H230   H     0.29245   0.46010   0.09503   0.00000  Uiso   1.00
O231   O     0.01060   0.42176   0.12590   0.00000  Uiso   1.00
C232   C     0.01015   0.54062   0.21383   0.00000  Uiso   1.00
H233   H     0.00673   0.57280   0.20321   0.00000  Uiso   1.00
O234   O     0.03203   0.53224   0.25159   0.00000  Uiso   1.00
C235   C     0.21373   0.37558   0.09376   0.00000  Uiso   1.00
H236   H     0.23248   0.40612   0.09820   0.00000  Uiso   1.00
O237   O     0.21353   0.35834   0.05768   0.00000  Uiso   1.00
C238   C     0.12156   0.62513   0.23782   0.00000  Uiso   1.00
H239   H     0.09847   0.59654   0.23068   0.00000  Uiso   1.00
O240   O     0.12369   0.64037   0.27516   0.00000  Uiso   1.00
N241   N     0.23524   0.55492   0.05357   0.00000  Uiso   1.00
H242   H     0.22867   0.56134   0.08531   0.00000  Uiso   1.00
C243   C     0.28978   0.55001   0.05167   0.00000  Uiso   1.00
H244   H     0.31012   0.54185   0.08551   0.00000  Uiso   1.00
H245   H     0.30783   0.57988   0.04149   0.00000  Uiso   1.00
H246   H     0.29551   0.52532   0.02788   0.00000  Uiso   1.00
N247   N     0.10064   0.44289   0.27917   0.00000  Uiso   1.00
H248   H     0.09754   0.44637   0.24505   0.00000  Uiso   1.00
C249   C     0.09513   0.39986   0.29323   0.00000  Uiso   1.00
H250   H     0.08039   0.38042   0.26343   0.00000  Uiso   1.00
H251   H     0.06434   0.39540   0.31488   0.00000  Uiso   1.00
H252   H     0.13272   0.38865   0.31036   0.00000  Uiso   1.00
N253   N     0.21279   0.56695   0.29231   0.00000  Uiso   1.00
H254   H     0.20564   0.59369   0.30828   0.00000  Uiso   1.00
C255   C     0.26379   0.56799   0.27877   0.00000  Uiso   1.00
H256   H     0.28980   0.59182   0.29811   0.00000  Uiso   1.00
H257   H     0.26062   0.57713   0.24267   0.00000  Uiso   1.00
H258   H     0.28150   0.53746   0.28419   0.00000  Uiso   1.00
N259   N     0.09508   0.45077   0.04116   0.00000  Uiso   1.00
H260   H     0.10109   0.41977   0.04724   0.00000  Uiso   1.00
C261   C     0.04214   0.46244   0.02720   0.00000  Uiso   1.00
H262   H     0.01474   0.43910   0.03955   0.00000  Uiso   1.00
H263   H     0.03208   0.46424   0.32329   0.00000  Uiso   1.00
H264   H     0.03721   0.49326   0.04113   0.00000  Uiso   1.00
C265   C     0.50380   0.42033   0.16717   0.00000  Uiso   1.00
C266   C     0.49793   0.57979   0.16626   0.00000  Uiso   1.00
C267   C     0.40076   0.49867   0.15524   0.00000  Uiso   1.00
C268   C     0.59934   0.50045   0.17825   0.00000  Uiso   1.00
C269   C     0.34644   0.49017   0.15177   0.00000  Uiso   1.00
C270   C     0.65400   0.50711   0.18259   0.00000  Uiso   1.00
C271   C     0.52304   0.35480   0.13092   0.00000  Uiso   1.00
C272   C     0.48268   0.64545   0.20261   0.00000  Uiso   1.00
C273   C     0.51738   0.64535   0.13092   0.00000  Uiso   1.00
C274   C     0.49164   0.35448   0.20397   0.00000  Uiso   1.00
C275   C     0.49740   0.62410   0.16612   0.00000  Uiso   1.00
C276   C     0.50813   0.37609   0.16758   0.00000  Uiso   1.00
C277   C     0.53224   0.52720   0.02721   0.00000  Uiso   1.00
C278   C     0.46896   0.47136   0.30632   0.00000  Uiso   1.00
C279   C     0.52832   0.52967   0.31246   0.00000  Uiso   1.00
C280   C     0.46690   0.47365   0.02083   0.00000  Uiso   1.00
H281   H     0.53014   0.62846   0.10389   0.00000  Uiso   1.00
H282   H     0.48280   0.37104   0.23248   0.00000  Uiso   1.00
N283   N     0.49999   0.49999   0.28573   0.00000  Uiso   1.00
N284   N     0.50001   0.50001   0.04760   0.00000  Uiso   1.00
O285   O     0.50000   0.43892   0.20487   0.00000  Uiso   1.00
O286   O     0.50000   0.56108   0.12846   0.00000  Uiso   1.00
O287   O     0.50000   0.43893   0.12843   0.00000  Uiso   1.00
O288   O     0.50000   0.56107   0.20490   0.00000  Uiso   1.00
O289   O     0.42392   0.50000   0.19595   0.00000  Uiso   1.00
O290   O     0.57608   0.50000   0.13739   0.00000  Uiso   1.00
O291   O     0.42392   0.50000   0.11950   0.00000  Uiso   1.00
O292   O     0.57608   0.50000   0.21383   0.00000  Uiso   1.00
Zn293  Zn    0.50000   0.49999   0.21771   0.00000  Uiso   1.00
Zn294  Zn    0.50000   0.50001   0.11563   0.00000  Uiso   1.00
C295   C     0.65795   0.45555   0.12168   0.00000  Uiso   1.00
H296   H     0.62579   0.46010   0.09503   0.00000  Uiso   1.00
O297   O     0.34393   0.42176   0.12590   0.00000  Uiso   1.00
C298   C     0.34349   0.54062   0.21383   0.00000  Uiso   1.00
H299   H     0.34006   0.57280   0.20321   0.00000  Uiso   1.00
O300   O     0.36537   0.53224   0.25159   0.00000  Uiso   1.00
C301   C     0.54707   0.37558   0.09376   0.00000  Uiso   1.00
H302   H     0.56582   0.40612   0.09820   0.00000  Uiso   1.00
O303   O     0.54687   0.35834   0.05768   0.00000  Uiso   1.00
C304   C     0.45489   0.62513   0.23782   0.00000  Uiso   1.00
H305   H     0.43181   0.59654   0.23068   0.00000  Uiso   1.00
O306   O     0.45703   0.64037   0.27516   0.00000  Uiso   1.00
N307   N     0.56857   0.55492   0.05357   0.00000  Uiso   1.00
H308   H     0.56200   0.56134   0.08531   0.00000  Uiso   1.00
C309   C     0.62311   0.55001   0.05167   0.00000  Uiso   1.00
H310   H     0.64346   0.54185   0.08551   0.00000  Uiso   1.00
H311   H     0.64116   0.57988   0.04149   0.00000  Uiso   1.00
H312   H     0.62885   0.52532   0.02788   0.00000  Uiso   1.00
N313   N     0.43397   0.44289   0.27917   0.00000  Uiso   1.00
H314   H     0.43087   0.44637   0.24505   0.00000  Uiso   1.00
C315   C     0.42846   0.39986   0.29323   0.00000  Uiso   1.00
H316   H     0.41372   0.38042   0.26343   0.00000  Uiso   1.00
H317   H     0.39767   0.39540   0.31488   0.00000  Uiso   1.00
H318   H     0.46605   0.38865   0.31036   0.00000  Uiso   1.00
N319   N     0.54612   0.56695   0.29231   0.00000  Uiso   1.00
H320   H     0.53897   0.59369   0.30828   0.00000  Uiso   1.00
C321   C     0.59712   0.56799   0.27877   0.00000  Uiso   1.00
H322   H     0.62314   0.59182   0.29811   0.00000  Uiso   1.00
H323   H     0.59395   0.57713   0.24267   0.00000  Uiso   1.00
H324   H     0.61483   0.53746   0.28419   0.00000  Uiso   1.00
N325   N     0.42842   0.45077   0.04116   0.00000  Uiso   1.00
H326   H     0.43443   0.41977   0.04724   0.00000  Uiso   1.00
C327   C     0.37547   0.46244   0.02720   0.00000  Uiso   1.00
H328   H     0.34808   0.43910   0.03955   0.00000  Uiso   1.00
H329   H     0.36541   0.46424   0.32329   0.00000  Uiso   1.00
H330   H     0.37054   0.49326   0.04113   0.00000  Uiso   1.00
C331   C     0.83713   0.42033   0.16717   0.00000  Uiso   1.00
C332   C     0.83127   0.57979   0.16626   0.00000  Uiso   1.00
C333   C     0.73409   0.49867   0.15524   0.00000  Uiso   1.00
C334   C     0.93268   0.50045   0.17825   0.00000  Uiso   1.00
C335   C     0.67977   0.49017   0.15177   0.00000  Uiso   1.00
C336   C     0.98733   0.50711   0.18259   0.00000  Uiso   1.00
C337   C     0.85638   0.35480   0.13092   0.00000  Uiso   1.00
C338   C     0.81602   0.64545   0.20261   0.00000  Uiso   1.00
C339   C     0.85071   0.64535   0.13092   0.00000  Uiso   1.00
C340   C     0.82498   0.35448   0.20397   0.00000  Uiso   1.00
C341   C     0.83073   0.62410   0.16612   0.00000  Uiso   1.00
C342   C     0.84146   0.37609   0.16758   0.00000  Uiso   1.00
C343   C     0.86558   0.52720   0.02721   0.00000  Uiso   1.00
C344   C     0.80229   0.47136   0.30632   0.00000  Uiso   1.00
C345   C     0.86165   0.52967   0.31246   0.00000  Uiso   1.00
C346   C     0.80023   0.47365   0.02083   0.00000  Uiso   1.00
H347   H     0.86348   0.62846   0.10389   0.00000  Uiso   1.00
H348   H     0.81614   0.37104   0.23248   0.00000  Uiso   1.00
N349   N     0.83332   0.49999   0.28573   0.00000  Uiso   1.00
N350   N     0.83335   0.50001   0.04760   0.00000  Uiso   1.00
O351   O     0.83333   0.43892   0.20487   0.00000  Uiso   1.00
O352   O     0.83334   0.56108   0.12846   0.00000  Uiso   1.00
O353   O     0.83333   0.43893   0.12843   0.00000  Uiso   1.00
O354   O     0.83334   0.56107   0.20490   0.00000  Uiso   1.00
O355   O     0.75725   0.50000   0.19595   0.00000  Uiso   1.00
O356   O     0.90942   0.50000   0.13739   0.00000  Uiso   1.00
O357   O     0.75725   0.50000   0.11950   0.00000  Uiso   1.00
O358   O     0.90942   0.50000   0.21383   0.00000  Uiso   1.00
Zn359  Zn    0.83333   0.49999   0.21771   0.00000  Uiso   1.00
Zn360  Zn    0.83333   0.50001   0.11563   0.00000  Uiso   1.00
C361   C     0.99129   0.45555   0.12168   0.00000  Uiso   1.00
H362   H     0.95912   0.46010   0.09503   0.00000  Uiso   1.00
O363   O     0.67726   0.42176   0.12590   0.00000  Uiso   1.00
C364   C     0.67682   0.54062   0.21383   0.00000  Uiso   1.00
H365   H     0.67340   0.57280   0.20321   0.00000  Uiso   1.00
O366   O     0.69870   0.53224   0.25159   0.00000  Uiso   1.00
C367   C     0.88040   0.37558   0.09376   0.00000  Uiso   1.00
H368   H     0.89915   0.40612   0.09820   0.00000  Uiso   1.00
O369   O     0.88020   0.35834   0.05768   0.00000  Uiso   1.00
C370   C     0.78822   0.62513   0.23782   0.00000  Uiso   1.00
H371   H     0.76514   0.59654   0.23068   0.00000  Uiso   1.00
O372   O     0.79036   0.64037   0.27516   0.00000  Uiso   1.00
N373   N     0.90190   0.55492   0.05357   0.00000  Uiso   1.00
H374   H     0.89534   0.56134   0.08531   0.00000  Uiso   1.00
C375   C     0.95644   0.55001   0.05167   0.00000  Uiso   1.00
H376   H     0.97679   0.54185   0.08551   0.00000  Uiso   1.00
H377   H     0.97450   0.57988   0.04149   0.00000  Uiso   1.00
H378   H     0.96218   0.52532   0.02788   0.00000  Uiso   1.00
N379   N     0.76731   0.44289   0.27917   0.00000  Uiso   1.00
H380   H     0.76421   0.44637   0.24505   0.00000  Uiso   1.00
C381   C     0.76179   0.39986   0.29323   0.00000  Uiso   1.00
H382   H     0.74706   0.38042   0.26343   0.00000  Uiso   1.00
H383   H     0.73100   0.39540   0.31488   0.00000  Uiso   1.00
H384   H     0.79939   0.38865   0.31036   0.00000  Uiso   1.00
N385   N     0.87946   0.56695   0.29231   0.00000  Uiso   1.00
H386   H     0.87231   0.59369   0.30828   0.00000  Uiso   1.00
C387   C     0.93046   0.56799   0.27877   0.00000  Uiso   1.00
H388   H     0.95647   0.59182   0.29811   0.00000  Uiso   1.00
H389   H     0.92729   0.57713   0.24267   0.00000  Uiso   1.00
H390   H     0.94816   0.53746   0.28419   0.00000  Uiso   1.00
N391   N     0.76175   0.45077   0.04116   0.00000  Uiso   1.00
H392   H     0.76776   0.41977   0.04724   0.00000  Uiso   1.00
C393   C     0.70881   0.46244   0.02720   0.00000  Uiso   1.00
H394   H     0.68141   0.43910   0.03955   0.00000  Uiso   1.00
H395   H     0.69874   0.46424   0.32329   0.00000  Uiso   1.00
H396   H     0.70388   0.49326   0.04113   0.00000  Uiso   1.00
C397   C     0.17047   0.75366   0.16717   0.00000  Uiso   1.00
C398   C     0.16460   0.91312   0.16626   0.00000  Uiso   1.00
C399   C     0.06743   0.83200   0.15524   0.00000  Uiso   1.00
C400   C     0.26601   0.83378   0.17825   0.00000  Uiso   1.00
C401   C     0.01311   0.82350   0.15177   0.00000  Uiso   1.00
C402   C     0.32067   0.84045   0.18259   0.00000  Uiso   1.00
C403   C     0.18971   0.68813   0.13092   0.00000  Uiso   1.00
C404   C     0.14935   0.97879   0.20261   0.00000  Uiso   1.00
C405   C     0.18405   0.97869   0.13092   0.00000  Uiso   1.00
C406   C     0.15831   0.68782   0.20397   0.00000  Uiso   1.00
C407   C     0.16406   0.95744   0.16612   0.00000  Uiso   1.00
C408   C     0.17480   0.70942   0.16758   0.00000  Uiso   1.00
C409   C     0.19891   0.86053   0.02721   0.00000  Uiso   1.00
C410   C     0.13562   0.80469   0.30632   0.00000  Uiso   1.00
C411   C     0.19499   0.86300   0.31246   0.00000  Uiso   1.00
C412   C     0.13356   0.80698   0.02083   0.00000  Uiso   1.00
H413   H     0.19681   0.96180   0.10389   0.00000  Uiso   1.00
H414   H     0.14947   0.70437   0.23248   0.00000  Uiso   1.00
N415   N     0.16665   0.83332   0.28573   0.00000  Uiso   1.00
N416   N     0.16668   0.83334   0.04760   0.00000  Uiso   1.00
O417   O     0.16666   0.77225   0.20487   0.00000  Uiso   1.00
O418   O     0.16667   0.89442   0.12846   0.00000  Uiso   1.00
O419   O     0.16666   0.77226   0.12843   0.00000  Uiso   1.00
O420   O     0.16667   0.89441   0.20490   0.00000  Uiso   1.00
O421   O     0.09058   0.83333   0.19595   0.00000  Uiso   1.00
O422   O     0.24275   0.83334   0.13739   0.00000  Uiso   1.00
O423   O     0.09058   0.83334   0.11950   0.00000  Uiso   1.00
O424   O     0.24275   0.83333   0.21383   0.00000  Uiso   1.00
Zn425  Zn    0.16667   0.83333   0.21771   0.00000  Uiso   1.00
Zn426  Zn    0.16667   0.83334   0.11563   0.00000  Uiso   1.00
C427   C     0.32462   0.78888   0.12168   0.00000  Uiso   1.00
H428   H     0.29245   0.79344   0.09503   0.00000  Uiso   1.00
O429   O     0.01060   0.75509   0.12590   0.00000  Uiso   1.00
C430   C     0.01015   0.87396   0.21383   0.00000  Uiso   1.00
H431   H     0.00673   0.90613   0.20321   0.00000  Uiso   1.00
O432   O     0.03203   0.86558   0.25159   0.00000  Uiso   1.00
C433   C     0.21373   0.70892   0.09376   0.00000  Uiso   1.00
H434   H     0.23248   0.73946   0.09820   0.00000  Uiso   1.00
O435   O     0.21353   0.69168   0.05768   0.00000  Uiso   1.00
C436   C     0.12156   0.95847   0.23782   0.00000  Uiso   1.00
H437   H     0.09847   0.92988   0.23068   0.00000  Uiso   1.00
O438   O     0.12369   0.97371   0.27516   0.00000  Uiso   1.00
N439   N     0.23524   0.88825   0.05357   0.00000  Uiso   1.00
H440   H     0.22867   0.89467   0.08531   0.00000  Uiso   1.00
C441   C     0.28978   0.88335   0.05167   0.00000  Uiso   1.00
H442   H     0.31012   0.87518   0.08551   0.00000  Uiso   1.00
H443   H     0.30783   0.91322   0.04149   0.00000  Uiso   1.00
H444   H     0.29551   0.85866   0.02788   0.00000  Uiso   1.00
N445   N     0.10064   0.77622   0.27917   0.00000  Uiso   1.00
H446   H     0.09754   0.77971   0.24505   0.00000  Uiso   1.00
C447   C     0.09513   0.73319   0.29323   0.00000  Uiso   1.00
H448   H     0.08039   0.71376   0.26343   0.00000  Uiso   1.00
H449   H     0.06434   0.72873   0.31488   0.00000  Uiso   1.00
H450   H     0.13272   0.72198   0.31036   0.00000  Uiso   1.00
N451   N     0.21279   0.90028   0.29231   0.00000  Uiso   1.00
H452   H     0.20564   0.92702   0.30828   0.00000  Uiso   1.00
C453   C     0.26379   0.90132   0.27877   0.00000  Uiso   1.00
H454   H     0.28980   0.92516   0.29811   0.00000  Uiso   1.00
H455   H     0.26062   0.91046   0.24267   0.00000  Uiso   1.00
H456   H     0.28150   0.87080   0.28419   0.00000  Uiso   1.00
N457   N     0.09508   0.78411   0.04116   0.00000  Uiso   1.00
H458   H     0.10109   0.75310   0.04724   0.00000  Uiso   1.00
C459   C     0.04214   0.79578   0.02720   0.00000  Uiso   1.00
H460   H     0.01474   0.77243   0.03955   0.00000  Uiso   1.00
H461   H     0.03208   0.79757   0.32329   0.00000  Uiso   1.00
H462   H     0.03721   0.82659   0.04113   0.00000  Uiso   1.00
C463   C     0.50380   0.75366   0.16717   0.00000  Uiso   1.00
C464   C     0.49793   0.91312   0.16626   0.00000  Uiso   1.00
C465   C     0.40076   0.83200   0.15524   0.00000  Uiso   1.00
C466   C     0.59934   0.83378   0.17825   0.00000  Uiso   1.00
C467   C     0.34644   0.82350   0.15177   0.00000  Uiso   1.00
C468   C     0.65400   0.84045   0.18259   0.00000  Uiso   1.00
C469   C     0.52304   0.68813   0.13092   0.00000  Uiso   1.00
C470   C     0.48268   0.97879   0.20261   0.00000  Uiso   1.00
C471   C     0.51738   0.97869   0.13092   0.00000  Uiso   1.00
C472   C     0.49164   0.68782   0.20397   0.00000  Uiso   1.00
C473   C     0.49740   0.95744   0.16612   0.00000  Uiso   1.00
C474   C     0.50813   0.70942   0.16758   0.00000  Uiso   1.00
C475   C     0.53224   0.86053   0.02721   0.00000  Uiso   1.00
C476   C     0.46896   0.80469   0.30632   0.00000  Uiso   1.00
C477   C     0.52832   0.86300   0.31246   0.00000  Uiso   1.00
C478   C     0.46690   0.80698   0.02083   0.00000  Uiso   1.00
H479   H     0.53014   0.96180   0.10389   0.00000  Uiso   1.00
H480   H     0.48280   0.70437   0.23248   0.00000  Uiso   1.00
N481   N     0.49999   0.83332   0.28573   0.00000  Uiso   1.00
N482   N     0.50001   0.83334   0.04760   0.00000  Uiso   1.00
O483   O     0.50000   0.77225   0.20487   0.00000  Uiso   1.00
O484   O     0.50000   0.89442   0.12846   0.00000  Uiso   1.00
O485   O     0.50000   0.77226   0.12843   0.00000  Uiso   1.00
O486   O     0.50000   0.89441   0.20490   0.00000  Uiso   1.00
O487   O     0.42392   0.83333   0.19595   0.00000  Uiso   1.00
O488   O     0.57608   0.83334   0.13739   0.00000  Uiso   1.00
O489   O     0.42392   0.83334   0.11950   0.00000  Uiso   1.00
O490   O     0.57608   0.83333   0.21383   0.00000  Uiso   1.00
Zn491  Zn    0.50000   0.83333   0.21771   0.00000  Uiso   1.00
Zn492  Zn    0.50000   0.83334   0.11563   0.00000  Uiso   1.00
C493   C     0.65795   0.78888   0.12168   0.00000  Uiso   1.00
H494   H     0.62579   0.79344   0.09503   0.00000  Uiso   1.00
O495   O     0.34393   0.75509   0.12590   0.00000  Uiso   1.00
C496   C     0.34349   0.87396   0.21383   0.00000  Uiso   1.00
H497   H     0.34006   0.90613   0.20321   0.00000  Uiso   1.00
O498   O     0.36537   0.86558   0.25159   0.00000  Uiso   1.00
C499   C     0.54707   0.70892   0.09376   0.00000  Uiso   1.00
H500   H     0.56582   0.73946   0.09820   0.00000  Uiso   1.00
O501   O     0.54687   0.69168   0.05768   0.00000  Uiso   1.00
C502   C     0.45489   0.95847   0.23782   0.00000  Uiso   1.00
H503   H     0.43181   0.92988   0.23068   0.00000  Uiso   1.00
O504   O     0.45703   0.97371   0.27516   0.00000  Uiso   1.00
N505   N     0.56857   0.88825   0.05357   0.00000  Uiso   1.00
H506   H     0.56200   0.89467   0.08531   0.00000  Uiso   1.00
C507   C     0.62311   0.88335   0.05167   0.00000  Uiso   1.00
H508   H     0.64346   0.87518   0.08551   0.00000  Uiso   1.00
H509   H     0.64116   0.91322   0.04149   0.00000  Uiso   1.00
H510   H     0.62885   0.85866   0.02788   0.00000  Uiso   1.00
N511   N     0.43397   0.77622   0.27917   0.00000  Uiso   1.00
H512   H     0.43087   0.77971   0.24505   0.00000  Uiso   1.00
C513   C     0.42846   0.73319   0.29323   0.00000  Uiso   1.00
H514   H     0.41372   0.71376   0.26343   0.00000  Uiso   1.00
H515   H     0.39767   0.72873   0.31488   0.00000  Uiso   1.00
H516   H     0.46605   0.72198   0.31036   0.00000  Uiso   1.00
N517   N     0.54612   0.90028   0.29231   0.00000  Uiso   1.00
H518   H     0.53897   0.92702   0.30828   0.00000  Uiso   1.00
C519   C     0.59712   0.90132   0.27877   0.00000  Uiso   1.00
H520   H     0.62314   0.92516   0.29811   0.00000  Uiso   1.00
H521   H     0.59395   0.91046   0.24267   0.00000  Uiso   1.00
H522   H     0.61483   0.87080   0.28419   0.00000  Uiso   1.00
N523   N     0.42842   0.78411   0.04116   0.00000  Uiso   1.00
H524   H     0.43443   0.75310   0.04724   0.00000  Uiso   1.00
C525   C     0.37547   0.79578   0.02720   0.00000  Uiso   1.00
H526   H     0.34808   0.77243   0.03955   0.00000  Uiso   1.00
H527   H     0.36541   0.79757   0.32329   0.00000  Uiso   1.00
H528   H     0.37054   0.82659   0.04113   0.00000  Uiso   1.00
C529   C     0.83713   0.75366   0.16717   0.00000  Uiso   1.00
C530   C     0.83127   0.91312   0.16626   0.00000  Uiso   1.00
C531   C     0.73409   0.83200   0.15524   0.00000  Uiso   1.00
C532   C     0.93268   0.83378   0.17825   0.00000  Uiso   1.00
C533   C     0.67977   0.82350   0.15177   0.00000  Uiso   1.00
C534   C     0.98733   0.84045   0.18259   0.00000  Uiso   1.00
C535   C     0.85638   0.68813   0.13092   0.00000  Uiso   1.00
C536   C     0.81602   0.97879   0.20261   0.00000  Uiso   1.00
C537   C     0.85071   0.97869   0.13092   0.00000  Uiso   1.00
C538   C     0.82498   0.68782   0.20397   0.00000  Uiso   1.00
C539   C     0.83073   0.95744   0.16612   0.00000  Uiso   1.00
C540   C     0.84146   0.70942   0.16758   0.00000  Uiso   1.00
C541   C     0.86558   0.86053   0.02721   0.00000  Uiso   1.00
C542   C     0.80229   0.80469   0.30632   0.00000  Uiso   1.00
C543   C     0.86165   0.86300   0.31246   0.00000  Uiso   1.00
C544   C     0.80023   0.80698   0.02083   0.00000  Uiso   1.00
H545   H     0.86348   0.96180   0.10389   0.00000  Uiso   1.00
H546   H     0.81614   0.70437   0.23248   0.00000  Uiso   1.00
N547   N     0.83332   0.83332   0.28573   0.00000  Uiso   1.00
N548   N     0.83335   0.83334   0.04760   0.00000  Uiso   1.00
O549   O     0.83333   0.77225   0.20487   0.00000  Uiso   1.00
O550   O     0.83334   0.89442   0.12846   0.00000  Uiso   1.00
O551   O     0.83333   0.77226   0.12843   0.00000  Uiso   1.00
O552   O     0.83334   0.89441   0.20490   0.00000  Uiso   1.00
O553   O     0.75725   0.83333   0.19595   0.00000  Uiso   1.00
O554   O     0.90942   0.83334   0.13739   0.00000  Uiso   1.00
O555   O     0.75725   0.83334   0.11950   0.00000  Uiso   1.00
O556   O     0.90942   0.83333   0.21383   0.00000  Uiso   1.00
Zn557  Zn    0.83333   0.83333   0.21771   0.00000  Uiso   1.00
Zn558  Zn    0.83333   0.83334   0.11563   0.00000  Uiso   1.00
C559   C     0.99129   0.78888   0.12168   0.00000  Uiso   1.00
H560   H     0.95912   0.79344   0.09503   0.00000  Uiso   1.00
O561   O     0.67726   0.75509   0.12590   0.00000  Uiso   1.00
C562   C     0.67682   0.87396   0.21383   0.00000  Uiso   1.00
H563   H     0.67340   0.90613   0.20321   0.00000  Uiso   1.00
O564   O     0.69870   0.86558   0.25159   0.00000  Uiso   1.00
C565   C     0.88040   0.70892   0.09376   0.00000  Uiso   1.00
H566   H     0.89915   0.73946   0.09820   0.00000  Uiso   1.00
O567   O     0.88020   0.69168   0.05768   0.00000  Uiso   1.00
C568   C     0.78822   0.95847   0.23782   0.00000  Uiso   1.00
H569   H     0.76514   0.92988   0.23068   0.00000  Uiso   1.00
O570   O     0.79036   0.97371   0.27516   0.00000  Uiso   1.00
N571   N     0.90190   0.88825   0.05357   0.00000  Uiso   1.00
H572   H     0.89534   0.89467   0.08531   0.00000  Uiso   1.00
C573   C     0.95644   0.88335   0.05167   0.00000  Uiso   1.00
H574   H     0.97679   0.87518   0.08551   0.00000  Uiso   1.00
H575   H     0.97450   0.91322   0.04149   0.00000  Uiso   1.00
H576   H     0.96218   0.85866   0.02788   0.00000  Uiso   1.00
N577   N     0.76731   0.77622   0.27917   0.00000  Uiso   1.00
H578   H     0.76421   0.77971   0.24505   0.00000  Uiso   1.00
C579   C     0.76179   0.73319   0.29323   0.00000  Uiso   1.00
H580   H     0.74706   0.71376   0.26343   0.00000  Uiso   1.00
H581   H     0.73100   0.72873   0.31488   0.00000  Uiso   1.00
H582   H     0.79939   0.72198   0.31036   0.00000  Uiso   1.00
N583   N     0.87946   0.90028   0.29231   0.00000  Uiso   1.00
H584   H     0.87231   0.92702   0.30828   0.00000  Uiso   1.00
C585   C     0.93046   0.90132   0.27877   0.00000  Uiso   1.00
H586   H     0.95647   0.92516   0.29811   0.00000  Uiso   1.00
H587   H     0.92729   0.91046   0.24267   0.00000  Uiso   1.00
H588   H     0.94816   0.87080   0.28419   0.00000  Uiso   1.00
N589   N     0.76175   0.78411   0.04116   0.00000  Uiso   1.00
H590   H     0.76776   0.75310   0.04724   0.00000  Uiso   1.00
C591   C     0.70881   0.79578   0.02720   0.00000  Uiso   1.00
H592   H     0.68141   0.77243   0.03955   0.00000  Uiso   1.00
H593   H     0.69874   0.79757   0.32329   0.00000  Uiso   1.00
H594   H     0.70388   0.82659   0.04113   0.00000  Uiso   1.00
C595   C     0.17047   0.08700   0.50051   0.00000  Uiso   1.00
C596   C     0.16460   0.24646   0.49959   0.00000  Uiso   1.00
C597   C     0.06743   0.16533   0.48857   0.00000  Uiso   1.00
C598   C     0.26601   0.16712   0.51158   0.00000  Uiso   1.00
C599   C     0.01311   0.15683   0.48510   0.00000  Uiso   1.00
C600   C     0.32067   0.17378   0.51593   0.00000  Uiso   1.00
C601   C     0.18971   0.02147   0.46425   0.00000  Uiso   1.00
C602   C     0.14935   0.31212   0.53594   0.00000  Uiso   1.00
C603   C     0.18405   0.31202   0.46426   0.00000  Uiso   1.00
C604   C     0.15831   0.02115   0.53730   0.00000  Uiso   1.00
C605   C     0.16406   0.29077   0.49945   0.00000  Uiso   1.00
C606   C     0.17480   0.04275   0.50091   0.00000  Uiso   1.00
C607   C     0.19891   0.19386   0.36054   0.00000  Uiso   1.00
C608   C     0.13562   0.13803   0.63965   0.00000  Uiso   1.00
C609   C     0.19499   0.19633   0.64580   0.00000  Uiso   1.00
C610   C     0.13356   0.14032   0.35416   0.00000  Uiso   1.00
H611   H     0.19681   0.29513   0.43723   0.00000  Uiso   1.00
H612   H     0.14947   0.03770   0.56582   0.00000  Uiso   1.00
N613   N     0.16665   0.16666   0.61907   0.00000  Uiso   1.00
N614   N     0.16668   0.16668   0.38093   0.00000  Uiso   1.00
O615   O     0.16666   0.10558   0.53821   0.00000  Uiso   1.00
O616   O     0.16667   0.22775   0.46179   0.00000  Uiso   1.00
O617   O     0.16666   0.10559   0.46176   0.00000  Uiso   1.00
O618   O     0.16667   0.22774   0.53824   0.00000  Uiso   1.00
O619   O     0.09058   0.16666   0.52928   0.00000  Uiso   1.00
O620   O     0.24275   0.16667   0.47072   0.00000  Uiso   1.00
O621   O     0.09058   0.16667   0.45284   0.00000  Uiso   1.00
O622   O     0.24275   0.16666   0.54716   0.00000  Uiso   1.00
Zn623  Zn    0.16667   0.16666   0.55104   0.00000  Uiso   1.00
Zn624  Zn    0.16667   0.16667   0.44896   0.00000  Uiso   1.00
C625   C     0.32462   0.12222   0.45502   0.00000  Uiso   1.00
H626   H     0.29245   0.12677   0.42836   0.00000  Uiso   1.00
O627   O     0.01060   0.08842   0.45923   0.00000  Uiso   1.00
C628   C     0.01015   0.20729   0.54716   0.00000  Uiso   1.00
H629   H     0.00673   0.23946   0.53655   0.00000  Uiso   1.00
O630   O     0.03203   0.19891   0.58493   0.00000  Uiso   1.00
C631   C     0.21373   0.04225   0.42709   0.00000  Uiso   1.00
H632   H     0.23248   0.07279   0.43154   0.00000  Uiso   1.00
O633   O     0.21353   0.02501   0.39102   0.00000  Uiso   1.00
C634   C     0.12156   0.29180   0.57115   0.00000  Uiso   1.00
H635   H     0.09847   0.26321   0.56401   0.00000  Uiso   1.00
O636   O     0.12369   0.30704   0.60849   0.00000  Uiso   1.00
N637   N     0.23524   0.22158   0.38690   0.00000  Uiso   1.00
H638   H     0.22867   0.22800   0.41865   0.00000  Uiso   1.00
C639   C     0.28978   0.21668   0.38500   0.00000  Uiso   1.00
H640   H     0.31012   0.20852   0.41884   0.00000  Uiso   1.00
H641   H     0.30783   0.24655   0.37482   0.00000  Uiso   1.00
H642   H     0.29551   0.19199   0.36122   0.00000  Uiso   1.00
N643   N     0.10064   0.10955   0.61251   0.00000  Uiso   1.00
H644   H     0.09754   0.11304   0.57839   0.00000  Uiso   1.00
C645   C     0.09513   0.06653   0.62657   0.00000  Uiso   1.00
H646   H     0.08039   0.04709   0.59676   0.00000  Uiso   1.00
H647   H     0.06434   0.06206   0.64821   0.00000  Uiso   1.00
H648   H     0.13272   0.05531   0.64369   0.00000  Uiso   1.00
N649   N     0.21279   0.23362   0.62565   0.00000  Uiso   1.00
H650   H     0.20564   0.26035   0.64162   0.00000  Uiso   1.00
C651   C     0.26379   0.23465   0.61210   0.00000  Uiso   1.00
H652   H     0.28980   0.25849   0.63144   0.00000  Uiso   1.00
H653   H     0.26062   0.24380   0.57600   0.00000  Uiso   1.00
H654   H     0.28150   0.20413   0.61753   0.00000  Uiso   1.00
N655   N     0.09508   0.11744   0.37450   0.00000  Uiso   1.00
H656   H     0.10109   0.08643   0.38057   0.00000  Uiso   1.00
C657   C     0.04214   0.12911   0.36053   0.00000  Uiso   1.00
H658   H     0.01474   0.10576   0.37289   0.00000  Uiso   1.00
H659   H     0.03208   0.13090   0.65662   0.00000  Uiso   1.00
H660   H     0.03721   0.15992   0.37447   0.00000  Uiso   1.00
C661   C     0.50380   0.08700   0.50051   0.00000  Uiso   1.00
C662   C     0.49793   0.24646   0.49959   0.00000  Uiso   1.00
C663   C     0.40076   0.16533   0.48857   0.00000  Uiso   1.00
C664   C     0.59934   0.16712   0.51158   0.00000  Uiso   1.00
C665   C     0.34644   0.15683   0.48510   0.00000  Uiso   1.00
C666   C     0.65400   0.17378   0.51593   0.00000  Uiso   1.00
C667   C     0.52304   0.02147   0.46425   0.00000  Uiso   1.00
C668   C     0.48268   0.31212   0.53594   0.00000  Uiso   1.00
C669   C     0.51738   0.31202   0.46426   0.00000  Uiso   1.00
C670   C     0.49164   0.02115   0.53730   0.00000  Uiso   1.00
C671   C     0.49740   0.29077   0.49945   0.00000  Uiso   1.00
C672   C     0.50813   0.04275   0.50091   0.00000  Uiso   1.00
C673   C     0.53224   0.19386   0.36054   0.00000  Uiso   1.00
C674   C     0.46896   0.13803   0.63965   0.00000  Uiso   1.00
C675   C     0.52832   0.19633   0.64580   0.00000  Uiso   1.00
C676   C     0.46690   0.14032   0.35416   0.00000  Uiso   1.00
H677   H     0.53014   0.29513   0.43723   0.00000  Uiso   1.00
H678   H     0.48280   0.03770   0.56582   0.00000  Uiso   1.00
N679   N     0.49999   0.16666   0.61907   0.00000  Uiso   1.00
N680   N     0.50001   0.16668   0.38093   0.00000  Uiso   1.00
O681   O     0.50000   0.10558   0.53821   0.00000  Uiso   1.00
O682   O     0.50000   0.22775   0.46179   0.00000  Uiso   1.00
O683   O     0.50000   0.10559   0.46176   0.00000  Uiso   1.00
O684   O     0.50000   0.22774   0.53824   0.00000  Uiso   1.00
O685   O     0.42392   0.16666   0.52928   0.00000  Uiso   1.00
O686   O     0.57608   0.16667   0.47072   0.00000  Uiso   1.00
O687   O     0.42392   0.16667   0.45284   0.00000  Uiso   1.00
O688   O     0.57608   0.16666   0.54716   0.00000  Uiso   1.00
Zn689  Zn    0.50000   0.16666   0.55104   0.00000  Uiso   1.00
Zn690  Zn    0.50000   0.16667   0.44896   0.00000  Uiso   1.00
C691   C     0.65795   0.12222   0.45502   0.00000  Uiso   1.00
H692   H     0.62579   0.12677   0.42836   0.00000  Uiso   1.00
O693   O     0.34393   0.08842   0.45923   0.00000  Uiso   1.00
C694   C     0.34349   0.20729   0.54716   0.00000  Uiso   1.00
H695   H     0.34006   0.23946   0.53655   0.00000  Uiso   1.00
O696   O     0.36537   0.19891   0.58493   0.00000  Uiso   1.00
C697   C     0.54707   0.04225   0.42709   0.00000  Uiso   1.00
H698   H     0.56582   0.07279   0.43154   0.00000  Uiso   1.00
O699   O     0.54687   0.02501   0.39102   0.00000  Uiso   1.00
C700   C     0.45489   0.29180   0.57115   0.00000  Uiso   1.00
H701   H     0.43181   0.26321   0.56401   0.00000  Uiso   1.00
O702   O     0.45703   0.30704   0.60849   0.00000  Uiso   1.00
N703   N     0.56857   0.22158   0.38690   0.00000  Uiso   1.00
H704   H     0.56200   0.22800   0.41865   0.00000  Uiso   1.00
C705   C     0.62311   0.21668   0.38500   0.00000  Uiso   1.00
H706   H     0.64346   0.20852   0.41884   0.00000  Uiso   1.00
H707   H     0.64116   0.24655   0.37482   0.00000  Uiso   1.00
H708   H     0.62885   0.19199   0.36122   0.00000  Uiso   1.00
N709   N     0.43397   0.10955   0.61251   0.00000  Uiso   1.00
H710   H     0.43087   0.11304   0.57839   0.00000  Uiso   1.00
C711   C     0.42846   0.06653   0.62657   0.00000  Uiso   1.00
H712   H     0.41372   0.04709   0.59676   0.00000  Uiso   1.00
H713   H     0.39767   0.06206   0.64821   0.00000  Uiso   1.00
H714   H     0.46605   0.05531   0.64369   0.00000  Uiso   1.00
N715   N     0.54612   0.23362   0.62565   0.00000  Uiso   1.00
H716   H     0.53897   0.26035   0.64162   0.00000  Uiso   1.00
C717   C     0.59712   0.23465   0.61210   0.00000  Uiso   1.00
H718   H     0.62314   0.25849   0.63144   0.00000  Uiso   1.00
H719   H     0.59395   0.24380   0.57600   0.00000  Uiso   1.00
H720   H     0.61483   0.20413   0.61753   0.00000  Uiso   1.00
N721   N     0.42842   0.11744   0.37450   0.00000  Uiso   1.00
H722   H     0.43443   0.08643   0.38057   0.00000  Uiso   1.00
C723   C     0.37547   0.12911   0.36053   0.00000  Uiso   1.00
H724   H     0.34808   0.10576   0.37289   0.00000  Uiso   1.00
H725   H     0.36541   0.13090   0.65662   0.00000  Uiso   1.00
H726   H     0.37054   0.15992   0.37447   0.00000  Uiso   1.00
C727   C     0.83713   0.08700   0.50051   0.00000  Uiso   1.00
C728   C     0.83127   0.24646   0.49959   0.00000  Uiso   1.00
C729   C     0.73409   0.16533   0.48857   0.00000  Uiso   1.00
C730   C     0.93268   0.16712   0.51158   0.00000  Uiso   1.00
C731   C     0.67977   0.15683   0.48510   0.00000  Uiso   1.00
C732   C     0.98733   0.17378   0.51593   0.00000  Uiso   1.00
C733   C     0.85638   0.02147   0.46425   0.00000  Uiso   1.00
C734   C     0.81602   0.31212   0.53594   0.00000  Uiso   1.00
C735   C     0.85071   0.31202   0.46426   0.00000  Uiso   1.00
C736   C     0.82498   0.02115   0.53730   0.00000  Uiso   1.00
C737   C     0.83073   0.29077   0.49945   0.00000  Uiso   1.00
C738   C     0.84146   0.04275   0.50091   0.00000  Uiso   1.00
C739   C     0.86558   0.19386   0.36054   0.00000  Uiso   1.00
C740   C     0.80229   0.13803   0.63965   0.00000  Uiso   1.00
C741   C     0.86165   0.19633   0.64580   0.00000  Uiso   1.00
C742   C     0.80023   0.14032   0.35416   0.00000  Uiso   1.00
H743   H     0.86348   0.29513   0.43723   0.00000  Uiso   1.00
H744   H     0.81614   0.03770   0.56582   0.00000  Uiso   1.00
N745   N     0.83332   0.16666   0.61907   0.00000  Uiso   1.00
N746   N     0.83335   0.16668   0.38093   0.00000  Uiso   1.00
O747   O     0.83333   0.10558   0.53821   0.00000  Uiso   1.00
O748   O     0.83334   0.22775   0.46179   0.00000  Uiso   1.00
O749   O     0.83333   0.10559   0.46176   0.00000  Uiso   1.00
O750   O     0.83334   0.22774   0.53824   0.00000  Uiso   1.00
O751   O     0.75725   0.16666   0.52928   0.00000  Uiso   1.00
O752   O     0.90942   0.16667   0.47072   0.00000  Uiso   1.00
O753   O     0.75725   0.16667   0.45284   0.00000  Uiso   1.00
O754   O     0.90942   0.16666   0.54716   0.00000  Uiso   1.00
Zn755  Zn    0.83333   0.16666   0.55104   0.00000  Uiso   1.00
Zn756  Zn    0.83333   0.16667   0.44896   0.00000  Uiso   1.00
C757   C     0.99129   0.12222   0.45502   0.00000  Uiso   1.00
H758   H     0.95912   0.12677   0.42836   0.00000  Uiso   1.00
O759   O     0.67726   0.08842   0.45923   0.00000  Uiso   1.00
C760   C     0.67682   0.20729   0.54716   0.00000  Uiso   1.00
H761   H     0.67340   0.23946   0.53655   0.00000  Uiso   1.00
O762   O     0.69870   0.19891   0.58493   0.00000  Uiso   1.00
C763   C     0.88040   0.04225   0.42709   0.00000  Uiso   1.00
H764   H     0.89915   0.07279   0.43154   0.00000  Uiso   1.00
O765   O     0.88020   0.02501   0.39102   0.00000  Uiso   1.00
C766   C     0.78822   0.29180   0.57115   0.00000  Uiso   1.00
H767   H     0.76514   0.26321   0.56401   0.00000  Uiso   1.00
O768   O     0.79036   0.30704   0.60849   0.00000  Uiso   1.00
N769   N     0.90190   0.22158   0.38690   0.00000  Uiso   1.00
H770   H     0.89534   0.22800   0.41865   0.00000  Uiso   1.00
C771   C     0.95644   0.21668   0.38500   0.00000  Uiso   1.00
H772   H     0.97679   0.20852   0.41884   0.00000  Uiso   1.00
H773   H     0.97450   0.24655   0.37482   0.00000  Uiso   1.00
H774   H     0.96218   0.19199   0.36122   0.00000  Uiso   1.00
N775   N     0.76731   0.10955   0.61251   0.00000  Uiso   1.00
H776   H     0.76421   0.11304   0.57839   0.00000  Uiso   1.00
C777   C     0.76179   0.06653   0.62657   0.00000  Uiso   1.00
H778   H     0.74706   0.04709   0.59676   0.00000  Uiso   1.00
H779   H     0.73100   0.06206   0.64821   0.00000  Uiso   1.00
H780   H     0.79939   0.05531   0.64369   0.00000  Uiso   1.00
N781   N     0.87946   0.23362   0.62565   0.00000  Uiso   1.00
H782   H     0.87231   0.26035   0.64162   0.00000  Uiso   1.00
C783   C     0.93046   0.23465   0.61210   0.00000  Uiso   1.00
H784   H     0.95647   0.25849   0.63144   0.00000  Uiso   1.00
H785   H     0.92729   0.24380   0.57600   0.00000  Uiso   1.00
H786   H     0.94816   0.20413   0.61753   0.00000  Uiso   1.00
N787   N     0.76175   0.11744   0.37450   0.00000  Uiso   1.00
H788   H     0.76776   0.08643   0.38057   0.00000  Uiso   1.00
C789   C     0.70881   0.12911   0.36053   0.00000  Uiso   1.00
H790   H     0.68141   0.10576   0.37289   0.00000  Uiso   1.00
H791   H     0.69874   0.13090   0.65662   0.00000  Uiso   1.00
H792   H     0.70388   0.15992   0.37447   0.00000  Uiso   1.00
C793   C     0.17047   0.42033   0.50051   0.00000  Uiso   1.00
C794   C     0.16460   0.57979   0.49959   0.00000  Uiso   1.00
C795   C     0.06743   0.49867   0.48857   0.00000  Uiso   1.00
C796   C     0.26601   0.50045   0.51158   0.00000  Uiso   1.00
C797   C     0.01311   0.49017   0.48510   0.00000  Uiso   1.00
C798   C     0.32067   0.50711   0.51593   0.00000  Uiso   1.00
C799   C     0.18971   0.35480   0.46425   0.00000  Uiso   1.00
C800   C     0.14935   0.64545   0.53594   0.00000  Uiso   1.00
C801   C     0.18405   0.64535   0.46426   0.00000  Uiso   1.00
C802   C     0.15831   0.35448   0.53730   0.00000  Uiso   1.00
C803   C     0.16406   0.62410   0.49945   0.00000  Uiso   1.00
C804   C     0.17480   0.37609   0.50091   0.00000  Uiso   1.00
C805   C     0.19891   0.52720   0.36054   0.00000  Uiso   1.00
C806   C     0.13562   0.47136   0.63965   0.00000  Uiso   1.00
C807   C     0.19499   0.52967   0.64580   0.00000  Uiso   1.00
C808   C     0.13356   0.47365   0.35416   0.00000  Uiso   1.00
H809   H     0.19681   0.62846   0.43723   0.00000  Uiso   1.00
H810   H     0.14947   0.37104   0.56582   0.00000  Uiso   1.00
N811   N     0.16665   0.49999   0.61907   0.00000  Uiso   1.00
N812   N     0.16668   0.50001   0.38093   0.00000  Uiso   1.00
O813   O     0.16666   0.43892   0.53821   0.00000  Uiso   1.00
O814   O     0.16667   0.56108   0.46179   0.00000  Uiso   1.00
O815   O     0.16666   0.43893   0.46176   0.00000  Uiso   1.00
O816   O     0.16667   0.56107   0.53824   0.00000  Uiso   1.00
O817   O     0.09058   0.50000   0.52928   0.00000  Uiso   1.00
O818   O     0.24275   0.50000   0.47072   0.00000  Uiso   1.00
O819   O     0.09058   0.50000   0.45284   0.00000  Uiso   1.00
O820   O     0.24275   0.50000   0.54716   0.00000  Uiso   1.00
Zn821  Zn    0.16667   0.49999   0.55104   0.00000  Uiso   1.00
Zn822  Zn    0.16667   0.50001   0.44896   0.00000  Uiso   1.00
C823   C     0.32462   0.45555   0.45502   0.00000  Uiso   1.00
H824   H     0.29245   0.46010   0.42836   0.00000  Uiso   1.00
O825   O     0.01060   0.42176   0.45923   0.00000  Uiso   1.00
C826   C     0.01015   0.54062   0.54716   0.00000  Uiso   1.00
H827   H     0.00673   0.57280   0.53655   0.00000  Uiso   1.00
O828   O     0.03203   0.53224   0.58493   0.00000  Uiso   1.00
C829   C     0.21373   0.37558   0.42709   0.00000  Uiso   1.00
H830   H     0.23248   0.40612   0.43154   0.00000  Uiso   1.00
O831   O     0.21353   0.35834   0.39102   0.00000  Uiso   1.00
C832   C     0.12156   0.62513   0.57115   0.00000  Uiso   1.00
H833   H     0.09847   0.59654   0.56401   0.00000  Uiso   1.00
O834   O     0.12369   0.64037   0.60849   0.00000  Uiso   1.00
N835   N     0.23524   0.55492   0.38690   0.00000  Uiso   1.00
H836   H     0.22867   0.56134   0.41865   0.00000  Uiso   1.00
C837   C     0.28978   0.55001   0.38500   0.00000  Uiso   1.00
H838   H     0.31012   0.54185   0.41884   0.00000  Uiso   1.00
H839   H     0.30783   0.57988   0.37482   0.00000  Uiso   1.00
H840   H     0.29551   0.52532   0.36122   0.00000  Uiso   1.00
N841   N     0.10064   0.44289   0.61251   0.00000  Uiso   1.00
H842   H     0.09754   0.44637   0.57839   0.00000  Uiso   1.00
C843   C     0.09513   0.39986   0.62657   0.00000  Uiso   1.00
H844   H     0.08039   0.38042   0.59676   0.00000  Uiso   1.00
H845   H     0.06434   0.39540   0.64821   0.00000  Uiso   1.00
H846   H     0.13272   0.38865   0.64369   0.00000  Uiso   1.00
N847   N     0.21279   0.56695   0.62565   0.00000  Uiso   1.00
H848   H     0.20564   0.59369   0.64162   0.00000  Uiso   1.00
C849   C     0.26379   0.56799   0.61210   0.00000  Uiso   1.00
H850   H     0.28980   0.59182   0.63144   0.00000  Uiso   1.00
H851   H     0.26062   0.57713   0.57600   0.00000  Uiso   1.00
H852   H     0.28150   0.53746   0.61753   0.00000  Uiso   1.00
N853   N     0.09508   0.45077   0.37450   0.00000  Uiso   1.00
H854   H     0.10109   0.41977   0.38057   0.00000  Uiso   1.00
C855   C     0.04214   0.46244   0.36053   0.00000  Uiso   1.00
H856   H     0.01474   0.43910   0.37289   0.00000  Uiso   1.00
H857   H     0.03208   0.46424   0.65662   0.00000  Uiso   1.00
H858   H     0.03721   0.49326   0.37447   0.00000  Uiso   1.00
C859   C     0.50380   0.42033   0.50051   0.00000  Uiso   1.00
C860   C     0.49793   0.57979   0.49959   0.00000  Uiso   1.00
C861   C     0.40076   0.49867   0.48857   0.00000  Uiso   1.00
C862   C     0.59934   0.50045   0.51158   0.00000  Uiso   1.00
C863   C     0.34644   0.49017   0.48510   0.00000  Uiso   1.00
C864   C     0.65400   0.50711   0.51593   0.00000  Uiso   1.00
C865   C     0.52304   0.35480   0.46425   0.00000  Uiso   1.00
C866   C     0.48268   0.64545   0.53594   0.00000  Uiso   1.00
C867   C     0.51738   0.64535   0.46426   0.00000  Uiso   1.00
C868   C     0.49164   0.35448   0.53730   0.00000  Uiso   1.00
C869   C     0.49740   0.62410   0.49945   0.00000  Uiso   1.00
C870   C     0.50813   0.37609   0.50091   0.00000  Uiso   1.00
C871   C     0.53224   0.52720   0.36054   0.00000  Uiso   1.00
C872   C     0.46896   0.47136   0.63965   0.00000  Uiso   1.00
C873   C     0.52832   0.52967   0.64580   0.00000  Uiso   1.00
C874   C     0.46690   0.47365   0.35416   0.00000  Uiso   1.00
H875   H     0.53014   0.62846   0.43723   0.00000  Uiso   1.00
H876   H     0.48280   0.37104   0.56582   0.00000  Uiso   1.00
N877   N     0.49999   0.49999   0.61907   0.00000  Uiso   1.00
N878   N     0.50001   0.50001   0.38093   0.00000  Uiso   1.00
O879   O     0.50000   0.43892   0.53821   0.00000  Uiso   1.00
O880   O     0.50000   0.56108   0.46179   0.00000  Uiso   1.00
O881   O     0.50000   0.43893   0.46176   0.00000  Uiso   1.00
O882   O     0.50000   0.56107   0.53824   0.00000  Uiso   1.00
O883   O     0.42392   0.50000   0.52928   0.00000  Uiso   1.00
O884   O     0.57608   0.50000   0.47072   0.00000  Uiso   1.00
O885   O     0.42392   0.50000   0.45284   0.00000  Uiso   1.00
O886   O     0.57608   0.50000   0.54716   0.00000  Uiso   1.00
Zn887  Zn    0.50000   0.49999   0.55104   0.00000  Uiso   1.00
Zn888  Zn    0.50000   0.50001   0.44896   0.00000  Uiso   1.00
C889   C     0.65795   0.45555   0.45502   0.00000  Uiso   1.00
H890   H     0.62579   0.46010   0.42836   0.00000  Uiso   1.00
O891   O     0.34393   0.42176   0.45923   0.00000  Uiso   1.00
C892   C     0.34349   0.54062   0.54716   0.00000  Uiso   1.00
H893   H     0.34006   0.57280   0.53655   0.00000  Uiso   1.00
O894   O     0.36537   0.53224   0.58493   0.00000  Uiso   1.00
C895   C     0.54707   0.37558   0.42709   0.00000  Uiso   1.00
H896   H     0.56582   0.40612   0.43154   0.00000  Uiso   1.00
O897   O     0.54687   0.35834   0.39102   0.00000  Uiso   1.00
C898   C     0.45489   0.62513   0.57115   0.00000  Uiso   1.00
H899   H     0.43181   0.59654   0.56401   0.00000  Uiso   1.00
O900   O     0.45703   0.64037   0.60849   0.00000  Uiso   1.00
N901   N     0.56857   0.55492   0.38690   0.00000  Uiso   1.00
H902   H     0.56200   0.56134   0.41865   0.00000  Uiso   1.00
C903   C     0.62311   0.55001   0.38500   0.00000  Uiso   1.00
H904   H     0.64346   0.54185   0.41884   0.00000  Uiso   1.00
H905   H     0.64116   0.57988   0.37482   0.00000  Uiso   1.00
H906   H     0.62885   0.52532   0.36122   0.00000  Uiso   1.00
N907   N     0.43397   0.44289   0.61251   0.00000  Uiso   1.00
H908   H     0.43087   0.44637   0.57839   0.00000  Uiso   1.00
C909   C     0.42846   0.39986   0.62657   0.00000  Uiso   1.00
H910   H     0.41372   0.38042   0.59676   0.00000  Uiso   1.00
H911   H     0.39767   0.39540   0.64821   0.00000  Uiso   1.00
H912   H     0.46605   0.38865   0.64369   0.00000  Uiso   1.00
N913   N     0.54612   0.56695   0.62565   0.00000  Uiso   1.00
H914   H     0.53897   0.59369   0.64162   0.00000  Uiso   1.00
C915   C     0.59712   0.56799   0.61210   0.00000  Uiso   1.00
H916   H     0.62314   0.59182   0.63144   0.00000  Uiso   1.00
H917   H     0.59395   0.57713   0.57600   0.00000  Uiso   1.00
H918   H     0.61483   0.53746   0.61753   0.00000  Uiso   1.00
N919   N     0.42842   0.45077   0.37450   0.00000  Uiso   1.00
H920   H     0.43443   0.41977   0.38057   0.00000  Uiso   1.00
C921   C     0.37547   0.46244   0.36053   0.00000  Uiso   1.00
H922   H     0.34808   0.43910   0.37289   0.00000  Uiso   1.00
H923   H     0.36541   0.46424   0.65662   0.00000  Uiso   1.00
H924   H     0.37054   0.49326   0.37447   0.00000  Uiso   1.00
C925   C     0.83713   0.42033   0.50051   0.00000  Uiso   1.00
C926   C     0.83127   0.57979   0.49959   0.00000  Uiso   1.00
C927   C     0.73409   0.49867   0.48857   0.00000  Uiso   1.00
C928   C     0.93268   0.50045   0.51158   0.00000  Uiso   1.00
C929   C     0.67977   0.49017   0.48510   0.00000  Uiso   1.00
C930   C     0.98733   0.50711   0.51593   0.00000  Uiso   1.00
C931   C     0.85638   0.35480   0.46425   0.00000  Uiso   1.00
C932   C     0.81602   0.64545   0.53594   0.00000  Uiso   1.00
C933   C     0.85071   0.64535   0.46426   0.00000  Uiso   1.00
C934   C     0.82498   0.35448   0.53730   0.00000  Uiso   1.00
C935   C     0.83073   0.62410   0.49945   0.00000  Uiso   1.00
C936   C     0.84146   0.37609   0.50091   0.00000  Uiso   1.00
C937   C     0.86558   0.52720   0.36054   0.00000  Uiso   1.00
C938   C     0.80229   0.47136   0.63965   0.00000  Uiso   1.00
C939   C     0.86165   0.52967   0.64580   0.00000  Uiso   1.00
C940   C     0.80023   0.47365   0.35416   0.00000  Uiso   1.00
H941   H     0.86348   0.62846   0.43723   0.00000  Uiso   1.00
H942   H     0.81614   0.37104   0.56582   0.00000  Uiso   1.00
N943   N     0.83332   0.49999   0.61907   0.00000  Uiso   1.00
N944   N     0.83335   0.50001   0.38093   0.00000  Uiso   1.00
O945   O     0.83333   0.43892   0.53821   0.00000  Uiso   1.00
O946   O     0.83334   0.56108   0.46179   0.00000  Uiso   1.00
O947   O     0.83333   0.43893   0.46176   0.00000  Uiso   1.00
O948   O     0.83334   0.56107   0.53824   0.00000  Uiso   1.00
O949   O     0.75725   0.50000   0.52928   0.00000  Uiso   1.00
O950   O     0.90942   0.50000   0.47072   0.00000  Uiso   1.00
O951   O     0.75725   0.50000   0.45284   0.00000  Uiso   1.00
O952   O     0.90942   0.50000   0.54716   0.00000  Uiso   1.00
Zn953  Zn    0.83333   0.49999   0.55104   0.00000  Uiso   1.00
Zn954  Zn    0.83333   0.50001   0.44896   0.00000  Uiso   1.00
C955   C     0.99129   0.45555   0.45502   0.00000  Uiso   1.00
H956   H     0.95912   0.46010   0.42836   0.00000  Uiso   1.00
O957   O     0.67726   0.42176   0.45923   0.00000  Uiso   1.00
C958   C     0.67682   0.54062   0.54716   0.00000  Uiso   1.00
H959   H     0.67340   0.57280   0.53655   0.00000  Uiso   1.00
O960   O     0.69870   0.53224   0.58493   0.00000  Uiso   1.00
C961   C     0.88040   0.37558   0.42709   0.00000  Uiso   1.00
H962   H     0.89915   0.40612   0.43154   0.00000  Uiso   1.00
O963   O     0.88020   0.35834   0.39102   0.00000  Uiso   1.00
C964   C     0.78822   0.62513   0.57115   0.00000  Uiso   1.00
H965   H     0.76514   0.59654   0.56401   0.00000  Uiso   1.00
O966   O     0.79036   0.64037   0.60849   0.00000  Uiso   1.00
N967   N     0.90190   0.55492   0.38690   0.00000  Uiso   1.00
H968   H     0.89534   0.56134   0.41865   0.00000  Uiso   1.00
C969   C     0.95644   0.55001   0.38500   0.00000  Uiso   1.00
H970   H     0.97679   0.54185   0.41884   0.00000  Uiso   1.00
H971   H     0.97450   0.57988   0.37482   0.00000  Uiso   1.00
H972   H     0.96218   0.52532   0.36122   0.00000  Uiso   1.00
N973   N     0.76731   0.44289   0.61251   0.00000  Uiso   1.00
H974   H     0.76421   0.44637   0.57839   0.00000  Uiso   1.00
C975   C     0.76179   0.39986   0.62657   0.00000  Uiso   1.00
H976   H     0.74706   0.38042   0.59676   0.00000  Uiso   1.00
H977   H     0.73100   0.39540   0.64821   0.00000  Uiso   1.00
H978   H     0.79939   0.38865   0.64369   0.00000  Uiso   1.00
N979   N     0.87946   0.56695   0.62565   0.00000  Uiso   1.00
H980   H     0.87231   0.59369   0.64162   0.00000  Uiso   1.00
C981   C     0.93046   0.56799   0.61210   0.00000  Uiso   1.00
H982   H     0.95647   0.59182   0.63144   0.00000  Uiso   1.00
H983   H     0.92729   0.57713   0.57600   0.00000  Uiso   1.00
H984   H     0.94816   0.53746   0.61753   0.00000  Uiso   1.00
N985   N     0.76175   0.45077   0.37450   0.00000  Uiso   1.00
H986   H     0.76776   0.41977   0.38057   0.00000  Uiso   1.00
C987   C     0.70881   0.46244   0.36053   0.00000  Uiso   1.00
H988   H     0.68141   0.43910   0.37289   0.00000  Uiso   1.00
H989   H     0.69874   0.46424   0.65662   0.00000  Uiso   1.00
H990   H     0.70388   0.49326   0.37447   0.00000  Uiso   1.00
C991   C     0.17047   0.75366   0.50051   0.00000  Uiso   1.00
C992   C     0.16460   0.91312   0.49959   0.00000  Uiso   1.00
C993   C     0.06743   0.83200   0.48857   0.00000  Uiso   1.00
C994   C     0.26601   0.83378   0.51158   0.00000  Uiso   1.00
C995   C     0.01311   0.82350   0.48510   0.00000  Uiso   1.00
C996   C     0.32067   0.84045   0.51593   0.00000  Uiso   1.00
C997   C     0.18971   0.68813   0.46425   0.00000  Uiso   1.00
C998   C     0.14935   0.97879   0.53594   0.00000  Uiso   1.00
C999   C     0.18405   0.97869   0.46426   0.00000  Uiso   1.00
C1000  C     0.15831   0.68782   0.53730   0.00000  Uiso   1.00
C1001  C     0.16406   0.95744   0.49945   0.00000  Uiso   1.00
C1002  C     0.17480   0.70942   0.50091   0.00000  Uiso   1.00
C1003  C     0.19891   0.86053   0.36054   0.00000  Uiso   1.00
C1004  C     0.13562   0.80469   0.63965   0.00000  Uiso   1.00
C1005  C     0.19499   0.86300   0.64580   0.00000  Uiso   1.00
C1006  C     0.13356   0.80698   0.35416   0.00000  Uiso   1.00
H1007  H     0.19681   0.96180   0.43723   0.00000  Uiso   1.00
H1008  H     0.14947   0.70437   0.56582   0.00000  Uiso   1.00
N1009  N     0.16665   0.83332   0.61907   0.00000  Uiso   1.00
N1010  N     0.16668   0.83334   0.38093   0.00000  Uiso   1.00
O1011  O     0.16666   0.77225   0.53821   0.00000  Uiso   1.00
O1012  O     0.16667   0.89442   0.46179   0.00000  Uiso   1.00
O1013  O     0.16666   0.77226   0.46176   0.00000  Uiso   1.00
O1014  O     0.16667   0.89441   0.53824   0.00000  Uiso   1.00
O1015  O     0.09058   0.83333   0.52928   0.00000  Uiso   1.00
O1016  O     0.24275   0.83334   0.47072   0.00000  Uiso   1.00
O1017  O     0.09058   0.83334   0.45284   0.00000  Uiso   1.00
O1018  O     0.24275   0.83333   0.54716   0.00000  Uiso   1.00
Zn1019 Zn    0.16667   0.83333   0.55104   0.00000  Uiso   1.00
Zn1020 Zn    0.16667   0.83334   0.44896   0.00000  Uiso   1.00
C1021  C     0.32462   0.78888   0.45502   0.00000  Uiso   1.00
H1022  H     0.29245   0.79344   0.42836   0.00000  Uiso   1.00
O1023  O     0.01060   0.75509   0.45923   0.00000  Uiso   1.00
C1024  C     0.01015   0.87396   0.54716   0.00000  Uiso   1.00
H1025  H     0.00673   0.90613   0.53655   0.00000  Uiso   1.00
O1026  O     0.03203   0.86558   0.58493   0.00000  Uiso   1.00
C1027  C     0.21373   0.70892   0.42709   0.00000  Uiso   1.00
H1028  H     0.23248   0.73946   0.43154   0.00000  Uiso   1.00
O1029  O     0.21353   0.69168   0.39102   0.00000  Uiso   1.00
C1030  C     0.12156   0.95847   0.57115   0.00000  Uiso   1.00
H1031  H     0.09847   0.92988   0.56401   0.00000  Uiso   1.00
O1032  O     0.12369   0.97371   0.60849   0.00000  Uiso   1.00
N1033  N     0.23524   0.88825   0.38690   0.00000  Uiso   1.00
H1034  H     0.22867   0.89467   0.41865   0.00000  Uiso   1.00
C1035  C     0.28978   0.88335   0.38500   0.00000  Uiso   1.00
H1036  H     0.31012   0.87518   0.41884   0.00000  Uiso   1.00
H1037  H     0.30783   0.91322   0.37482   0.00000  Uiso   1.00
H1038  H     0.29551   0.85866   0.36122   0.00000  Uiso   1.00
N1039  N     0.10064   0.77622   0.61251   0.00000  Uiso   1.00
H1040  H     0.09754   0.77971   0.57839   0.00000  Uiso   1.00
C1041  C     0.09513   0.73319   0.62657   0.00000  Uiso   1.00
H1042  H     0.08039   0.71376   0.59676   0.00000  Uiso   1.00
H1043  H     0.06434   0.72873   0.64821   0.00000  Uiso   1.00
H1044  H     0.13272   0.72198   0.64369   0.00000  Uiso   1.00
N1045  N     0.21279   0.90028   0.62565   0.00000  Uiso   1.00
H1046  H     0.20564   0.92702   0.64162   0.00000  Uiso   1.00
C1047  C     0.26379   0.90132   0.61210   0.00000  Uiso   1.00
H1048  H     0.28980   0.92516   0.63144   0.00000  Uiso   1.00
H1049  H     0.26062   0.91046   0.57600   0.00000  Uiso   1.00
H1050  H     0.28150   0.87080   0.61753   0.00000  Uiso   1.00
N1051  N     0.09508   0.78411   0.37450   0.00000  Uiso   1.00
H1052  H     0.10109   0.75310   0.38057   0.00000  Uiso   1.00
C1053  C     0.04214   0.79578   0.36053   0.00000  Uiso   1.00
H1054  H     0.01474   0.77243   0.37289   0.00000  Uiso   1.00
H1055  H     0.03208   0.79757   0.65662   0.00000  Uiso   1.00
H1056  H     0.03721   0.82659   0.37447   0.00000  Uiso   1.00
C1057  C     0.50380   0.75366   0.50051   0.00000  Uiso   1.00
C1058  C     0.49793   0.91312   0.49959   0.00000  Uiso   1.00
C1059  C     0.40076   0.83200   0.48857   0.00000  Uiso   1.00
C1060  C     0.59934   0.83378   0.51158   0.00000  Uiso   1.00
C1061  C     0.34644   0.82350   0.48510   0.00000  Uiso   1.00
C1062  C     0.65400   0.84045   0.51593   0.00000  Uiso   1.00
C1063  C     0.52304   0.68813   0.46425   0.00000  Uiso   1.00
C1064  C     0.48268   0.97879   0.53594   0.00000  Uiso   1.00
C1065  C     0.51738   0.97869   0.46426   0.00000  Uiso   1.00
C1066  C     0.49164   0.68782   0.53730   0.00000  Uiso   1.00
C1067  C     0.49740   0.95744   0.49945   0.00000  Uiso   1.00
C1068  C     0.50813   0.70942   0.50091   0.00000  Uiso   1.00
C1069  C     0.53224   0.86053   0.36054   0.00000  Uiso   1.00
C1070  C     0.46896   0.80469   0.63965   0.00000  Uiso   1.00
C1071  C     0.52832   0.86300   0.64580   0.00000  Uiso   1.00
C1072  C     0.46690   0.80698   0.35416   0.00000  Uiso   1.00
H1073  H     0.53014   0.96180   0.43723   0.00000  Uiso   1.00
H1074  H     0.48280   0.70437   0.56582   0.00000  Uiso   1.00
N1075  N     0.49999   0.83332   0.61907   0.00000  Uiso   1.00
N1076  N     0.50001   0.83334   0.38093   0.00000  Uiso   1.00
O1077  O     0.50000   0.77225   0.53821   0.00000  Uiso   1.00
O1078  O     0.50000   0.89442   0.46179   0.00000  Uiso   1.00
O1079  O     0.50000   0.77226   0.46176   0.00000  Uiso   1.00
O1080  O     0.50000   0.89441   0.53824   0.00000  Uiso   1.00
O1081  O     0.42392   0.83333   0.52928   0.00000  Uiso   1.00
O1082  O     0.57608   0.83334   0.47072   0.00000  Uiso   1.00
O1083  O     0.42392   0.83334   0.45284   0.00000  Uiso   1.00
O1084  O     0.57608   0.83333   0.54716   0.00000  Uiso   1.00
Zn1085 Zn    0.50000   0.83333   0.55104   0.00000  Uiso   1.00
Zn1086 Zn    0.50000   0.83334   0.44896   0.00000  Uiso   1.00
C1087  C     0.65795   0.78888   0.45502   0.00000  Uiso   1.00
H1088  H     0.62579   0.79344   0.42836   0.00000  Uiso   1.00
O1089  O     0.34393   0.75509   0.45923   0.00000  Uiso   1.00
C1090  C     0.34349   0.87396   0.54716   0.00000  Uiso   1.00
H1091  H     0.34006   0.90613   0.53655   0.00000  Uiso   1.00
O1092  O     0.36537   0.86558   0.58493   0.00000  Uiso   1.00
C1093  C     0.54707   0.70892   0.42709   0.00000  Uiso   1.00
H1094  H     0.56582   0.73946   0.43154   0.00000  Uiso   1.00
O1095  O     0.54687   0.69168   0.39102   0.00000  Uiso   1.00
C1096  C     0.45489   0.95847   0.57115   0.00000  Uiso   1.00
H1097  H     0.43181   0.92988   0.56401   0.00000  Uiso   1.00
O1098  O     0.45703   0.97371   0.60849   0.00000  Uiso   1.00
N1099  N     0.56857   0.88825   0.38690   0.00000  Uiso   1.00
H1100  H     0.56200   0.89467   0.41865   0.00000  Uiso   1.00
C1101  C     0.62311   0.88335   0.38500   0.00000  Uiso   1.00
H1102  H     0.64346   0.87518   0.41884   0.00000  Uiso   1.00
H1103  H     0.64116   0.91322   0.37482   0.00000  Uiso   1.00
H1104  H     0.62885   0.85866   0.36122   0.00000  Uiso   1.00
N1105  N     0.43397   0.77622   0.61251   0.00000  Uiso   1.00
H1106  H     0.43087   0.77971   0.57839   0.00000  Uiso   1.00
C1107  C     0.42846   0.73319   0.62657   0.00000  Uiso   1.00
H1108  H     0.41372   0.71376   0.59676   0.00000  Uiso   1.00
H1109  H     0.39767   0.72873   0.64821   0.00000  Uiso   1.00
H1110  H     0.46605   0.72198   0.64369   0.00000  Uiso   1.00
N1111  N     0.54612   0.90028   0.62565   0.00000  Uiso   1.00
H1112  H     0.53897   0.92702   0.64162   0.00000  Uiso   1.00
C1113  C     0.59712   0.90132   0.61210   0.00000  Uiso   1.00
H1114  H     0.62314   0.92516   0.63144   0.00000  Uiso   1.00
H1115  H     0.59395   0.91046   0.57600   0.00000  Uiso   1.00
H1116  H     0.61483   0.87080   0.61753   0.00000  Uiso   1.00
N1117  N     0.42842   0.78411   0.37450   0.00000  Uiso   1.00
H1118  H     0.43443   0.75310   0.38057   0.00000  Uiso   1.00
C1119  C     0.37547   0.79578   0.36053   0.00000  Uiso   1.00
H1120  H     0.34808   0.77243   0.37289   0.00000  Uiso   1.00
H1121  H     0.36541   0.79757   0.65662   0.00000  Uiso   1.00
H1122  H     0.37054   0.82659   0.37447   0.00000  Uiso   1.00
C1123  C     0.83713   0.75366   0.50051   0.00000  Uiso   1.00
C1124  C     0.83127   0.91312   0.49959   0.00000  Uiso   1.00
C1125  C     0.73409   0.83200   0.48857   0.00000  Uiso   1.00
C1126  C     0.93268   0.83378   0.51158   0.00000  Uiso   1.00
C1127  C     0.67977   0.82350   0.48510   0.00000  Uiso   1.00
C1128  C     0.98733   0.84045   0.51593   0.00000  Uiso   1.00
C1129  C     0.85638   0.68813   0.46425   0.00000  Uiso   1.00
C1130  C     0.81602   0.97879   0.53594   0.00000  Uiso   1.00
C1131  C     0.85071   0.97869   0.46426   0.00000  Uiso   1.00
C1132  C     0.82498   0.68782   0.53730   0.00000  Uiso   1.00
C1133  C     0.83073   0.95744   0.49945   0.00000  Uiso   1.00
C1134  C     0.84146   0.70942   0.50091   0.00000  Uiso   1.00
C1135  C     0.86558   0.86053   0.36054   0.00000  Uiso   1.00
C1136  C     0.80229   0.80469   0.63965   0.00000  Uiso   1.00
C1137  C     0.86165   0.86300   0.64580   0.00000  Uiso   1.00
C1138  C     0.80023   0.80698   0.35416   0.00000  Uiso   1.00
H1139  H     0.86348   0.96180   0.43723   0.00000  Uiso   1.00
H1140  H     0.81614   0.70437   0.56582   0.00000  Uiso   1.00
N1141  N     0.83332   0.83332   0.61907   0.00000  Uiso   1.00
N1142  N     0.83335   0.83334   0.38093   0.00000  Uiso   1.00
O1143  O     0.83333   0.77225   0.53821   0.00000  Uiso   1.00
O1144  O     0.83334   0.89442   0.46179   0.00000  Uiso   1.00
O1145  O     0.83333   0.77226   0.46176   0.00000  Uiso   1.00
O1146  O     0.83334   0.89441   0.53824   0.00000  Uiso   1.00
O1147  O     0.75725   0.83333   0.52928   0.00000  Uiso   1.00
O1148  O     0.90942   0.83334   0.47072   0.00000  Uiso   1.00
O1149  O     0.75725   0.83334   0.45284   0.00000  Uiso   1.00
O1150  O     0.90942   0.83333   0.54716   0.00000  Uiso   1.00
Zn1151 Zn    0.83333   0.83333   0.55104   0.00000  Uiso   1.00
Zn1152 Zn    0.83333   0.83334   0.44896   0.00000  Uiso   1.00
C1153  C     0.99129   0.78888   0.45502   0.00000  Uiso   1.00
H1154  H     0.95912   0.79344   0.42836   0.00000  Uiso   1.00
O1155  O     0.67726   0.75509   0.45923   0.00000  Uiso   1.00
C1156  C     0.67682   0.87396   0.54716   0.00000  Uiso   1.00
H1157  H     0.67340   0.90613   0.53655   0.00000  Uiso   1.00
O1158  O     0.69870   0.86558   0.58493   0.00000  Uiso   1.00
C1159  C     0.88040   0.70892   0.42709   0.00000  Uiso   1.00
H1160  H     0.89915   0.73946   0.43154   0.00000  Uiso   1.00
O1161  O     0.88020   0.69168   0.39102   0.00000  Uiso   1.00
C1162  C     0.78822   0.95847   0.57115   0.00000  Uiso   1.00
H1163  H     0.76514   0.92988   0.56401   0.00000  Uiso   1.00
O1164  O     0.79036   0.97371   0.60849   0.00000  Uiso   1.00
N1165  N     0.90190   0.88825   0.38690   0.00000  Uiso   1.00
H1166  H     0.89534   0.89467   0.41865   0.00000  Uiso   1.00
C1167  C     0.95644   0.88335   0.38500   0.00000  Uiso   1.00
H1168  H     0.97679   0.87518   0.41884   0.00000  Uiso   1.00
H1169  H     0.97450   0.91322   0.37482   0.00000  Uiso   1.00
H1170  H     0.96218   0.85866   0.36122   0.00000  Uiso   1.00
N1171  N     0.76731   0.77622   0.61251   0.00000  Uiso   1.00
H1172  H     0.76421   0.77971   0.57839   0.00000  Uiso   1.00
C1173  C     0.76179   0.73319   0.62657   0.00000  Uiso   1.00
H1174  H     0.74706   0.71376   0.59676   0.00000  Uiso   1.00
H1175  H     0.73100   0.72873   0.64821   0.00000  Uiso   1.00
H1176  H     0.79939   0.72198   0.64369   0.00000  Uiso   1.00
N1177  N     0.87946   0.90028   0.62565   0.00000  Uiso   1.00
H1178  H     0.87231   0.92702   0.64162   0.00000  Uiso   1.00
C1179  C     0.93046   0.90132   0.61210   0.00000  Uiso   1.00
H1180  H     0.95647   0.92516   0.63144   0.00000  Uiso   1.00
H1181  H     0.92729   0.91046   0.57600   0.00000  Uiso   1.00
H1182  H     0.94816   0.87080   0.61753   0.00000  Uiso   1.00
N1183  N     0.76175   0.78411   0.37450   0.00000  Uiso   1.00
H1184  H     0.76776   0.75310   0.38057   0.00000  Uiso   1.00
C1185  C     0.70881   0.79578   0.36053   0.00000  Uiso   1.00
H1186  H     0.68141   0.77243   0.37289   0.00000  Uiso   1.00
H1187  H     0.69874   0.79757   0.65662   0.00000  Uiso   1.00
H1188  H     0.70388   0.82659   0.37447   0.00000  Uiso   1.00
C1189  C     0.17047   0.08700   0.83384   0.00000  Uiso   1.00
C1190  C     0.16460   0.24646   0.83293   0.00000  Uiso   1.00
C1191  C     0.06743   0.16533   0.82191   0.00000  Uiso   1.00
C1192  C     0.26601   0.16712   0.84492   0.00000  Uiso   1.00
C1193  C     0.01311   0.15683   0.81843   0.00000  Uiso   1.00
C1194  C     0.32067   0.17378   0.84926   0.00000  Uiso   1.00
C1195  C     0.18971   0.02147   0.79758   0.00000  Uiso   1.00
C1196  C     0.14935   0.31212   0.86927   0.00000  Uiso   1.00
C1197  C     0.18405   0.31202   0.79759   0.00000  Uiso   1.00
C1198  C     0.15831   0.02115   0.87064   0.00000  Uiso   1.00
C1199  C     0.16406   0.29077   0.83278   0.00000  Uiso   1.00
C1200  C     0.17480   0.04275   0.83424   0.00000  Uiso   1.00
C1201  C     0.19891   0.19386   0.69388   0.00000  Uiso   1.00
C1202  C     0.13562   0.13803   0.97299   0.00000  Uiso   1.00
C1203  C     0.19499   0.19633   0.97913   0.00000  Uiso   1.00
C1204  C     0.13356   0.14032   0.68749   0.00000  Uiso   1.00
H1205  H     0.19681   0.29513   0.77056   0.00000  Uiso   1.00
H1206  H     0.14947   0.03770   0.89915   0.00000  Uiso   1.00
N1207  N     0.16665   0.16666   0.95240   0.00000  Uiso   1.00
N1208  N     0.16668   0.16668   0.71427   0.00000  Uiso   1.00
O1209  O     0.16666   0.10558   0.87154   0.00000  Uiso   1.00
O1210  O     0.16667   0.22775   0.79513   0.00000  Uiso   1.00
O1211  O     0.16666   0.10559   0.79510   0.00000  Uiso   1.00
O1212  O     0.16667   0.22774   0.87157   0.00000  Uiso   1.00
O1213  O     0.09058   0.16666   0.86261   0.00000  Uiso   1.00
O1214  O     0.24275   0.16667   0.80405   0.00000  Uiso   1.00
O1215  O     0.09058   0.16667   0.78617   0.00000  Uiso   1.00
O1216  O     0.24275   0.16666   0.88050   0.00000  Uiso   1.00
Zn1217 Zn    0.16667   0.16666   0.88437   0.00000  Uiso   1.00
Zn1218 Zn    0.16667   0.16667   0.78229   0.00000  Uiso   1.00
C1219  C     0.32462   0.12222   0.78835   0.00000  Uiso   1.00
H1220  H     0.29245   0.12677   0.76169   0.00000  Uiso   1.00
O1221  O     0.01060   0.08842   0.79257   0.00000  Uiso   1.00
C1222  C     0.01015   0.20729   0.88049   0.00000  Uiso   1.00
H1223  H     0.00673   0.23946   0.86988   0.00000  Uiso   1.00
O1224  O     0.03203   0.19891   0.91826   0.00000  Uiso   1.00
C1225  C     0.21373   0.04225   0.76042   0.00000  Uiso   1.00
H1226  H     0.23248   0.07279   0.76487   0.00000  Uiso   1.00
O1227  O     0.21353   0.02501   0.72435   0.00000  Uiso   1.00
C1228  C     0.12156   0.29180   0.90448   0.00000  Uiso   1.00
H1229  H     0.09847   0.26321   0.89735   0.00000  Uiso   1.00
O1230  O     0.12369   0.30704   0.94182   0.00000  Uiso   1.00
N1231  N     0.23524   0.22158   0.72023   0.00000  Uiso   1.00
H1232  H     0.22867   0.22800   0.75198   0.00000  Uiso   1.00
C1233  C     0.28978   0.21668   0.71833   0.00000  Uiso   1.00
H1234  H     0.31012   0.20852   0.75218   0.00000  Uiso   1.00
H1235  H     0.30783   0.24655   0.70815   0.00000  Uiso   1.00
H1236  H     0.29551   0.19199   0.69455   0.00000  Uiso   1.00
N1237  N     0.10064   0.10955   0.94584   0.00000  Uiso   1.00
H1238  H     0.09754   0.11304   0.91172   0.00000  Uiso   1.00
C1239  C     0.09513   0.06653   0.95990   0.00000  Uiso   1.00
H1240  H     0.08039   0.04709   0.93009   0.00000  Uiso   1.00
H1241  H     0.06434   0.06206   0.98154   0.00000  Uiso   1.00
H1242  H     0.13272   0.05531   0.97703   0.00000  Uiso   1.00
N1243  N     0.21279   0.23362   0.95898   0.00000  Uiso   1.00
H1244  H     0.20564   0.26035   0.97495   0.00000  Uiso   1.00
C1245  C     0.26379   0.23465   0.94543   0.00000  Uiso   1.00
H1246  H     0.28980   0.25849   0.96478   0.00000  Uiso   1.00
H1247  H     0.26062   0.24380   0.90933   0.00000  Uiso   1.00
H1248  H     0.28150   0.20413   0.95086   0.00000  Uiso   1.00
N1249  N     0.09508   0.11744   0.70783   0.00000  Uiso   1.00
H1250  H     0.10109   0.08643   0.71390   0.00000  Uiso   1.00
C1251  C     0.04214   0.12911   0.69387   0.00000  Uiso   1.00
H1252  H     0.01474   0.10576   0.70622   0.00000  Uiso   1.00
H1253  H     0.03208   0.13090   0.98996   0.00000  Uiso   1.00
H1254  H     0.03721   0.15992   0.70780   0.00000  Uiso   1.00
C1255  C     0.50380   0.08700   0.83384   0.00000  Uiso   1.00
C1256  C     0.49793   0.24646   0.83293   0.00000  Uiso   1.00
C1257  C     0.40076   0.16533   0.82191   0.00000  Uiso   1.00
C1258  C     0.59934   0.16712   0.84492   0.00000  Uiso   1.00
C1259  C     0.34644   0.15683   0.81843   0.00000  Uiso   1.00
C1260  C     0.65400   0.17378   0.84926   0.00000  Uiso   1.00
C1261  C     0.52304   0.02147   0.79758   0.00000  Uiso   1.00
C1262  C     0.48268   0.31212   0.86927   0.00000  Uiso   1.00
C1263  C     0.51738   0.31202   0.79759   0.00000  Uiso   1.00
C1264  C     0.49164   0.02115   0.87064   0.00000  Uiso   1.00
C1265  C     0.49740   0.29077   0.83278   0.00000  Uiso   1.00
C1266  C     0.50813   0.04275   0.83424   0.00000  Uiso   1.00
C1267  C     0.53224   0.19386   0.69388   0.00000  Uiso   1.00
C1268  C     0.46896   0.13803   0.97299   0.00000  Uiso   1.00
C1269  C     0.52832   0.19633   0.97913   0.00000  Uiso   1.00
C1270  C     0.46690   0.14032   0.68749   0.00000  Uiso   1.00
H1271  H     0.53014   0.29513   0.77056   0.00000  Uiso   1.00
H1272  H     0.48280   0.03770   0.89915   0.00000  Uiso   1.00
N1273  N     0.49999   0.16666   0.95240   0.00000  Uiso   1.00
N1274  N     0.50001   0.16668   0.71427   0.00000  Uiso   1.00
O1275  O     0.50000   0.10558   0.87154   0.00000  Uiso   1.00
O1276  O     0.50000   0.22775   0.79513   0.00000  Uiso   1.00
O1277  O     0.50000   0.10559   0.79510   0.00000  Uiso   1.00
O1278  O     0.50000   0.22774   0.87157   0.00000  Uiso   1.00
O1279  O     0.42392   0.16666   0.86261   0.00000  Uiso   1.00
O1280  O     0.57608   0.16667   0.80405   0.00000  Uiso   1.00
O1281  O     0.42392   0.16667   0.78617   0.00000  Uiso   1.00
O1282  O     0.57608   0.16666   0.88050   0.00000  Uiso   1.00
Zn1283 Zn    0.50000   0.16666   0.88437   0.00000  Uiso   1.00
Zn1284 Zn    0.50000   0.16667   0.78229   0.00000  Uiso   1.00
C1285  C     0.65795   0.12222   0.78835   0.00000  Uiso   1.00
H1286  H     0.62579   0.12677   0.76169   0.00000  Uiso   1.00
O1287  O     0.34393   0.08842   0.79257   0.00000  Uiso   1.00
C1288  C     0.34349   0.20729   0.88049   0.00000  Uiso   1.00
H1289  H     0.34006   0.23946   0.86988   0.00000  Uiso   1.00
O1290  O     0.36537   0.19891   0.91826   0.00000  Uiso   1.00
C1291  C     0.54707   0.04225   0.76042   0.00000  Uiso   1.00
H1292  H     0.56582   0.07279   0.76487   0.00000  Uiso   1.00
O1293  O     0.54687   0.02501   0.72435   0.00000  Uiso   1.00
C1294  C     0.45489   0.29180   0.90448   0.00000  Uiso   1.00
H1295  H     0.43181   0.26321   0.89735   0.00000  Uiso   1.00
O1296  O     0.45703   0.30704   0.94182   0.00000  Uiso   1.00
N1297  N     0.56857   0.22158   0.72023   0.00000  Uiso   1.00
H1298  H     0.56200   0.22800   0.75198   0.00000  Uiso   1.00
C1299  C     0.62311   0.21668   0.71833   0.00000  Uiso   1.00
H1300  H     0.64346   0.20852   0.75218   0.00000  Uiso   1.00
H1301  H     0.64116   0.24655   0.70815   0.00000  Uiso   1.00
H1302  H     0.62885   0.19199   0.69455   0.00000  Uiso   1.00
N1303  N     0.43397   0.10955   0.94584   0.00000  Uiso   1.00
H1304  H     0.43087   0.11304   0.91172   0.00000  Uiso   1.00
C1305  C     0.42846   0.06653   0.95990   0.00000  Uiso   1.00
H1306  H     0.41372   0.04709   0.93009   0.00000  Uiso   1.00
H1307  H     0.39767   0.06206   0.98154   0.00000  Uiso   1.00
H1308  H     0.46605   0.05531   0.97703   0.00000  Uiso   1.00
N1309  N     0.54612   0.23362   0.95898   0.00000  Uiso   1.00
H1310  H     0.53897   0.26035   0.97495   0.00000  Uiso   1.00
C1311  C     0.59712   0.23465   0.94543   0.00000  Uiso   1.00
H1312  H     0.62314   0.25849   0.96478   0.00000  Uiso   1.00
H1313  H     0.59395   0.24380   0.90933   0.00000  Uiso   1.00
H1314  H     0.61483   0.20413   0.95086   0.00000  Uiso   1.00
N1315  N     0.42842   0.11744   0.70783   0.00000  Uiso   1.00
H1316  H     0.43443   0.08643   0.71390   0.00000  Uiso   1.00
C1317  C     0.37547   0.12911   0.69387   0.00000  Uiso   1.00
H1318  H     0.34808   0.10576   0.70622   0.00000  Uiso   1.00
H1319  H     0.36541   0.13090   0.98996   0.00000  Uiso   1.00
H1320  H     0.37054   0.15992   0.70780   0.00000  Uiso   1.00
C1321  C     0.83713   0.08700   0.83384   0.00000  Uiso   1.00
C1322  C     0.83127   0.24646   0.83293   0.00000  Uiso   1.00
C1323  C     0.73409   0.16533   0.82191   0.00000  Uiso   1.00
C1324  C     0.93268   0.16712   0.84492   0.00000  Uiso   1.00
C1325  C     0.67977   0.15683   0.81843   0.00000  Uiso   1.00
C1326  C     0.98733   0.17378   0.84926   0.00000  Uiso   1.00
C1327  C     0.85638   0.02147   0.79758   0.00000  Uiso   1.00
C1328  C     0.81602   0.31212   0.86927   0.00000  Uiso   1.00
C1329  C     0.85071   0.31202   0.79759   0.00000  Uiso   1.00
C1330  C     0.82498   0.02115   0.87064   0.00000  Uiso   1.00
C1331  C     0.83073   0.29077   0.83278   0.00000  Uiso   1.00
C1332  C     0.84146   0.04275   0.83424   0.00000  Uiso   1.00
C1333  C     0.86558   0.19386   0.69388   0.00000  Uiso   1.00
C1334  C     0.80229   0.13803   0.97299   0.00000  Uiso   1.00
C1335  C     0.86165   0.19633   0.97913   0.00000  Uiso   1.00
C1336  C     0.80023   0.14032   0.68749   0.00000  Uiso   1.00
H1337  H     0.86348   0.29513   0.77056   0.00000  Uiso   1.00
H1338  H     0.81614   0.03770   0.89915   0.00000  Uiso   1.00
N1339  N     0.83332   0.16666   0.95240   0.00000  Uiso   1.00
N1340  N     0.83335   0.16668   0.71427   0.00000  Uiso   1.00
O1341  O     0.83333   0.10558   0.87154   0.00000  Uiso   1.00
O1342  O     0.83334   0.22775   0.79513   0.00000  Uiso   1.00
O1343  O     0.83333   0.10559   0.79510   0.00000  Uiso   1.00
O1344  O     0.83334   0.22774   0.87157   0.00000  Uiso   1.00
O1345  O     0.75725   0.16666   0.86261   0.00000  Uiso   1.00
O1346  O     0.90942   0.16667   0.80405   0.00000  Uiso   1.00
O1347  O     0.75725   0.16667   0.78617   0.00000  Uiso   1.00
O1348  O     0.90942   0.16666   0.88050   0.00000  Uiso   1.00
Zn1349 Zn    0.83333   0.16666   0.88437   0.00000  Uiso   1.00
Zn1350 Zn    0.83333   0.16667   0.78229   0.00000  Uiso   1.00
C1351  C     0.99129   0.12222   0.78835   0.00000  Uiso   1.00
H1352  H     0.95912   0.12677   0.76169   0.00000  Uiso   1.00
O1353  O     0.67726   0.08842   0.79257   0.00000  Uiso   1.00
C1354  C     0.67682   0.20729   0.88049   0.00000  Uiso   1.00
H1355  H     0.67340   0.23946   0.86988   0.00000  Uiso   1.00
O1356  O     0.69870   0.19891   0.91826   0.00000  Uiso   1.00
C1357  C     0.88040   0.04225   0.76042   0.00000  Uiso   1.00
H1358  H     0.89915   0.07279   0.76487   0.00000  Uiso   1.00
O1359  O     0.88020   0.02501   0.72435   0.00000  Uiso   1.00
C1360  C     0.78822   0.29180   0.90448   0.00000  Uiso   1.00
H1361  H     0.76514   0.26321   0.89735   0.00000  Uiso   1.00
O1362  O     0.79036   0.30704   0.94182   0.00000  Uiso   1.00
N1363  N     0.90190   0.22158   0.72023   0.00000  Uiso   1.00
H1364  H     0.89534   0.22800   0.75198   0.00000  Uiso   1.00
C1365  C     0.95644   0.21668   0.71833   0.00000  Uiso   1.00
H1366  H     0.97679   0.20852   0.75218   0.00000  Uiso   1.00
H1367  H     0.97450   0.24655   0.70815   0.00000  Uiso   1.00
H1368  H     0.96218   0.19199   0.69455   0.00000  Uiso   1.00
N1369  N     0.76731   0.10955   0.94584   0.00000  Uiso   1.00
H1370  H     0.76421   0.11304   0.91172   0.00000  Uiso   1.00
C1371  C     0.76179   0.06653   0.95990   0.00000  Uiso   1.00
H1372  H     0.74706   0.04709   0.93009   0.00000  Uiso   1.00
H1373  H     0.73100   0.06206   0.98154   0.00000  Uiso   1.00
H1374  H     0.79939   0.05531   0.97703   0.00000  Uiso   1.00
N1375  N     0.87946   0.23362   0.95898   0.00000  Uiso   1.00
H1376  H     0.87231   0.26035   0.97495   0.00000  Uiso   1.00
C1377  C     0.93046   0.23465   0.94543   0.00000  Uiso   1.00
H1378  H     0.95647   0.25849   0.96478   0.00000  Uiso   1.00
H1379  H     0.92729   0.24380   0.90933   0.00000  Uiso   1.00
H1380  H     0.94816   0.20413   0.95086   0.00000  Uiso   1.00
N1381  N     0.76175   0.11744   0.70783   0.00000  Uiso   1.00
H1382  H     0.76776   0.08643   0.71390   0.00000  Uiso   1.00
C1383  C     0.70881   0.12911   0.69387   0.00000  Uiso   1.00
H1384  H     0.68141   0.10576   0.70622   0.00000  Uiso   1.00
H1385  H     0.69874   0.13090   0.98996   0.00000  Uiso   1.00
H1386  H     0.70388   0.15992   0.70780   0.00000  Uiso   1.00
C1387  C     0.17047   0.42033   0.83384   0.00000  Uiso   1.00
C1388  C     0.16460   0.57979   0.83293   0.00000  Uiso   1.00
C1389  C     0.06743   0.49867   0.82191   0.00000  Uiso   1.00
C1390  C     0.26601   0.50045   0.84492   0.00000  Uiso   1.00
C1391  C     0.01311   0.49017   0.81843   0.00000  Uiso   1.00
C1392  C     0.32067   0.50711   0.84926   0.00000  Uiso   1.00
C1393  C     0.18971   0.35480   0.79758   0.00000  Uiso   1.00
C1394  C     0.14935   0.64545   0.86927   0.00000  Uiso   1.00
C1395  C     0.18405   0.64535   0.79759   0.00000  Uiso   1.00
C1396  C     0.15831   0.35448   0.87064   0.00000  Uiso   1.00
C1397  C     0.16406   0.62410   0.83278   0.00000  Uiso   1.00
C1398  C     0.17480   0.37609   0.83424   0.00000  Uiso   1.00
C1399  C     0.19891   0.52720   0.69388   0.00000  Uiso   1.00
C1400  C     0.13562   0.47136   0.97299   0.00000  Uiso   1.00
C1401  C     0.19499   0.52967   0.97913   0.00000  Uiso   1.00
C1402  C     0.13356   0.47365   0.68749   0.00000  Uiso   1.00
H1403  H     0.19681   0.62846   0.77056   0.00000  Uiso   1.00
H1404  H     0.14947   0.37104   0.89915   0.00000  Uiso   1.00
N1405  N     0.16665   0.49999   0.95240   0.00000  Uiso   1.00
N1406  N     0.16668   0.50001   0.71427   0.00000  Uiso   1.00
O1407  O     0.16666   0.43892   0.87154   0.00000  Uiso   1.00
O1408  O     0.16667   0.56108   0.79513   0.00000  Uiso   1.00
O1409  O     0.16666   0.43893   0.79510   0.00000  Uiso   1.00
O1410  O     0.16667   0.56107   0.87157   0.00000  Uiso   1.00
O1411  O     0.09058   0.50000   0.86261   0.00000  Uiso   1.00
O1412  O     0.24275   0.50000   0.80405   0.00000  Uiso   1.00
O1413  O     0.09058   0.50000   0.78617   0.00000  Uiso   1.00
O1414  O     0.24275   0.50000   0.88050   0.00000  Uiso   1.00
Zn1415 Zn    0.16667   0.49999   0.88437   0.00000  Uiso   1.00
Zn1416 Zn    0.16667   0.50001   0.78229   0.00000  Uiso   1.00
C1417  C     0.32462   0.45555   0.78835   0.00000  Uiso   1.00
H1418  H     0.29245   0.46010   0.76169   0.00000  Uiso   1.00
O1419  O     0.01060   0.42176   0.79257   0.00000  Uiso   1.00
C1420  C     0.01015   0.54062   0.88049   0.00000  Uiso   1.00
H1421  H     0.00673   0.57280   0.86988   0.00000  Uiso   1.00
O1422  O     0.03203   0.53224   0.91826   0.00000  Uiso   1.00
C1423  C     0.21373   0.37558   0.76042   0.00000  Uiso   1.00
H1424  H     0.23248   0.40612   0.76487   0.00000  Uiso   1.00
O1425  O     0.21353   0.35834   0.72435   0.00000  Uiso   1.00
C1426  C     0.12156   0.62513   0.90448   0.00000  Uiso   1.00
H1427  H     0.09847   0.59654   0.89735   0.00000  Uiso   1.00
O1428  O     0.12369   0.64037   0.94182   0.00000  Uiso   1.00
N1429  N     0.23524   0.55492   0.72023   0.00000  Uiso   1.00
H1430  H     0.22867   0.56134   0.75198   0.00000  Uiso   1.00
C1431  C     0.28978   0.55001   0.71833   0.00000  Uiso   1.00
H1432  H     0.31012   0.54185   0.75218   0.00000  Uiso   1.00
H1433  H     0.30783   0.57988   0.70815   0.00000  Uiso   1.00
H1434  H     0.29551   0.52532   0.69455   0.00000  Uiso   1.00
N1435  N     0.10064   0.44289   0.94584   0.00000  Uiso   1.00
H1436  H     0.09754   0.44637   0.91172   0.00000  Uiso   1.00
C1437  C     0.09513   0.39986   0.95990   0.00000  Uiso   1.00
H1438  H     0.08039   0.38042   0.93009   0.00000  Uiso   1.00
H1439  H     0.06434   0.39540   0.98154   0.00000  Uiso   1.00
H1440  H     0.13272   0.38865   0.97703   0.00000  Uiso   1.00
N1441  N     0.21279   0.56695   0.95898   0.00000  Uiso   1.00
H1442  H     0.20564   0.59369   0.97495   0.00000  Uiso   1.00
C1443  C     0.26379   0.56799   0.94543   0.00000  Uiso   1.00
H1444  H     0.28980   0.59182   0.96478   0.00000  Uiso   1.00
H1445  H     0.26062   0.57713   0.90933   0.00000  Uiso   1.00
H1446  H     0.28150   0.53746   0.95086   0.00000  Uiso   1.00
N1447  N     0.09508   0.45077   0.70783   0.00000  Uiso   1.00
H1448  H     0.10109   0.41977   0.71390   0.00000  Uiso   1.00
C1449  C     0.04214   0.46244   0.69387   0.00000  Uiso   1.00
H1450  H     0.01474   0.43910   0.70622   0.00000  Uiso   1.00
H1451  H     0.03208   0.46424   0.98996   0.00000  Uiso   1.00
H1452  H     0.03721   0.49326   0.70780   0.00000  Uiso   1.00
C1453  C     0.50380   0.42033   0.83384   0.00000  Uiso   1.00
C1454  C     0.49793   0.57979   0.83293   0.00000  Uiso   1.00
C1455  C     0.40076   0.49867   0.82191   0.00000  Uiso   1.00
C1456  C     0.59934   0.50045   0.84492   0.00000  Uiso   1.00
C1457  C     0.34644   0.49017   0.81843   0.00000  Uiso   1.00
C1458  C     0.65400   0.50711   0.84926   0.00000  Uiso   1.00
C1459  C     0.52304   0.35480   0.79758   0.00000  Uiso   1.00
C1460  C     0.48268   0.64545   0.86927   0.00000  Uiso   1.00
C1461  C     0.51738   0.64535   0.79759   0.00000  Uiso   1.00
C1462  C     0.49164   0.35448   0.87064   0.00000  Uiso   1.00
C1463  C     0.49740   0.62410   0.83278   0.00000  Uiso   1.00
C1464  C     0.50813   0.37609   0.83424   0.00000  Uiso   1.00
C1465  C     0.53224   0.52720   0.69388   0.00000  Uiso   1.00
C1466  C     0.46896   0.47136   0.97299   0.00000  Uiso   1.00
C1467  C     0.52832   0.52967   0.97913   0.00000  Uiso   1.00
C1468  C     0.46690   0.47365   0.68749   0.00000  Uiso   1.00
H1469  H     0.53014   0.62846   0.77056   0.00000  Uiso   1.00
H1470  H     0.48280   0.37104   0.89915   0.00000  Uiso   1.00
N1471  N     0.49999   0.49999   0.95240   0.00000  Uiso   1.00
N1472  N     0.50001   0.50001   0.71427   0.00000  Uiso   1.00
O1473  O     0.50000   0.43892   0.87154   0.00000  Uiso   1.00
O1474  O     0.50000   0.56108   0.79513   0.00000  Uiso   1.00
O1475  O     0.50000   0.43893   0.79510   0.00000  Uiso   1.00
O1476  O     0.50000   0.56107   0.87157   0.00000  Uiso   1.00
O1477  O     0.42392   0.50000   0.86261   0.00000  Uiso   1.00
O1478  O     0.57608   0.50000   0.80405   0.00000  Uiso   1.00
O1479  O     0.42392   0.50000   0.78617   0.00000  Uiso   1.00
O1480  O     0.57608   0.50000   0.88050   0.00000  Uiso   1.00
Zn1481 Zn    0.50000   0.49999   0.88437   0.00000  Uiso   1.00
Zn1482 Zn    0.50000   0.50001   0.78229   0.00000  Uiso   1.00
C1483  C     0.65795   0.45555   0.78835   0.00000  Uiso   1.00
H1484  H     0.62579   0.46010   0.76169   0.00000  Uiso   1.00
O1485  O     0.34393   0.42176   0.79257   0.00000  Uiso   1.00
C1486  C     0.34349   0.54062   0.88049   0.00000  Uiso   1.00
H1487  H     0.34006   0.57280   0.86988   0.00000  Uiso   1.00
O1488  O     0.36537   0.53224   0.91826   0.00000  Uiso   1.00
C1489  C     0.54707   0.37558   0.76042   0.00000  Uiso   1.00
H1490  H     0.56582   0.40612   0.76487   0.00000  Uiso   1.00
O1491  O     0.54687   0.35834   0.72435   0.00000  Uiso   1.00
C1492  C     0.45489   0.62513   0.90448   0.00000  Uiso   1.00
H1493  H     0.43181   0.59654   0.89735   0.00000  Uiso   1.00
O1494  O     0.45703   0.64037   0.94182   0.00000  Uiso   1.00
N1495  N     0.56857   0.55492   0.72023   0.00000  Uiso   1.00
H1496  H     0.56200   0.56134   0.75198   0.00000  Uiso   1.00
C1497  C     0.62311   0.55001   0.71833   0.00000  Uiso   1.00
H1498  H     0.64346   0.54185   0.75218   0.00000  Uiso   1.00
H1499  H     0.64116   0.57988   0.70815   0.00000  Uiso   1.00
H1500  H     0.62885   0.52532   0.69455   0.00000  Uiso   1.00
N1501  N     0.43397   0.44289   0.94584   0.00000  Uiso   1.00
H1502  H     0.43087   0.44637   0.91172   0.00000  Uiso   1.00
C1503  C     0.42846   0.39986   0.95990   0.00000  Uiso   1.00
H1504  H     0.41372   0.38042   0.93009   0.00000  Uiso   1.00
H1505  H     0.39767   0.39540   0.98154   0.00000  Uiso   1.00
H1506  H     0.46605   0.38865   0.97703   0.00000  Uiso   1.00
N1507  N     0.54612   0.56695   0.95898   0.00000  Uiso   1.00
H1508  H     0.53897   0.59369   0.97495   0.00000  Uiso   1.00
C1509  C     0.59712   0.56799   0.94543   0.00000  Uiso   1.00
H1510  H     0.62314   0.59182   0.96478   0.00000  Uiso   1.00
H1511  H     0.59395   0.57713   0.90933   0.00000  Uiso   1.00
H1512  H     0.61483   0.53746   0.95086   0.00000  Uiso   1.00
N1513  N     0.42842   0.45077   0.70783   0.00000  Uiso   1.00
H1514  H     0.43443   0.41977   0.71390   0.00000  Uiso   1.00
C1515  C     0.37547   0.46244   0.69387   0.00000  Uiso   1.00
H1516  H     0.34808   0.43910   0.70622   0.00000  Uiso   1.00
H1517  H     0.36541   0.46424   0.98996   0.00000  Uiso   1.00
H1518  H     0.37054   0.49326   0.70780   0.00000  Uiso   1.00
C1519  C     0.83713   0.42033   0.83384   0.00000  Uiso   1.00
C1520  C     0.83127   0.57979   0.83293   0.00000  Uiso   1.00
C1521  C     0.73409   0.49867   0.82191   0.00000  Uiso   1.00
C1522  C     0.93268   0.50045   0.84492   0.00000  Uiso   1.00
C1523  C     0.67977   0.49017   0.81843   0.00000  Uiso   1.00
C1524  C     0.98733   0.50711   0.84926   0.00000  Uiso   1.00
C1525  C     0.85638   0.35480   0.79758   0.00000  Uiso   1.00
C1526  C     0.81602   0.64545   0.86927   0.00000  Uiso   1.00
C1527  C     0.85071   0.64535   0.79759   0.00000  Uiso   1.00
C1528  C     0.82498   0.35448   0.87064   0.00000  Uiso   1.00
C1529  C     0.83073   0.62410   0.83278   0.00000  Uiso   1.00
C1530  C     0.84146   0.37609   0.83424   0.00000  Uiso   1.00
C1531  C     0.86558   0.52720   0.69388   0.00000  Uiso   1.00
C1532  C     0.80229   0.47136   0.97299   0.00000  Uiso   1.00
C1533  C     0.86165   0.52967   0.97913   0.00000  Uiso   1.00
C1534  C     0.80023   0.47365   0.68749   0.00000  Uiso   1.00
H1535  H     0.86348   0.62846   0.77056   0.00000  Uiso   1.00
H1536  H     0.81614   0.37104   0.89915   0.00000  Uiso   1.00
N1537  N     0.83332   0.49999   0.95240   0.00000  Uiso   1.00
N1538  N     0.83335   0.50001   0.71427   0.00000  Uiso   1.00
O1539  O     0.83333   0.43892   0.87154   0.00000  Uiso   1.00
O1540  O     0.83334   0.56108   0.79513   0.00000  Uiso   1.00
O1541  O     0.83333   0.43893   0.79510   0.00000  Uiso   1.00
O1542  O     0.83334   0.56107   0.87157   0.00000  Uiso   1.00
O1543  O     0.75725   0.50000   0.86261   0.00000  Uiso   1.00
O1544  O     0.90942   0.50000   0.80405   0.00000  Uiso   1.00
O1545  O     0.75725   0.50000   0.78617   0.00000  Uiso   1.00
O1546  O     0.90942   0.50000   0.88050   0.00000  Uiso   1.00
Zn1547 Zn    0.83333   0.49999   0.88437   0.00000  Uiso   1.00
Zn1548 Zn    0.83333   0.50001   0.78229   0.00000  Uiso   1.00
C1549  C     0.99129   0.45555   0.78835   0.00000  Uiso   1.00
H1550  H     0.95912   0.46010   0.76169   0.00000  Uiso   1.00
O1551  O     0.67726   0.42176   0.79257   0.00000  Uiso   1.00
C1552  C     0.67682   0.54062   0.88049   0.00000  Uiso   1.00
H1553  H     0.67340   0.57280   0.86988   0.00000  Uiso   1.00
O1554  O     0.69870   0.53224   0.91826   0.00000  Uiso   1.00
C1555  C     0.88040   0.37558   0.76042   0.00000  Uiso   1.00
H1556  H     0.89915   0.40612   0.76487   0.00000  Uiso   1.00
O1557  O     0.88020   0.35834   0.72435   0.00000  Uiso   1.00
C1558  C     0.78822   0.62513   0.90448   0.00000  Uiso   1.00
H1559  H     0.76514   0.59654   0.89735   0.00000  Uiso   1.00
O1560  O     0.79036   0.64037   0.94182   0.00000  Uiso   1.00
N1561  N     0.90190   0.55492   0.72023   0.00000  Uiso   1.00
H1562  H     0.89534   0.56134   0.75198   0.00000  Uiso   1.00
C1563  C     0.95644   0.55001   0.71833   0.00000  Uiso   1.00
H1564  H     0.97679   0.54185   0.75218   0.00000  Uiso   1.00
H1565  H     0.97450   0.57988   0.70815   0.00000  Uiso   1.00
H1566  H     0.96218   0.52532   0.69455   0.00000  Uiso   1.00
N1567  N     0.76731   0.44289   0.94584   0.00000  Uiso   1.00
H1568  H     0.76421   0.44637   0.91172   0.00000  Uiso   1.00
C1569  C     0.76179   0.39986   0.95990   0.00000  Uiso   1.00
H1570  H     0.74706   0.38042   0.93009   0.00000  Uiso   1.00
H1571  H     0.73100   0.39540   0.98154   0.00000  Uiso   1.00
H1572  H     0.79939   0.38865   0.97703   0.00000  Uiso   1.00
N1573  N     0.87946   0.56695   0.95898   0.00000  Uiso   1.00
H1574  H     0.87231   0.59369   0.97495   0.00000  Uiso   1.00
C1575  C     0.93046   0.56799   0.94543   0.00000  Uiso   1.00
H1576  H     0.95647   0.59182   0.96478   0.00000  Uiso   1.00
H1577  H     0.92729   0.57713   0.90933   0.00000  Uiso   1.00
H1578  H     0.94816   0.53746   0.95086   0.00000  Uiso   1.00
N1579  N     0.76175   0.45077   0.70783   0.00000  Uiso   1.00
H1580  H     0.76776   0.41977   0.71390   0.00000  Uiso   1.00
C1581  C     0.70881   0.46244   0.69387   0.00000  Uiso   1.00
H1582  H     0.68141   0.43910   0.70622   0.00000  Uiso   1.00
H1583  H     0.69874   0.46424   0.98996   0.00000  Uiso   1.00
H1584  H     0.70388   0.49326   0.70780   0.00000  Uiso   1.00
C1585  C     0.17047   0.75366   0.83384   0.00000  Uiso   1.00
C1586  C     0.16460   0.91312   0.83293   0.00000  Uiso   1.00
C1587  C     0.06743   0.83200   0.82191   0.00000  Uiso   1.00
C1588  C     0.26601   0.83378   0.84492   0.00000  Uiso   1.00
C1589  C     0.01311   0.82350   0.81843   0.00000  Uiso   1.00
C1590  C     0.32067   0.84045   0.84926   0.00000  Uiso   1.00
C1591  C     0.18971   0.68813   0.79758   0.00000  Uiso   1.00
C1592  C     0.14935   0.97879   0.86927   0.00000  Uiso   1.00
C1593  C     0.18405   0.97869   0.79759   0.00000  Uiso   1.00
C1594  C     0.15831   0.68782   0.87064   0.00000  Uiso   1.00
C1595  C     0.16406   0.95744   0.83278   0.00000  Uiso   1.00
C1596  C     0.17480   0.70942   0.83424   0.00000  Uiso   1.00
C1597  C     0.19891   0.86053   0.69388   0.00000  Uiso   1.00
C1598  C     0.13562   0.80469   0.97299   0.00000  Uiso   1.00
C1599  C     0.19499   0.86300   0.97913   0.00000  Uiso   1.00
C1600  C     0.13356   0.80698   0.68749   0.00000  Uiso   1.00
H1601  H     0.19681   0.96180   0.77056   0.00000  Uiso   1.00
H1602  H     0.14947   0.70437   0.89915   0.00000  Uiso   1.00
N1603  N     0.16665   0.83332   0.95240   0.00000  Uiso   1.00
N1604  N     0.16668   0.83334   0.71427   0.00000  Uiso   1.00
O1605  O     0.16666   0.77225   0.87154   0.00000  Uiso   1.00
O1606  O     0.16667   0.89442   0.79513   0.00000  Uiso   1.00
O1607  O     0.16666   0.77226   0.79510   0.00000  Uiso   1.00
O1608  O     0.16667   0.89441   0.87157   0.00000  Uiso   1.00
O1609  O     0.09058   0.83333   0.86261   0.00000  Uiso   1.00
O1610  O     0.24275   0.83334   0.80405   0.00000  Uiso   1.00
O1611  O     0.09058   0.83334   0.78617   0.00000  Uiso   1.00
O1612  O     0.24275   0.83333   0.88050   0.00000  Uiso   1.00
Zn1613 Zn    0.16667   0.83333   0.88437   0.00000  Uiso   1.00
Zn1614 Zn    0.16667   0.83334   0.78229   0.00000  Uiso   1.00
C1615  C     0.32462   0.78888   0.78835   0.00000  Uiso   1.00
H1616  H     0.29245   0.79344   0.76169   0.00000  Uiso   1.00
O1617  O     0.01060   0.75509   0.79257   0.00000  Uiso   1.00
C1618  C     0.01015   0.87396   0.88049   0.00000  Uiso   1.00
H1619  H     0.00673   0.90613   0.86988   0.00000  Uiso   1.00
O1620  O     0.03203   0.86558   0.91826   0.00000  Uiso   1.00
C1621  C     0.21373   0.70892   0.76042   0.00000  Uiso   1.00
H1622  H     0.23248   0.73946   0.76487   0.00000  Uiso   1.00
O1623  O     0.21353   0.69168   0.72435   0.00000  Uiso   1.00
C1624  C     0.12156   0.95847   0.90448   0.00000  Uiso   1.00
H1625  H     0.09847   0.92988   0.89735   0.00000  Uiso   1.00
O1626  O     0.12369   0.97371   0.94182   0.00000  Uiso   1.00
N1627  N     0.23524   0.88825   0.72023   0.00000  Uiso   1.00
H1628  H     0.22867   0.89467   0.75198   0.00000  Uiso   1.00
C1629  C     0.28978   0.88335   0.71833   0.00000  Uiso   1.00
H1630  H     0.31012   0.87518   0.75218   0.00000  Uiso   1.00
H1631  H     0.30783   0.91322   0.70815   0.00000  Uiso   1.00
H1632  H     0.29551   0.85866   0.69455   0.00000  Uiso   1.00
N1633  N     0.10064   0.77622   0.94584   0.00000  Uiso   1.00
H1634  H     0.09754   0.77971   0.91172   0.00000  Uiso   1.00
C1635  C     0.09513   0.73319   0.95990   0.00000  Uiso   1.00
H1636  H     0.08039   0.71376   0.93009   0.00000  Uiso   1.00
H1637  H     0.06434   0.72873   0.98154   0.00000  Uiso   1.00
H1638  H     0.13272   0.72198   0.97703   0.00000  Uiso   1.00
N1639  N     0.21279   0.90028   0.95898   0.00000  Uiso   1.00
H1640  H     0.20564   0.92702   0.97495   0.00000  Uiso   1.00
C1641  C     0.26379   0.90132   0.94543   0.00000  Uiso   1.00
H1642  H     0.28980   0.92516   0.96478   0.00000  Uiso   1.00
H1643  H     0.26062   0.91046   0.90933   0.00000  Uiso   1.00
H1644  H     0.28150   0.87080   0.95086   0.00000  Uiso   1.00
N1645  N     0.09508   0.78411   0.70783   0.00000  Uiso   1.00
H1646  H     0.10109   0.75310   0.71390   0.00000  Uiso   1.00
C1647  C     0.04214   0.79578   0.69387   0.00000  Uiso   1.00
H1648  H     0.01474   0.77243   0.70622   0.00000  Uiso   1.00
H1649  H     0.03208   0.79757   0.98996   0.00000  Uiso   1.00
H1650  H     0.03721   0.82659   0.70780   0.00000  Uiso   1.00
C1651  C     0.50380   0.75366   0.83384   0.00000  Uiso   1.00
C1652  C     0.49793   0.91312   0.83293   0.00000  Uiso   1.00
C1653  C     0.40076   0.83200   0.82191   0.00000  Uiso   1.00
C1654  C     0.59934   0.83378   0.84492   0.00000  Uiso   1.00
C1655  C     0.34644   0.82350   0.81843   0.00000  Uiso   1.00
C1656  C     0.65400   0.84045   0.84926   0.00000  Uiso   1.00
C1657  C     0.52304   0.68813   0.79758   0.00000  Uiso   1.00
C1658  C     0.48268   0.97879   0.86927   0.00000  Uiso   1.00
C1659  C     0.51738   0.97869   0.79759   0.00000  Uiso   1.00
C1660  C     0.49164   0.68782   0.87064   0.00000  Uiso   1.00
C1661  C     0.49740   0.95744   0.83278   0.00000  Uiso   1.00
C1662  C     0.50813   0.70942   0.83424   0.00000  Uiso   1.00
C1663  C     0.53224   0.86053   0.69388   0.00000  Uiso   1.00
C1664  C     0.46896   0.80469   0.97299   0.00000  Uiso   1.00
C1665  C     0.52832   0.86300   0.97913   0.00000  Uiso   1.00
C1666  C     0.46690   0.80698   0.68749   0.00000  Uiso   1.00
H1667  H     0.53014   0.96180   0.77056   0.00000  Uiso   1.00
H1668  H     0.48280   0.70437   0.89915   0.00000  Uiso   1.00
N1669  N     0.49999   0.83332   0.95240   0.00000  Uiso   1.00
N1670  N     0.50001   0.83334   0.71427   0.00000  Uiso   1.00
O1671  O     0.50000   0.77225   0.87154   0.00000  Uiso   1.00
O1672  O     0.50000   0.89442   0.79513   0.00000  Uiso   1.00
O1673  O     0.50000   0.77226   0.79510   0.00000  Uiso   1.00
O1674  O     0.50000   0.89441   0.87157   0.00000  Uiso   1.00
O1675  O     0.42392   0.83333   0.86261   0.00000  Uiso   1.00
O1676  O     0.57608   0.83334   0.80405   0.00000  Uiso   1.00
O1677  O     0.42392   0.83334   0.78617   0.00000  Uiso   1.00
O1678  O     0.57608   0.83333   0.88050   0.00000  Uiso   1.00
Zn1679 Zn    0.50000   0.83333   0.88437   0.00000  Uiso   1.00
Zn1680 Zn    0.50000   0.83334   0.78229   0.00000  Uiso   1.00
C1681  C     0.65795   0.78888   0.78835   0.00000  Uiso   1.00
H1682  H     0.62579   0.79344   0.76169   0.00000  Uiso   1.00
O1683  O     0.34393   0.75509   0.79257   0.00000  Uiso   1.00
C1684  C     0.34349   0.87396   0.88049   0.00000  Uiso   1.00
H1685  H     0.34006   0.90613   0.86988   0.00000  Uiso   1.00
O1686  O     0.36537   0.86558   0.91826   0.00000  Uiso   1.00
C1687  C     0.54707   0.70892   0.76042   0.00000  Uiso   1.00
H1688  H     0.56582   0.73946   0.76487   0.00000  Uiso   1.00
O1689  O     0.54687   0.69168   0.72435   0.00000  Uiso   1.00
C1690  C     0.45489   0.95847   0.90448   0.00000  Uiso   1.00
H1691  H     0.43181   0.92988   0.89735   0.00000  Uiso   1.00
O1692  O     0.45703   0.97371   0.94182   0.00000  Uiso   1.00
N1693  N     0.56857   0.88825   0.72023   0.00000  Uiso   1.00
H1694  H     0.56200   0.89467   0.75198   0.00000  Uiso   1.00
C1695  C     0.62311   0.88335   0.71833   0.00000  Uiso   1.00
H1696  H     0.64346   0.87518   0.75218   0.00000  Uiso   1.00
H1697  H     0.64116   0.91322   0.70815   0.00000  Uiso   1.00
H1698  H     0.62885   0.85866   0.69455   0.00000  Uiso   1.00
N1699  N     0.43397   0.77622   0.94584   0.00000  Uiso   1.00
H1700  H     0.43087   0.77971   0.91172   0.00000  Uiso   1.00
C1701  C     0.42846   0.73319   0.95990   0.00000  Uiso   1.00
H1702  H     0.41372   0.71376   0.93009   0.00000  Uiso   1.00
H1703  H     0.39767   0.72873   0.98154   0.00000  Uiso   1.00
H1704  H     0.46605   0.72198   0.97703   0.00000  Uiso   1.00
N1705  N     0.54612   0.90028   0.95898   0.00000  Uiso   1.00
H1706  H     0.53897   0.92702   0.97495   0.00000  Uiso   1.00
C1707  C     0.59712   0.90132   0.94543   0.00000  Uiso   1.00
H1708  H     0.62314   0.92516   0.96478   0.00000  Uiso   1.00
H1709  H     0.59395   0.91046   0.90933   0.00000  Uiso   1.00
H1710  H     0.61483   0.87080   0.95086   0.00000  Uiso   1.00
N1711  N     0.42842   0.78411   0.70783   0.00000  Uiso   1.00
H1712  H     0.43443   0.75310   0.71390   0.00000  Uiso   1.00
C1713  C     0.37547   0.79578   0.69387   0.00000  Uiso   1.00
H1714  H     0.34808   0.77243   0.70622   0.00000  Uiso   1.00
H1715  H     0.36541   0.79757   0.98996   0.00000  Uiso   1.00
H1716  H     0.37054   0.82659   0.70780   0.00000  Uiso   1.00
C1717  C     0.83713   0.75366   0.83384   0.00000  Uiso   1.00
C1718  C     0.83127   0.91312   0.83293   0.00000  Uiso   1.00
C1719  C     0.73409   0.83200   0.82191   0.00000  Uiso   1.00
C1720  C     0.93268   0.83378   0.84492   0.00000  Uiso   1.00
C1721  C     0.67977   0.82350   0.81843   0.00000  Uiso   1.00
C1722  C     0.98733   0.84045   0.84926   0.00000  Uiso   1.00
C1723  C     0.85638   0.68813   0.79758   0.00000  Uiso   1.00
C1724  C     0.81602   0.97879   0.86927   0.00000  Uiso   1.00
C1725  C     0.85071   0.97869   0.79759   0.00000  Uiso   1.00
C1726  C     0.82498   0.68782   0.87064   0.00000  Uiso   1.00
C1727  C     0.83073   0.95744   0.83278   0.00000  Uiso   1.00
C1728  C     0.84146   0.70942   0.83424   0.00000  Uiso   1.00
C1729  C     0.86558   0.86053   0.69388   0.00000  Uiso   1.00
C1730  C     0.80229   0.80469   0.97299   0.00000  Uiso   1.00
C1731  C     0.86165   0.86300   0.97913   0.00000  Uiso   1.00
C1732  C     0.80023   0.80698   0.68749   0.00000  Uiso   1.00
H1733  H     0.86348   0.96180   0.77056   0.00000  Uiso   1.00
H1734  H     0.81614   0.70437   0.89915   0.00000  Uiso   1.00
N1735  N     0.83332   0.83332   0.95240   0.00000  Uiso   1.00
N1736  N     0.83335   0.83334   0.71427   0.00000  Uiso   1.00
O1737  O     0.83333   0.77225   0.87154   0.00000  Uiso   1.00
O1738  O     0.83334   0.89442   0.79513   0.00000  Uiso   1.00
O1739  O     0.83333   0.77226   0.79510   0.00000  Uiso   1.00
O1740  O     0.83334   0.89441   0.87157   0.00000  Uiso   1.00
O1741  O     0.75725   0.83333   0.86261   0.00000  Uiso   1.00
O1742  O     0.90942   0.83334   0.80405   0.00000  Uiso   1.00
O1743  O     0.75725   0.83334   0.78617   0.00000  Uiso   1.00
O1744  O     0.90942   0.83333   0.88050   0.00000  Uiso   1.00
Zn1745 Zn    0.83333   0.83333   0.88437   0.00000  Uiso   1.00
Zn1746 Zn    0.83333   0.83334   0.78229   0.00000  Uiso   1.00
C1747  C     0.99129   0.78888   0.78835   0.00000  Uiso   1.00
H1748  H     0.95912   0.79344   0.76169   0.00000  Uiso   1.00
O1749  O     0.67726   0.75509   0.79257   0.00000  Uiso   1.00
C1750  C     0.67682   0.87396   0.88049   0.00000  Uiso   1.00
H1751  H     0.67340   0.90613   0.86988   0.00000  Uiso   1.00
O1752  O     0.69870   0.86558   0.91826   0.00000  Uiso   1.00
C1753  C     0.88040   0.70892   0.76042   0.00000  Uiso   1.00
H1754  H     0.89915   0.73946   0.76487   0.00000  Uiso   1.00
O1755  O     0.88020   0.69168   0.72435   0.00000  Uiso   1.00
C1756  C     0.78822   0.95847   0.90448   0.00000  Uiso   1.00
H1757  H     0.76514   0.92988   0.89735   0.00000  Uiso   1.00
O1758  O     0.79036   0.97371   0.94182   0.00000  Uiso   1.00
N1759  N     0.90190   0.88825   0.72023   0.00000  Uiso   1.00
H1760  H     0.89534   0.89467   0.75198   0.00000  Uiso   1.00
C1761  C     0.95644   0.88335   0.71833   0.00000  Uiso   1.00
H1762  H     0.97679   0.87518   0.75218   0.00000  Uiso   1.00
H1763  H     0.97450   0.91322   0.70815   0.00000  Uiso   1.00
H1764  H     0.96218   0.85866   0.69455   0.00000  Uiso   1.00
N1765  N     0.76731   0.77622   0.94584   0.00000  Uiso   1.00
H1766  H     0.76421   0.77971   0.91172   0.00000  Uiso   1.00
C1767  C     0.76179   0.73319   0.95990   0.00000  Uiso   1.00
H1768  H     0.74706   0.71376   0.93009   0.00000  Uiso   1.00
H1769  H     0.73100   0.72873   0.98154   0.00000  Uiso   1.00
H1770  H     0.79939   0.72198   0.97703   0.00000  Uiso   1.00
N1771  N     0.87946   0.90028   0.95898   0.00000  Uiso   1.00
H1772  H     0.87231   0.92702   0.97495   0.00000  Uiso   1.00
C1773  C     0.93046   0.90132   0.94543   0.00000  Uiso   1.00
H1774  H     0.95647   0.92516   0.96478   0.00000  Uiso   1.00
H1775  H     0.92729   0.91046   0.90933   0.00000  Uiso   1.00
H1776  H     0.94816   0.87080   0.95086   0.00000  Uiso   1.00
N1777  N     0.76175   0.78411   0.70783   0.00000  Uiso   1.00
H1778  H     0.76776   0.75310   0.71390   0.00000  Uiso   1.00
C1779  C     0.70881   0.79578   0.69387   0.00000  Uiso   1.00
H1780  H     0.68141   0.77243   0.70622   0.00000  Uiso   1.00
H1781  H     0.69874   0.79757   0.98996   0.00000  Uiso   1.00
H1782  H     0.70388   0.82659   0.70780   0.00000  Uiso   1.00
loop_
_geom_bond_atom_site_label_1
_geom_bond_atom_site_label_2
_geom_bond_distance
_geom_bond_site_symmetry_2
_ccdc_geom_bond_type
C1     O21     1.305   .     A
C1     O23     1.289   .     A
C1     C12     1.438   .     S
C2     O22     1.300   .     A
C2     C11     1.431   .     S
C2     O24     1.291   .     A
C3     O27     1.301   .     A
C3     O25     1.278   .     A
C3     C5      1.416   .     S
C4     O26     1.282   .     A
C4     O28     1.299   .     A
C4     C6      1.415   .     S
C5     C138    1.355   1_455 S
C5     C163    1.483   1_455 S
C6     C71     1.355   .     S
C6     C100    1.483   .     S
C7     C37     1.488   .     S
C7     C12     1.416   .     A
C7     C405    1.381   1_545 S
C8     C11     1.410   .     A
C8     C40     1.488   .     S
C8     C208    1.375   .     S
C9     C11     1.396   .     A
C9     H17     1.084   .     S
C9     C205    1.381   .     S
C10    C12     1.392   .     A
C10    H18     1.073   .     S
C10    C404    1.375   1_545 S
C13    N43     1.426   .     S
C13    N20     1.379   .     A
C13    C1203   1.428   1_554 S
C14    N49     1.433   .     S
C14    N19     1.391   .     A
C14    C610    1.444   .     S
C15    N19     1.371   .     A
C15    N55     1.423   .     S
C15    C607    1.428   .     S
C16    N20     1.361   .     A
C16    N61     1.416   .     S
C16    C1202   1.444   1_554 S
N19    Zn29    2.035   .     S
N20    Zn30    2.035   .     S
O21    Zn29    2.014   .     S
O22    Zn30    2.014   .     S
O23    Zn30    2.001   .     S
O24    Zn29    2.001   .     S
O25    Zn29    1.993   .     S
O26    Zn30    1.993   .     S
O27    Zn30    2.002   .     S
O28    Zn29    2.002   .     S
C31    H32     1.083   .     S
C31    C71     1.483   .     S
C31    O99     1.221   .     S
O33    C163    1.221   1_455 S
C34    O36     1.221   .     D
C34    H35     1.085   .     S
C34    C138    1.483   1_455 S
C37    H38     1.078   .     S
C37    O39     1.222   .     D
C40    O42     1.221   .     D
C40    H41     1.081   .     S
N43    H44     1.016   .     S
N43    C45     1.447   .     S
C45    H46     1.106   .     S
C45    H48     1.107   .     S
C45    H47     1.108   .     S
N49    H50     1.017   .     S
N49    C51     1.450   .     S
C51    H54     1.111   .     S
C51    H53     1.105   .     S
C51    H52     1.109   .     S
N55    H56     1.032   .     S
N55    C57     1.443   .     S
C57    H58     1.110   .     S
C57    H59     1.107   .     S
C57    H60     1.109   .     S
N61    H62     1.030   .     S
N61    C63     1.448   .     S
C63    H66     1.105   .     S
C63    H64     1.107   .     S
C63    H1253   1.108   1_554 S
H65    C657    1.108   .     S
C67    O87     1.305   .     A
C67    O89     1.289   .     A
C67    C78     1.438   .     S
C68    O88     1.300   .     A
C68    C77     1.431   .     S
C68    O90     1.291   .     A
C69    O93     1.301   .     A
C69    O91     1.278   .     A
C69    C71     1.416   .     S
C70    O92     1.282   .     A
C70    O94     1.299   .     A
C70    C72     1.415   .     S
C72    C137    1.355   .     S
C72    C166    1.483   .     S
C73    C103    1.488   .     S
C73    C78     1.416   .     A
C73    C471    1.381   1_545 S
C74    C77     1.410   .     A
C74    C106    1.488   .     S
C74    C274    1.375   .     S
C75    C77     1.396   .     A
C75    H83     1.084   .     S
C75    C271    1.381   .     S
C76    C78     1.392   .     A
C76    H84     1.073   .     S
C76    C470    1.375   1_545 S
C79    N109    1.426   .     S
C79    N86     1.379   .     A
C79    C1269   1.428   1_554 S
C80    N115    1.433   .     S
C80    N85     1.391   .     A
C80    C676    1.444   .     S
C81    N85     1.371   .     A
C81    N121    1.423   .     S
C81    C673    1.428   .     S
C82    N86     1.361   .     A
C82    N127    1.416   .     S
C82    C1268   1.444   1_554 S
N85    Zn95    2.035   .     S
N86    Zn96    2.035   .     S
O87    Zn95    2.014   .     S
O88    Zn96    2.014   .     S
O89    Zn96    2.001   .     S
O90    Zn95    2.001   .     S
O91    Zn95    1.993   .     S
O92    Zn96    1.993   .     S
O93    Zn96    2.002   .     S
O94    Zn95    2.002   .     S
C97    H98     1.083   .     S
C97    C137    1.483   .     S
C97    O165    1.221   .     S
C100   O102    1.221   .     D
C100   H101    1.085   .     S
C103   H104    1.078   .     S
C103   O105    1.222   .     D
C106   O108    1.221   .     D
C106   H107    1.081   .     S
N109   H110    1.016   .     S
N109   C111    1.447   .     S
C111   H112    1.106   .     S
C111   H114    1.107   .     S
C111   H113    1.108   .     S
N115   H116    1.017   .     S
N115   C117    1.450   .     S
C117   H120    1.111   .     S
C117   H119    1.105   .     S
C117   H118    1.109   .     S
N121   H122    1.032   .     S
N121   C123    1.443   .     S
C123   H124    1.110   .     S
C123   H125    1.107   .     S
C123   H126    1.109   .     S
N127   H128    1.030   .     S
N127   C129    1.448   .     S
C129   H132    1.105   .     S
C129   H130    1.107   .     S
C129   H1319   1.108   1_554 S
H131   C723    1.108   .     S
C133   O153    1.305   .     A
C133   O155    1.289   .     A
C133   C144    1.438   .     S
C134   O154    1.300   .     A
C134   C143    1.431   .     S
C134   O156    1.291   .     A
C135   O159    1.301   .     A
C135   O157    1.278   .     A
C135   C137    1.416   .     S
C136   O158    1.282   .     A
C136   O160    1.299   .     A
C136   C138    1.415   .     S
C138   C5      1.355   1_655 S
C138   C34     1.483   1_655 S
C139   C169    1.488   .     S
C139   C144    1.416   .     A
C139   C537    1.381   1_545 S
C140   C143    1.410   .     A
C140   C172    1.488   .     S
C140   C340    1.375   .     S
C141   C143    1.396   .     A
C141   H149    1.084   .     S
C141   C337    1.381   .     S
C142   C144    1.392   .     A
C142   H150    1.073   .     S
C142   C536    1.375   1_545 S
C145   N175    1.426   .     S
C145   N152    1.379   .     A
C145   C1335   1.428   1_554 S
C146   N181    1.433   .     S
C146   N151    1.391   .     A
C146   C742    1.444   .     S
C147   N151    1.371   .     A
C147   N187    1.423   .     S
C147   C739    1.428   .     S
C148   N152    1.361   .     A
C148   N193    1.416   .     S
C148   C1334   1.444   1_554 S
N151   Zn161   2.035   .     S
N152   Zn162   2.035   .     S
O153   Zn161   2.014   .     S
O154   Zn162   2.014   .     S
O155   Zn162   2.001   .     S
O156   Zn161   2.001   .     S
O157   Zn161   1.993   .     S
O158   Zn162   1.993   .     S
O159   Zn162   2.002   .     S
O160   Zn161   2.002   .     S
C163   H164    1.083   .     S
C163   C5      1.483   1_655 S
C163   O33     1.221   1_655 S
C166   O168    1.221   .     D
C166   H167    1.085   .     S
C169   H170    1.078   .     S
C169   O171    1.222   .     D
C172   O174    1.221   .     D
C172   H173    1.081   .     S
N175   H176    1.016   .     S
N175   C177    1.447   .     S
C177   H178    1.106   .     S
C177   H180    1.107   .     S
C177   H179    1.108   .     S
N181   H182    1.017   .     S
N181   C183    1.450   .     S
C183   H186    1.111   .     S
C183   H185    1.105   .     S
C183   H184    1.109   .     S
N187   H188    1.032   .     S
N187   C189    1.443   .     S
C189   H190    1.110   .     S
C189   H191    1.107   .     S
C189   H192    1.109   .     S
N193   H194    1.030   .     S
N193   C195    1.448   .     S
C195   H198    1.105   .     S
C195   H196    1.107   .     S
C195   H1385   1.108   1_554 S
H197   C789    1.108   .     S
C199   O219    1.305   .     A
C199   O221    1.289   .     A
C199   C210    1.438   .     S
C200   O220    1.300   .     A
C200   C209    1.431   .     S
C200   O222    1.291   .     A
C201   O225    1.301   .     A
C201   O223    1.278   .     A
C201   C203    1.416   .     S
C202   O224    1.282   .     A
C202   O226    1.299   .     A
C202   C204    1.415   .     S
C203   C336    1.355   1_455 S
C203   C361    1.483   1_455 S
C204   C269    1.355   .     S
C204   C298    1.483   .     S
C205   C235    1.488   .     S
C205   C210    1.416   .     A
C206   C209    1.410   .     A
C206   C238    1.488   .     S
C206   C406    1.375   .     S
C207   C209    1.396   .     A
C207   H215    1.084   .     S
C207   C403    1.381   .     S
C208   C210    1.392   .     A
C208   H216    1.073   .     S
C211   N241    1.426   .     S
C211   N218    1.379   .     A
C211   C1401   1.428   1_554 S
C212   N247    1.433   .     S
C212   N217    1.391   .     A
C212   C808    1.444   .     S
C213   N217    1.371   .     A
C213   N253    1.423   .     S
C213   C805    1.428   .     S
C214   N218    1.361   .     A
C214   N259    1.416   .     S
C214   C1400   1.444   1_554 S
N217   Zn227   2.035   .     S
N218   Zn228   2.035   .     S
O219   Zn227   2.014   .     S
O220   Zn228   2.014   .     S
O221   Zn228   2.001   .     S
O222   Zn227   2.001   .     S
O223   Zn227   1.993   .     S
O224   Zn228   1.993   .     S
O225   Zn228   2.002   .     S
O226   Zn227   2.002   .     S
C229   H230    1.083   .     S
C229   C269    1.483   .     S
C229   O297    1.221   .     S
O231   C361    1.221   1_455 S
C232   O234    1.221   .     D
C232   H233    1.085   .     S
C232   C336    1.483   1_455 S
C235   H236    1.078   .     S
C235   O237    1.222   .     D
C238   O240    1.221   .     D
C238   H239    1.081   .     S
N241   H242    1.016   .     S
N241   C243    1.447   .     S
C243   H244    1.106   .     S
C243   H246    1.107   .     S
C243   H245    1.108   .     S
N247   H248    1.017   .     S
N247   C249    1.450   .     S
C249   H252    1.111   .     S
C249   H251    1.105   .     S
C249   H250    1.109   .     S
N253   H254    1.032   .     S
N253   C255    1.443   .     S
C255   H256    1.110   .     S
C255   H257    1.107   .     S
C255   H258    1.109   .     S
N259   H260    1.030   .     S
N259   C261    1.448   .     S
C261   H264    1.105   .     S
C261   H262    1.107   .     S
C261   H1451   1.108   1_554 S
H263   C855    1.108   .     S
C265   O285    1.305   .     A
C265   O287    1.289   .     A
C265   C276    1.438   .     S
C266   O286    1.300   .     A
C266   C275    1.431   .     S
C266   O288    1.291   .     A
C267   O291    1.301   .     A
C267   O289    1.278   .     A
C267   C269    1.416   .     S
C268   O290    1.282   .     A
C268   O292    1.299   .     A
C268   C270    1.415   .     S
C270   C335    1.355   .     S
C270   C364    1.483   .     S
C271   C301    1.488   .     S
C271   C276    1.416   .     A
C272   C275    1.410   .     A
C272   C304    1.488   .     S
C272   C472    1.375   .     S
C273   C275    1.396   .     A
C273   H281    1.084   .     S
C273   C469    1.381   .     S
C274   C276    1.392   .     A
C274   H282    1.073   .     S
C277   N307    1.426   .     S
C277   N284    1.379   .     A
C277   C1467   1.428   1_554 S
C278   N313    1.433   .     S
C278   N283    1.391   .     A
C278   C874    1.444   .     S
C279   N283    1.371   .     A
C279   N319    1.423   .     S
C279   C871    1.428   .     S
C280   N284    1.361   .     A
C280   N325    1.416   .     S
C280   C1466   1.444   1_554 S
N283   Zn293   2.035   .     S
N284   Zn294   2.035   .     S
O285   Zn293   2.014   .     S
O286   Zn294   2.014   .     S
O287   Zn294   2.001   .     S
O288   Zn293   2.001   .     S
O289   Zn293   1.993   .     S
O290   Zn294   1.993   .     S
O291   Zn294   2.002   .     S
O292   Zn293   2.002   .     S
C295   H296    1.083   .     S
C295   C335    1.483   .     S
C295   O363    1.221   .     S
C298   O300    1.221   .     D
C298   H299    1.085   .     S
C301   H302    1.078   .     S
C301   O303    1.222   .     D
C304   O306    1.221   .     D
C304   H305    1.081   .     S
N307   H308    1.016   .     S
N307   C309    1.447   .     S
C309   H310    1.106   .     S
C309   H312    1.107   .     S
C309   H311    1.108   .     S
N313   H314    1.017   .     S
N313   C315    1.450   .     S
C315   H318    1.111   .     S
C315   H317    1.105   .     S
C315   H316    1.109   .     S
N319   H320    1.032   .     S
N319   C321    1.443   .     S
C321   H322    1.110   .     S
C321   H323    1.107   .     S
C321   H324    1.109   .     S
N325   H326    1.030   .     S
N325   C327    1.448   .     S
C327   H330    1.105   .     S
C327   H328    1.107   .     S
C327   H1517   1.108   1_554 S
H329   C921    1.108   .     S
C331   O351    1.305   .     A
C331   O353    1.289   .     A
C331   C342    1.438   .     S
C332   O352    1.300   .     A
C332   C341    1.431   .     S
C332   O354    1.291   .     A
C333   O357    1.301   .     A
C333   O355    1.278   .     A
C333   C335    1.416   .     S
C334   O356    1.282   .     A
C334   O358    1.299   .     A
C334   C336    1.415   .     S
C336   C203    1.355   1_655 S
C336   C232    1.483   1_655 S
C337   C367    1.488   .     S
C337   C342    1.416   .     A
C338   C341    1.410   .     A
C338   C370    1.488   .     S
C338   C538    1.375   .     S
C339   C341    1.396   .     A
C339   H347    1.084   .     S
C339   C535    1.381   .     S
C340   C342    1.392   .     A
C340   H348    1.073   .     S
C343   N373    1.426   .     S
C343   N350    1.379   .     A
C343   C1533   1.428   1_554 S
C344   N379    1.433   .     S
C344   N349    1.391   .     A
C344   C940    1.444   .     S
C345   N349    1.371   .     A
C345   N385    1.423   .     S
C345   C937    1.428   .     S
C346   N350    1.361   .     A
C346   N391    1.416   .     S
C346   C1532   1.444   1_554 S
N349   Zn359   2.035   .     S
N350   Zn360   2.035   .     S
O351   Zn359   2.014   .     S
O352   Zn360   2.014   .     S
O353   Zn360   2.001   .     S
O354   Zn359   2.001   .     S
O355   Zn359   1.993   .     S
O356   Zn360   1.993   .     S
O357   Zn360   2.002   .     S
O358   Zn359   2.002   .     S
C361   H362    1.083   .     S
C361   C203    1.483   1_655 S
C361   O231    1.221   1_655 S
C364   O366    1.221   .     D
C364   H365    1.085   .     S
C367   H368    1.078   .     S
C367   O369    1.222   .     D
C370   O372    1.221   .     D
C370   H371    1.081   .     S
N373   H374    1.016   .     S
N373   C375    1.447   .     S
C375   H376    1.106   .     S
C375   H378    1.107   .     S
C375   H377    1.108   .     S
N379   H380    1.017   .     S
N379   C381    1.450   .     S
C381   H384    1.111   .     S
C381   H383    1.105   .     S
C381   H382    1.109   .     S
N385   H386    1.032   .     S
N385   C387    1.443   .     S
C387   H388    1.110   .     S
C387   H389    1.107   .     S
C387   H390    1.109   .     S
N391   H392    1.030   .     S
N391   C393    1.448   .     S
C393   H396    1.105   .     S
C393   H394    1.107   .     S
C393   H1583   1.108   1_554 S
H395   C987    1.108   .     S
C397   O417    1.305   .     A
C397   O419    1.289   .     A
C397   C408    1.438   .     S
C398   O418    1.300   .     A
C398   C407    1.431   .     S
C398   O420    1.291   .     A
C399   O423    1.301   .     A
C399   O421    1.278   .     A
C399   C401    1.416   .     S
C400   O422    1.282   .     A
C400   O424    1.299   .     A
C400   C402    1.415   .     S
C401   C534    1.355   1_455 S
C401   C559    1.483   1_455 S
C402   C467    1.355   .     S
C402   C496    1.483   .     S
C403   C433    1.488   .     S
C403   C408    1.416   .     A
C404   C407    1.410   .     A
C404   C436    1.488   .     S
C404   C10     1.375   1_565 S
C405   C407    1.396   .     A
C405   H413    1.084   .     S
C405   C7      1.381   1_565 S
C406   C408    1.392   .     A
C406   H414    1.073   .     S
C409   N439    1.426   .     S
C409   N416    1.379   .     A
C409   C1599   1.428   1_554 S
C410   N445    1.433   .     S
C410   N415    1.391   .     A
C410   C1006   1.444   .     S
C411   N415    1.371   .     A
C411   N451    1.423   .     S
C411   C1003   1.428   .     S
C412   N416    1.361   .     A
C412   N457    1.416   .     S
C412   C1598   1.444   1_554 S
N415   Zn425   2.035   .     S
N416   Zn426   2.035   .     S
O417   Zn425   2.014   .     S
O418   Zn426   2.014   .     S
O419   Zn426   2.001   .     S
O420   Zn425   2.001   .     S
O421   Zn425   1.993   .     S
O422   Zn426   1.993   .     S
O423   Zn426   2.002   .     S
O424   Zn425   2.002   .     S
C427   H428    1.083   .     S
C427   C467    1.483   .     S
C427   O495    1.221   .     S
O429   C559    1.221   1_455 S
C430   O432    1.221   .     D
C430   H431    1.085   .     S
C430   C534    1.483   1_455 S
C433   H434    1.078   .     S
C433   O435    1.222   .     D
C436   O438    1.221   .     D
C436   H437    1.081   .     S
N439   H440    1.016   .     S
N439   C441    1.447   .     S
C441   H442    1.106   .     S
C441   H444    1.107   .     S
C441   H443    1.108   .     S
N445   H446    1.017   .     S
N445   C447    1.450   .     S
C447   H450    1.111   .     S
C447   H449    1.105   .     S
C447   H448    1.109   .     S
N451   H452    1.032   .     S
N451   C453    1.443   .     S
C453   H454    1.110   .     S
C453   H455    1.107   .     S
C453   H456    1.109   .     S
N457   H458    1.030   .     S
N457   C459    1.448   .     S
C459   H462    1.105   .     S
C459   H460    1.107   .     S
C459   H1649   1.108   1_554 S
H461   C1053   1.108   .     S
C463   O483    1.305   .     A
C463   O485    1.289   .     A
C463   C474    1.438   .     S
C464   O484    1.300   .     A
C464   C473    1.431   .     S
C464   O486    1.291   .     A
C465   O489    1.301   .     A
C465   O487    1.278   .     A
C465   C467    1.416   .     S
C466   O488    1.282   .     A
C466   O490    1.299   .     A
C466   C468    1.415   .     S
C468   C533    1.355   .     S
C468   C562    1.483   .     S
C469   C499    1.488   .     S
C469   C474    1.416   .     A
C470   C473    1.410   .     A
C470   C502    1.488   .     S
C470   C76     1.375   1_565 S
C471   C473    1.396   .     A
C471   H479    1.084   .     S
C471   C73     1.381   1_565 S
C472   C474    1.392   .     A
C472   H480    1.073   .     S
C475   N505    1.426   .     S
C475   N482    1.379   .     A
C475   C1665   1.428   1_554 S
C476   N511    1.433   .     S
C476   N481    1.391   .     A
C476   C1072   1.444   .     S
C477   N481    1.371   .     A
C477   N517    1.423   .     S
C477   C1069   1.428   .     S
C478   N482    1.361   .     A
C478   N523    1.416   .     S
C478   C1664   1.444   1_554 S
N481   Zn491   2.035   .     S
N482   Zn492   2.035   .     S
O483   Zn491   2.014   .     S
O484   Zn492   2.014   .     S
O485   Zn492   2.001   .     S
O486   Zn491   2.001   .     S
O487   Zn491   1.993   .     S
O488   Zn492   1.993   .     S
O489   Zn492   2.002   .     S
O490   Zn491   2.002   .     S
C493   H494    1.083   .     S
C493   C533    1.483   .     S
C493   O561    1.221   .     S
C496   O498    1.221   .     D
C496   H497    1.085   .     S
C499   H500    1.078   .     S
C499   O501    1.222   .     D
C502   O504    1.221   .     D
C502   H503    1.081   .     S
N505   H506    1.016   .     S
N505   C507    1.447   .     S
C507   H508    1.106   .     S
C507   H510    1.107   .     S
C507   H509    1.108   .     S
N511   H512    1.017   .     S
N511   C513    1.450   .     S
C513   H516    1.111   .     S
C513   H515    1.105   .     S
C513   H514    1.109   .     S
N517   H518    1.032   .     S
N517   C519    1.443   .     S
C519   H520    1.110   .     S
C519   H521    1.107   .     S
C519   H522    1.109   .     S
N523   H524    1.030   .     S
N523   C525    1.448   .     S
C525   H528    1.105   .     S
C525   H526    1.107   .     S
C525   H1715   1.108   1_554 S
H527   C1119   1.108   .     S
C529   O549    1.305   .     A
C529   O551    1.289   .     A
C529   C540    1.438   .     S
C530   O550    1.300   .     A
C530   C539    1.431   .     S
C530   O552    1.291   .     A
C531   O555    1.301   .     A
C531   O553    1.278   .     A
C531   C533    1.416   .     S
C532   O554    1.282   .     A
C532   O556    1.299   .     A
C532   C534    1.415   .     S
C534   C401    1.355   1_655 S
C534   C430    1.483   1_655 S
C535   C565    1.488   .     S
C535   C540    1.416   .     A
C536   C539    1.410   .     A
C536   C568    1.488   .     S
C536   C142    1.375   1_565 S
C537   C539    1.396   .     A
C537   H545    1.084   .     S
C537   C139    1.381   1_565 S
C538   C540    1.392   .     A
C538   H546    1.073   .     S
C541   N571    1.426   .     S
C541   N548    1.379   .     A
C541   C1731   1.428   1_554 S
C542   N577    1.433   .     S
C542   N547    1.391   .     A
C542   C1138   1.444   .     S
C543   N547    1.371   .     A
C543   N583    1.423   .     S
C543   C1135   1.428   .     S
C544   N548    1.361   .     A
C544   N589    1.416   .     S
C544   C1730   1.444   1_554 S
N547   Zn557   2.035   .     S
N548   Zn558   2.035   .     S
O549   Zn557   2.014   .     S
O550   Zn558   2.014   .     S
O551   Zn558   2.001   .     S
O552   Zn557   2.001   .     S
O553   Zn557   1.993   .     S
O554   Zn558   1.993   .     S
O555   Zn558   2.002   .     S
O556   Zn557   2.002   .     S
C559   H560    1.083   .     S
C559   C401    1.483   1_655 S
C559   O429    1.221   1_655 S
C562   O564    1.221   .     D
C562   H563    1.085   .     S
C565   H566    1.078   .     S
C565   O567    1.222   .     D
C568   O570    1.221   .     D
C568   H569    1.081   .     S
N571   H572    1.016   .     S
N571   C573    1.447   .     S
C573   H574    1.106   .     S
C573   H576    1.107   .     S
C573   H575    1.108   .     S
N577   H578    1.017   .     S
N577   C579    1.450   .     S
C579   H582    1.111   .     S
C579   H581    1.105   .     S
C579   H580    1.109   .     S
N583   H584    1.032   .     S
N583   C585    1.443   .     S
C585   H586    1.110   .     S
C585   H587    1.107   .     S
C585   H588    1.109   .     S
N589   H590    1.030   .     S
N589   C591    1.448   .     S
C591   H594    1.105   .     S
C591   H592    1.107   .     S
C591   H1781   1.108   1_554 S
H593   C1185   1.108   .     S
C595   O615    1.305   .     A
C595   O617    1.289   .     A
C595   C606    1.438   .     S
C596   O616    1.300   .     A
C596   C605    1.431   .     S
C596   O618    1.291   .     A
C597   O621    1.301   .     A
C597   O619    1.278   .     A
C597   C599    1.416   .     S
C598   O620    1.282   .     A
C598   O622    1.299   .     A
C598   C600    1.415   .     S
C599   C732    1.355   1_455 S
C599   C757    1.483   1_455 S
C600   C665    1.355   .     S
C600   C694    1.483   .     S
C601   C631    1.488   .     S
C601   C606    1.416   .     A
C601   C999    1.381   1_545 S
C602   C605    1.410   .     A
C602   C634    1.488   .     S
C602   C802    1.375   .     S
C603   C605    1.396   .     A
C603   H611    1.084   .     S
C603   C799    1.381   .     S
C604   C606    1.392   .     A
C604   H612    1.073   .     S
C604   C998    1.375   1_545 S
C607   N637    1.426   .     S
C607   N614    1.379   .     A
C608   N643    1.433   .     S
C608   N613    1.391   .     A
C608   C1204   1.444   .     S
C609   N613    1.371   .     A
C609   N649    1.423   .     S
C609   C1201   1.428   .     S
C610   N614    1.361   .     A
C610   N655    1.416   .     S
N613   Zn623   2.035   .     S
N614   Zn624   2.035   .     S
O615   Zn623   2.014   .     S
O616   Zn624   2.014   .     S
O617   Zn624   2.001   .     S
O618   Zn623   2.001   .     S
O619   Zn623   1.993   .     S
O620   Zn624   1.993   .     S
O621   Zn624   2.002   .     S
O622   Zn623   2.002   .     S
C625   H626    1.083   .     S
C625   C665    1.483   .     S
C625   O693    1.221   .     S
O627   C757    1.221   1_455 S
C628   O630    1.221   .     D
C628   H629    1.085   .     S
C628   C732    1.483   1_455 S
C631   H632    1.078   .     S
C631   O633    1.222   .     D
C634   O636    1.221   .     D
C634   H635    1.081   .     S
N637   H638    1.016   .     S
N637   C639    1.447   .     S
C639   H640    1.106   .     S
C639   H642    1.107   .     S
C639   H641    1.108   .     S
N643   H644    1.017   .     S
N643   C645    1.450   .     S
C645   H648    1.111   .     S
C645   H647    1.105   .     S
C645   H646    1.109   .     S
N649   H650    1.032   .     S
N649   C651    1.443   .     S
C651   H652    1.110   .     S
C651   H653    1.107   .     S
C651   H654    1.109   .     S
N655   H656    1.030   .     S
N655   C657    1.448   .     S
C657   H660    1.105   .     S
C657   H658    1.107   .     S
H659   C1251   1.108   .     S
C661   O681    1.305   .     A
C661   O683    1.289   .     A
C661   C672    1.438   .     S
C662   O682    1.300   .     A
C662   C671    1.431   .     S
C662   O684    1.291   .     A
C663   O687    1.301   .     A
C663   O685    1.278   .     A
C663   C665    1.416   .     S
C664   O686    1.282   .     A
C664   O688    1.299   .     A
C664   C666    1.415   .     S
C666   C731    1.355   .     S
C666   C760    1.483   .     S
C667   C697    1.488   .     S
C667   C672    1.416   .     A
C667   C1065   1.381   1_545 S
C668   C671    1.410   .     A
C668   C700    1.488   .     S
C668   C868    1.375   .     S
C669   C671    1.396   .     A
C669   H677    1.084   .     S
C669   C865    1.381   .     S
C670   C672    1.392   .     A
C670   H678    1.073   .     S
C670   C1064   1.375   1_545 S
C673   N703    1.426   .     S
C673   N680    1.379   .     A
C674   N709    1.433   .     S
C674   N679    1.391   .     A
C674   C1270   1.444   .     S
C675   N679    1.371   .     A
C675   N715    1.423   .     S
C675   C1267   1.428   .     S
C676   N680    1.361   .     A
C676   N721    1.416   .     S
N679   Zn689   2.035   .     S
N680   Zn690   2.035   .     S
O681   Zn689   2.014   .     S
O682   Zn690   2.014   .     S
O683   Zn690   2.001   .     S
O684   Zn689   2.001   .     S
O685   Zn689   1.993   .     S
O686   Zn690   1.993   .     S
O687   Zn690   2.002   .     S
O688   Zn689   2.002   .     S
C691   H692    1.083   .     S
C691   C731    1.483   .     S
C691   O759    1.221   .     S
C694   O696    1.221   .     D
C694   H695    1.085   .     S
C697   H698    1.078   .     S
C697   O699    1.222   .     D
C700   O702    1.221   .     D
C700   H701    1.081   .     S
N703   H704    1.016   .     S
N703   C705    1.447   .     S
C705   H706    1.106   .     S
C705   H708    1.107   .     S
C705   H707    1.108   .     S
N709   H710    1.017   .     S
N709   C711    1.450   .     S
C711   H714    1.111   .     S
C711   H713    1.105   .     S
C711   H712    1.109   .     S
N715   H716    1.032   .     S
N715   C717    1.443   .     S
C717   H718    1.110   .     S
C717   H719    1.107   .     S
C717   H720    1.109   .     S
N721   H722    1.030   .     S
N721   C723    1.448   .     S
C723   H726    1.105   .     S
C723   H724    1.107   .     S
H725   C1317   1.108   .     S
C727   O747    1.305   .     A
C727   O749    1.289   .     A
C727   C738    1.438   .     S
C728   O748    1.300   .     A
C728   C737    1.431   .     S
C728   O750    1.291   .     A
C729   O753    1.301   .     A
C729   O751    1.278   .     A
C729   C731    1.416   .     S
C730   O752    1.282   .     A
C730   O754    1.299   .     A
C730   C732    1.415   .     S
C732   C599    1.355   1_655 S
C732   C628    1.483   1_655 S
C733   C763    1.488   .     S
C733   C738    1.416   .     A
C733   C1131   1.381   1_545 S
C734   C737    1.410   .     A
C734   C766    1.488   .     S
C734   C934    1.375   .     S
C735   C737    1.396   .     A
C735   H743    1.084   .     S
C735   C931    1.381   .     S
C736   C738    1.392   .     A
C736   H744    1.073   .     S
C736   C1130   1.375   1_545 S
C739   N769    1.426   .     S
C739   N746    1.379   .     A
C740   N775    1.433   .     S
C740   N745    1.391   .     A
C740   C1336   1.444   .     S
C741   N745    1.371   .     A
C741   N781    1.423   .     S
C741   C1333   1.428   .     S
C742   N746    1.361   .     A
C742   N787    1.416   .     S
N745   Zn755   2.035   .     S
N746   Zn756   2.035   .     S
O747   Zn755   2.014   .     S
O748   Zn756   2.014   .     S
O749   Zn756   2.001   .     S
O750   Zn755   2.001   .     S
O751   Zn755   1.993   .     S
O752   Zn756   1.993   .     S
O753   Zn756   2.002   .     S
O754   Zn755   2.002   .     S
C757   H758    1.083   .     S
C757   C599    1.483   1_655 S
C757   O627    1.221   1_655 S
C760   O762    1.221   .     D
C760   H761    1.085   .     S
C763   H764    1.078   .     S
C763   O765    1.222   .     D
C766   O768    1.221   .     D
C766   H767    1.081   .     S
N769   H770    1.016   .     S
N769   C771    1.447   .     S
C771   H772    1.106   .     S
C771   H774    1.107   .     S
C771   H773    1.108   .     S
N775   H776    1.017   .     S
N775   C777    1.450   .     S
C777   H780    1.111   .     S
C777   H779    1.105   .     S
C777   H778    1.109   .     S
N781   H782    1.032   .     S
N781   C783    1.443   .     S
C783   H784    1.110   .     S
C783   H785    1.107   .     S
C783   H786    1.109   .     S
N787   H788    1.030   .     S
N787   C789    1.448   .     S
C789   H792    1.105   .     S
C789   H790    1.107   .     S
H791   C1383   1.108   .     S
C793   O813    1.305   .     A
C793   O815    1.289   .     A
C793   C804    1.438   .     S
C794   O814    1.300   .     A
C794   C803    1.431   .     S
C794   O816    1.291   .     A
C795   O819    1.301   .     A
C795   O817    1.278   .     A
C795   C797    1.416   .     S
C796   O818    1.282   .     A
C796   O820    1.299   .     A
C796   C798    1.415   .     S
C797   C930    1.355   1_455 S
C797   C955    1.483   1_455 S
C798   C863    1.355   .     S
C798   C892    1.483   .     S
C799   C829    1.488   .     S
C799   C804    1.416   .     A
C800   C803    1.410   .     A
C800   C832    1.488   .     S
C800   C1000   1.375   .     S
C801   C803    1.396   .     A
C801   H809    1.084   .     S
C801   C997    1.381   .     S
C802   C804    1.392   .     A
C802   H810    1.073   .     S
C805   N835    1.426   .     S
C805   N812    1.379   .     A
C806   N841    1.433   .     S
C806   N811    1.391   .     A
C806   C1402   1.444   .     S
C807   N811    1.371   .     A
C807   N847    1.423   .     S
C807   C1399   1.428   .     S
C808   N812    1.361   .     A
C808   N853    1.416   .     S
N811   Zn821   2.035   .     S
N812   Zn822   2.035   .     S
O813   Zn821   2.014   .     S
O814   Zn822   2.014   .     S
O815   Zn822   2.001   .     S
O816   Zn821   2.001   .     S
O817   Zn821   1.993   .     S
O818   Zn822   1.993   .     S
O819   Zn822   2.002   .     S
O820   Zn821   2.002   .     S
C823   H824    1.083   .     S
C823   C863    1.483   .     S
C823   O891    1.221   .     S
O825   C955    1.221   1_455 S
C826   O828    1.221   .     D
C826   H827    1.085   .     S
C826   C930    1.483   1_455 S
C829   H830    1.078   .     S
C829   O831    1.222   .     D
C832   O834    1.221   .     D
C832   H833    1.081   .     S
N835   H836    1.016   .     S
N835   C837    1.447   .     S
C837   H838    1.106   .     S
C837   H840    1.107   .     S
C837   H839    1.108   .     S
N841   H842    1.017   .     S
N841   C843    1.450   .     S
C843   H846    1.111   .     S
C843   H845    1.105   .     S
C843   H844    1.109   .     S
N847   H848    1.032   .     S
N847   C849    1.443   .     S
C849   H850    1.110   .     S
C849   H851    1.107   .     S
C849   H852    1.109   .     S
N853   H854    1.030   .     S
N853   C855    1.448   .     S
C855   H858    1.105   .     S
C855   H856    1.107   .     S
H857   C1449   1.108   .     S
C859   O879    1.305   .     A
C859   O881    1.289   .     A
C859   C870    1.438   .     S
C860   O880    1.300   .     A
C860   C869    1.431   .     S
C860   O882    1.291   .     A
C861   O885    1.301   .     A
C861   O883    1.278   .     A
C861   C863    1.416   .     S
C862   O884    1.282   .     A
C862   O886    1.299   .     A
C862   C864    1.415   .     S
C864   C929    1.355   .     S
C864   C958    1.483   .     S
C865   C895    1.488   .     S
C865   C870    1.416   .     A
C866   C869    1.410   .     A
C866   C898    1.488   .     S
C866   C1066   1.375   .     S
C867   C869    1.396   .     A
C867   H875    1.084   .     S
C867   C1063   1.381   .     S
C868   C870    1.392   .     A
C868   H876    1.073   .     S
C871   N901    1.426   .     S
C871   N878    1.379   .     A
C872   N907    1.433   .     S
C872   N877    1.391   .     A
C872   C1468   1.444   .     S
C873   N877    1.371   .     A
C873   N913    1.423   .     S
C873   C1465   1.428   .     S
C874   N878    1.361   .     A
C874   N919    1.416   .     S
N877   Zn887   2.035   .     S
N878   Zn888   2.035   .     S
O879   Zn887   2.014   .     S
O880   Zn888   2.014   .     S
O881   Zn888   2.001   .     S
O882   Zn887   2.001   .     S
O883   Zn887   1.993   .     S
O884   Zn888   1.993   .     S
O885   Zn888   2.002   .     S
O886   Zn887   2.002   .     S
C889   H890    1.083   .     S
C889   C929    1.483   .     S
C889   O957    1.221   .     S
C892   O894    1.221   .     D
C892   H893    1.085   .     S
C895   H896    1.078   .     S
C895   O897    1.222   .     D
C898   O900    1.221   .     D
C898   H899    1.081   .     S
N901   H902    1.016   .     S
N901   C903    1.447   .     S
C903   H904    1.106   .     S
C903   H906    1.107   .     S
C903   H905    1.108   .     S
N907   H908    1.017   .     S
N907   C909    1.450   .     S
C909   H912    1.111   .     S
C909   H911    1.105   .     S
C909   H910    1.109   .     S
N913   H914    1.032   .     S
N913   C915    1.443   .     S
C915   H916    1.110   .     S
C915   H917    1.107   .     S
C915   H918    1.109   .     S
N919   H920    1.030   .     S
N919   C921    1.448   .     S
C921   H924    1.105   .     S
C921   H922    1.107   .     S
H923   C1515   1.108   .     S
C925   O945    1.305   .     A
C925   O947    1.289   .     A
C925   C936    1.438   .     S
C926   O946    1.300   .     A
C926   C935    1.431   .     S
C926   O948    1.291   .     A
C927   O951    1.301   .     A
C927   O949    1.278   .     A
C927   C929    1.416   .     S
C928   O950    1.282   .     A
C928   O952    1.299   .     A
C928   C930    1.415   .     S
C930   C797    1.355   1_655 S
C930   C826    1.483   1_655 S
C931   C961    1.488   .     S
C931   C936    1.416   .     A
C932   C935    1.410   .     A
C932   C964    1.488   .     S
C932   C1132   1.375   .     S
C933   C935    1.396   .     A
C933   H941    1.084   .     S
C933   C1129   1.381   .     S
C934   C936    1.392   .     A
C934   H942    1.073   .     S
C937   N967    1.426   .     S
C937   N944    1.379   .     A
C938   N973    1.433   .     S
C938   N943    1.391   .     A
C938   C1534   1.444   .     S
C939   N943    1.371   .     A
C939   N979    1.423   .     S
C939   C1531   1.428   .     S
C940   N944    1.361   .     A
C940   N985    1.416   .     S
N943   Zn953   2.035   .     S
N944   Zn954   2.035   .     S
O945   Zn953   2.014   .     S
O946   Zn954   2.014   .     S
O947   Zn954   2.001   .     S
O948   Zn953   2.001   .     S
O949   Zn953   1.993   .     S
O950   Zn954   1.993   .     S
O951   Zn954   2.002   .     S
O952   Zn953   2.002   .     S
C955   H956    1.083   .     S
C955   C797    1.483   1_655 S
C955   O825    1.221   1_655 S
C958   O960    1.221   .     D
C958   H959    1.085   .     S
C961   H962    1.078   .     S
C961   O963    1.222   .     D
C964   O966    1.221   .     D
C964   H965    1.081   .     S
N967   H968    1.016   .     S
N967   C969    1.447   .     S
C969   H970    1.106   .     S
C969   H972    1.107   .     S
C969   H971    1.108   .     S
N973   H974    1.017   .     S
N973   C975    1.450   .     S
C975   H978    1.111   .     S
C975   H977    1.105   .     S
C975   H976    1.109   .     S
N979   H980    1.032   .     S
N979   C981    1.443   .     S
C981   H982    1.110   .     S
C981   H983    1.107   .     S
C981   H984    1.109   .     S
N985   H986    1.030   .     S
N985   C987    1.448   .     S
C987   H990    1.105   .     S
C987   H988    1.107   .     S
H989   C1581   1.108   .     S
C991   O1011   1.305   .     A
C991   O1013   1.289   .     A
C991   C1002   1.438   .     S
C992   O1012   1.300   .     A
C992   C1001   1.431   .     S
C992   O1014   1.291   .     A
C993   O1017   1.301   .     A
C993   O1015   1.278   .     A
C993   C995    1.416   .     S
C994   O1016   1.282   .     A
C994   O1018   1.299   .     A
C994   C996    1.415   .     S
C995   C1128   1.355   1_455 S
C995   C1153   1.483   1_455 S
C996   C1061   1.355   .     S
C996   C1090   1.483   .     S
C997   C1027   1.488   .     S
C997   C1002   1.416   .     A
C998   C1001   1.410   .     A
C998   C1030   1.488   .     S
C998   C604    1.375   1_565 S
C999   C1001   1.396   .     A
C999   H1007   1.084   .     S
C999   C601    1.381   1_565 S
C1000  C1002   1.392   .     A
C1000  H1008   1.073   .     S
C1003  N1033   1.426   .     S
C1003  N1010   1.379   .     A
C1004  N1039   1.433   .     S
C1004  N1009   1.391   .     A
C1004  C1600   1.444   .     S
C1005  N1009   1.371   .     A
C1005  N1045   1.423   .     S
C1005  C1597   1.428   .     S
C1006  N1010   1.361   .     A
C1006  N1051   1.416   .     S
N1009  Zn1019  2.035   .     S
N1010  Zn1020  2.035   .     S
O1011  Zn1019  2.014   .     S
O1012  Zn1020  2.014   .     S
O1013  Zn1020  2.001   .     S
O1014  Zn1019  2.001   .     S
O1015  Zn1019  1.993   .     S
O1016  Zn1020  1.993   .     S
O1017  Zn1020  2.002   .     S
O1018  Zn1019  2.002   .     S
C1021  H1022   1.083   .     S
C1021  C1061   1.483   .     S
C1021  O1089   1.221   .     S
O1023  C1153   1.221   1_455 S
C1024  O1026   1.221   .     D
C1024  H1025   1.085   .     S
C1024  C1128   1.483   1_455 S
C1027  H1028   1.078   .     S
C1027  O1029   1.222   .     D
C1030  O1032   1.221   .     D
C1030  H1031   1.081   .     S
N1033  H1034   1.016   .     S
N1033  C1035   1.447   .     S
C1035  H1036   1.106   .     S
C1035  H1038   1.107   .     S
C1035  H1037   1.108   .     S
N1039  H1040   1.017   .     S
N1039  C1041   1.450   .     S
C1041  H1044   1.111   .     S
C1041  H1043   1.105   .     S
C1041  H1042   1.109   .     S
N1045  H1046   1.032   .     S
N1045  C1047   1.443   .     S
C1047  H1048   1.110   .     S
C1047  H1049   1.107   .     S
C1047  H1050   1.109   .     S
N1051  H1052   1.030   .     S
N1051  C1053   1.448   .     S
C1053  H1056   1.105   .     S
C1053  H1054   1.107   .     S
H1055  C1647   1.108   .     S
C1057  O1077   1.305   .     A
C1057  O1079   1.289   .     A
C1057  C1068   1.438   .     S
C1058  O1078   1.300   .     A
C1058  C1067   1.431   .     S
C1058  O1080   1.291   .     A
C1059  O1083   1.301   .     A
C1059  O1081   1.278   .     A
C1059  C1061   1.416   .     S
C1060  O1082   1.282   .     A
C1060  O1084   1.299   .     A
C1060  C1062   1.415   .     S
C1062  C1127   1.355   .     S
C1062  C1156   1.483   .     S
C1063  C1093   1.488   .     S
C1063  C1068   1.416   .     A
C1064  C1067   1.410   .     A
C1064  C1096   1.488   .     S
C1064  C670    1.375   1_565 S
C1065  C1067   1.396   .     A
C1065  H1073   1.084   .     S
C1065  C667    1.381   1_565 S
C1066  C1068   1.392   .     A
C1066  H1074   1.073   .     S
C1069  N1099   1.426   .     S
C1069  N1076   1.379   .     A
C1070  N1105   1.433   .     S
C1070  N1075   1.391   .     A
C1070  C1666   1.444   .     S
C1071  N1075   1.371   .     A
C1071  N1111   1.423   .     S
C1071  C1663   1.428   .     S
C1072  N1076   1.361   .     A
C1072  N1117   1.416   .     S
N1075  Zn1085  2.035   .     S
N1076  Zn1086  2.035   .     S
O1077  Zn1085  2.014   .     S
O1078  Zn1086  2.014   .     S
O1079  Zn1086  2.001   .     S
O1080  Zn1085  2.001   .     S
O1081  Zn1085  1.993   .     S
O1082  Zn1086  1.993   .     S
O1083  Zn1086  2.002   .     S
O1084  Zn1085  2.002   .     S
C1087  H1088   1.083   .     S
C1087  C1127   1.483   .     S
C1087  O1155   1.221   .     S
C1090  O1092   1.221   .     D
C1090  H1091   1.085   .     S
C1093  H1094   1.078   .     S
C1093  O1095   1.222   .     D
C1096  O1098   1.221   .     D
C1096  H1097   1.081   .     S
N1099  H1100   1.016   .     S
N1099  C1101   1.447   .     S
C1101  H1102   1.106   .     S
C1101  H1104   1.107   .     S
C1101  H1103   1.108   .     S
N1105  H1106   1.017   .     S
N1105  C1107   1.450   .     S
C1107  H1110   1.111   .     S
C1107  H1109   1.105   .     S
C1107  H1108   1.109   .     S
N1111  H1112   1.032   .     S
N1111  C1113   1.443   .     S
C1113  H1114   1.110   .     S
C1113  H1115   1.107   .     S
C1113  H1116   1.109   .     S
N1117  H1118   1.030   .     S
N1117  C1119   1.448   .     S
C1119  H1122   1.105   .     S
C1119  H1120   1.107   .     S
H1121  C1713   1.108   .     S
C1123  O1143   1.305   .     A
C1123  O1145   1.289   .     A
C1123  C1134   1.438   .     S
C1124  O1144   1.300   .     A
C1124  C1133   1.431   .     S
C1124  O1146   1.291   .     A
C1125  O1149   1.301   .     A
C1125  O1147   1.278   .     A
C1125  C1127   1.416   .     S
C1126  O1148   1.282   .     A
C1126  O1150   1.299   .     A
C1126  C1128   1.415   .     S
C1128  C995    1.355   1_655 S
C1128  C1024   1.483   1_655 S
C1129  C1159   1.488   .     S
C1129  C1134   1.416   .     A
C1130  C1133   1.410   .     A
C1130  C1162   1.488   .     S
C1130  C736    1.375   1_565 S
C1131  C1133   1.396   .     A
C1131  H1139   1.084   .     S
C1131  C733    1.381   1_565 S
C1132  C1134   1.392   .     A
C1132  H1140   1.073   .     S
C1135  N1165   1.426   .     S
C1135  N1142   1.379   .     A
C1136  N1171   1.433   .     S
C1136  N1141   1.391   .     A
C1136  C1732   1.444   .     S
C1137  N1141   1.371   .     A
C1137  N1177   1.423   .     S
C1137  C1729   1.428   .     S
C1138  N1142   1.361   .     A
C1138  N1183   1.416   .     S
N1141  Zn1151  2.035   .     S
N1142  Zn1152  2.035   .     S
O1143  Zn1151  2.014   .     S
O1144  Zn1152  2.014   .     S
O1145  Zn1152  2.001   .     S
O1146  Zn1151  2.001   .     S
O1147  Zn1151  1.993   .     S
O1148  Zn1152  1.993   .     S
O1149  Zn1152  2.002   .     S
O1150  Zn1151  2.002   .     S
C1153  H1154   1.083   .     S
C1153  C995    1.483   1_655 S
C1153  O1023   1.221   1_655 S
C1156  O1158   1.221   .     D
C1156  H1157   1.085   .     S
C1159  H1160   1.078   .     S
C1159  O1161   1.222   .     D
C1162  O1164   1.221   .     D
C1162  H1163   1.081   .     S
N1165  H1166   1.016   .     S
N1165  C1167   1.447   .     S
C1167  H1168   1.106   .     S
C1167  H1170   1.107   .     S
C1167  H1169   1.108   .     S
N1171  H1172   1.017   .     S
N1171  C1173   1.450   .     S
C1173  H1176   1.111   .     S
C1173  H1175   1.105   .     S
C1173  H1174   1.109   .     S
N1177  H1178   1.032   .     S
N1177  C1179   1.443   .     S
C1179  H1180   1.110   .     S
C1179  H1181   1.107   .     S
C1179  H1182   1.109   .     S
N1183  H1184   1.030   .     S
N1183  C1185   1.448   .     S
C1185  H1188   1.105   .     S
C1185  H1186   1.107   .     S
H1187  C1779   1.108   .     S
C1189  O1209   1.305   .     A
C1189  O1211   1.289   .     A
C1189  C1200   1.438   .     S
C1190  O1210   1.300   .     A
C1190  C1199   1.431   .     S
C1190  O1212   1.291   .     A
C1191  O1215   1.301   .     A
C1191  O1213   1.278   .     A
C1191  C1193   1.416   .     S
C1192  O1214   1.282   .     A
C1192  O1216   1.299   .     A
C1192  C1194   1.415   .     S
C1193  C1326   1.355   1_455 S
C1193  C1351   1.483   1_455 S
C1194  C1259   1.355   .     S
C1194  C1288   1.483   .     S
C1195  C1225   1.488   .     S
C1195  C1200   1.416   .     A
C1195  C1593   1.381   1_545 S
C1196  C1199   1.410   .     A
C1196  C1228   1.488   .     S
C1196  C1396   1.375   .     S
C1197  C1199   1.396   .     A
C1197  H1205   1.084   .     S
C1197  C1393   1.381   .     S
C1198  C1200   1.392   .     A
C1198  H1206   1.073   .     S
C1198  C1592   1.375   1_545 S
C1201  N1231   1.426   .     S
C1201  N1208   1.379   .     A
C1202  N1237   1.433   .     S
C1202  N1207   1.391   .     A
C1202  C16     1.444   1_556 S
C1203  N1207   1.371   .     A
C1203  N1243   1.423   .     S
C1203  C13     1.428   1_556 S
C1204  N1208   1.361   .     A
C1204  N1249   1.416   .     S
N1207  Zn1217  2.035   .     S
N1208  Zn1218  2.035   .     S
O1209  Zn1217  2.014   .     S
O1210  Zn1218  2.014   .     S
O1211  Zn1218  2.001   .     S
O1212  Zn1217  2.001   .     S
O1213  Zn1217  1.993   .     S
O1214  Zn1218  1.993   .     S
O1215  Zn1218  2.002   .     S
O1216  Zn1217  2.002   .     S
C1219  H1220   1.083   .     S
C1219  C1259   1.483   .     S
C1219  O1287   1.221   .     S
O1221  C1351   1.221   1_455 S
C1222  O1224   1.221   .     D
C1222  H1223   1.085   .     S
C1222  C1326   1.483   1_455 S
C1225  H1226   1.078   .     S
C1225  O1227   1.222   .     D
C1228  O1230   1.221   .     D
C1228  H1229   1.081   .     S
N1231  H1232   1.016   .     S
N1231  C1233   1.447   .     S
C1233  H1234   1.106   .     S
C1233  H1236   1.107   .     S
C1233  H1235   1.108   .     S
N1237  H1238   1.017   .     S
N1237  C1239   1.450   .     S
C1239  H1242   1.111   .     S
C1239  H1241   1.105   .     S
C1239  H1240   1.109   .     S
N1243  H1244   1.032   .     S
N1243  C1245   1.443   .     S
C1245  H1246   1.110   .     S
C1245  H1247   1.107   .     S
C1245  H1248   1.109   .     S
N1249  H1250   1.030   .     S
N1249  C1251   1.448   .     S
C1251  H1254   1.105   .     S
C1251  H1252   1.107   .     S
H1253  C63     1.108   1_556 S
C1255  O1275   1.305   .     A
C1255  O1277   1.289   .     A
C1255  C1266   1.438   .     S
C1256  O1276   1.300   .     A
C1256  C1265   1.431   .     S
C1256  O1278   1.291   .     A
C1257  O1281   1.301   .     A
C1257  O1279   1.278   .     A
C1257  C1259   1.416   .     S
C1258  O1280   1.282   .     A
C1258  O1282   1.299   .     A
C1258  C1260   1.415   .     S
C1260  C1325   1.355   .     S
C1260  C1354   1.483   .     S
C1261  C1291   1.488   .     S
C1261  C1266   1.416   .     A
C1261  C1659   1.381   1_545 S
C1262  C1265   1.410   .     A
C1262  C1294   1.488   .     S
C1262  C1462   1.375   .     S
C1263  C1265   1.396   .     A
C1263  H1271   1.084   .     S
C1263  C1459   1.381   .     S
C1264  C1266   1.392   .     A
C1264  H1272   1.073   .     S
C1264  C1658   1.375   1_545 S
C1267  N1297   1.426   .     S
C1267  N1274   1.379   .     A
C1268  N1303   1.433   .     S
C1268  N1273   1.391   .     A
C1268  C82     1.444   1_556 S
C1269  N1273   1.371   .     A
C1269  N1309   1.423   .     S
C1269  C79     1.428   1_556 S
C1270  N1274   1.361   .     A
C1270  N1315   1.416   .     S
N1273  Zn1283  2.035   .     S
N1274  Zn1284  2.035   .     S
O1275  Zn1283  2.014   .     S
O1276  Zn1284  2.014   .     S
O1277  Zn1284  2.001   .     S
O1278  Zn1283  2.001   .     S
O1279  Zn1283  1.993   .     S
O1280  Zn1284  1.993   .     S
O1281  Zn1284  2.002   .     S
O1282  Zn1283  2.002   .     S
C1285  H1286   1.083   .     S
C1285  C1325   1.483   .     S
C1285  O1353   1.221   .     S
C1288  O1290   1.221   .     D
C1288  H1289   1.085   .     S
C1291  H1292   1.078   .     S
C1291  O1293   1.222   .     D
C1294  O1296   1.221   .     D
C1294  H1295   1.081   .     S
N1297  H1298   1.016   .     S
N1297  C1299   1.447   .     S
C1299  H1300   1.106   .     S
C1299  H1302   1.107   .     S
C1299  H1301   1.108   .     S
N1303  H1304   1.017   .     S
N1303  C1305   1.450   .     S
C1305  H1308   1.111   .     S
C1305  H1307   1.105   .     S
C1305  H1306   1.109   .     S
N1309  H1310   1.032   .     S
N1309  C1311   1.443   .     S
C1311  H1312   1.110   .     S
C1311  H1313   1.107   .     S
C1311  H1314   1.109   .     S
N1315  H1316   1.030   .     S
N1315  C1317   1.448   .     S
C1317  H1320   1.105   .     S
C1317  H1318   1.107   .     S
H1319  C129    1.108   1_556 S
C1321  O1341   1.305   .     A
C1321  O1343   1.289   .     A
C1321  C1332   1.438   .     S
C1322  O1342   1.300   .     A
C1322  C1331   1.431   .     S
C1322  O1344   1.291   .     A
C1323  O1347   1.301   .     A
C1323  O1345   1.278   .     A
C1323  C1325   1.416   .     S
C1324  O1346   1.282   .     A
C1324  O1348   1.299   .     A
C1324  C1326   1.415   .     S
C1326  C1193   1.355   1_655 S
C1326  C1222   1.483   1_655 S
C1327  C1357   1.488   .     S
C1327  C1332   1.416   .     A
C1327  C1725   1.381   1_545 S
C1328  C1331   1.410   .     A
C1328  C1360   1.488   .     S
C1328  C1528   1.375   .     S
C1329  C1331   1.396   .     A
C1329  H1337   1.084   .     S
C1329  C1525   1.381   .     S
C1330  C1332   1.392   .     A
C1330  H1338   1.073   .     S
C1330  C1724   1.375   1_545 S
C1333  N1363   1.426   .     S
C1333  N1340   1.379   .     A
C1334  N1369   1.433   .     S
C1334  N1339   1.391   .     A
C1334  C148    1.444   1_556 S
C1335  N1339   1.371   .     A
C1335  N1375   1.423   .     S
C1335  C145    1.428   1_556 S
C1336  N1340   1.361   .     A
C1336  N1381   1.416   .     S
N1339  Zn1349  2.035   .     S
N1340  Zn1350  2.035   .     S
O1341  Zn1349  2.014   .     S
O1342  Zn1350  2.014   .     S
O1343  Zn1350  2.001   .     S
O1344  Zn1349  2.001   .     S
O1345  Zn1349  1.993   .     S
O1346  Zn1350  1.993   .     S
O1347  Zn1350  2.002   .     S
O1348  Zn1349  2.002   .     S
C1351  H1352   1.083   .     S
C1351  C1193   1.483   1_655 S
C1351  O1221   1.221   1_655 S
C1354  O1356   1.221   .     D
C1354  H1355   1.085   .     S
C1357  H1358   1.078   .     S
C1357  O1359   1.222   .     D
C1360  O1362   1.221   .     D
C1360  H1361   1.081   .     S
N1363  H1364   1.016   .     S
N1363  C1365   1.447   .     S
C1365  H1366   1.106   .     S
C1365  H1368   1.107   .     S
C1365  H1367   1.108   .     S
N1369  H1370   1.017   .     S
N1369  C1371   1.450   .     S
C1371  H1374   1.111   .     S
C1371  H1373   1.105   .     S
C1371  H1372   1.109   .     S
N1375  H1376   1.032   .     S
N1375  C1377   1.443   .     S
C1377  H1378   1.110   .     S
C1377  H1379   1.107   .     S
C1377  H1380   1.109   .     S
N1381  H1382   1.030   .     S
N1381  C1383   1.448   .     S
C1383  H1386   1.105   .     S
C1383  H1384   1.107   .     S
H1385  C195    1.108   1_556 S
C1387  O1407   1.305   .     A
C1387  O1409   1.289   .     A
C1387  C1398   1.438   .     S
C1388  O1408   1.300   .     A
C1388  C1397   1.431   .     S
C1388  O1410   1.291   .     A
C1389  O1413   1.301   .     A
C1389  O1411   1.278   .     A
C1389  C1391   1.416   .     S
C1390  O1412   1.282   .     A
C1390  O1414   1.299   .     A
C1390  C1392   1.415   .     S
C1391  C1524   1.355   1_455 S
C1391  C1549   1.483   1_455 S
C1392  C1457   1.355   .     S
C1392  C1486   1.483   .     S
C1393  C1423   1.488   .     S
C1393  C1398   1.416   .     A
C1394  C1397   1.410   .     A
C1394  C1426   1.488   .     S
C1394  C1594   1.375   .     S
C1395  C1397   1.396   .     A
C1395  H1403   1.084   .     S
C1395  C1591   1.381   .     S
C1396  C1398   1.392   .     A
C1396  H1404   1.073   .     S
C1399  N1429   1.426   .     S
C1399  N1406   1.379   .     A
C1400  N1435   1.433   .     S
C1400  N1405   1.391   .     A
C1400  C214    1.444   1_556 S
C1401  N1405   1.371   .     A
C1401  N1441   1.423   .     S
C1401  C211    1.428   1_556 S
C1402  N1406   1.361   .     A
C1402  N1447   1.416   .     S
N1405  Zn1415  2.035   .     S
N1406  Zn1416  2.035   .     S
O1407  Zn1415  2.014   .     S
O1408  Zn1416  2.014   .     S
O1409  Zn1416  2.001   .     S
O1410  Zn1415  2.001   .     S
O1411  Zn1415  1.993   .     S
O1412  Zn1416  1.993   .     S
O1413  Zn1416  2.002   .     S
O1414  Zn1415  2.002   .     S
C1417  H1418   1.083   .     S
C1417  C1457   1.483   .     S
C1417  O1485   1.221   .     S
O1419  C1549   1.221   1_455 S
C1420  O1422   1.221   .     D
C1420  H1421   1.085   .     S
C1420  C1524   1.483   1_455 S
C1423  H1424   1.078   .     S
C1423  O1425   1.222   .     D
C1426  O1428   1.221   .     D
C1426  H1427   1.081   .     S
N1429  H1430   1.016   .     S
N1429  C1431   1.447   .     S
C1431  H1432   1.106   .     S
C1431  H1434   1.107   .     S
C1431  H1433   1.108   .     S
N1435  H1436   1.017   .     S
N1435  C1437   1.450   .     S
C1437  H1440   1.111   .     S
C1437  H1439   1.105   .     S
C1437  H1438   1.109   .     S
N1441  H1442   1.032   .     S
N1441  C1443   1.443   .     S
C1443  H1444   1.110   .     S
C1443  H1445   1.107   .     S
C1443  H1446   1.109   .     S
N1447  H1448   1.030   .     S
N1447  C1449   1.448   .     S
C1449  H1452   1.105   .     S
C1449  H1450   1.107   .     S
H1451  C261    1.108   1_556 S
C1453  O1473   1.305   .     A
C1453  O1475   1.289   .     A
C1453  C1464   1.438   .     S
C1454  O1474   1.300   .     A
C1454  C1463   1.431   .     S
C1454  O1476   1.291   .     A
C1455  O1479   1.301   .     A
C1455  O1477   1.278   .     A
C1455  C1457   1.416   .     S
C1456  O1478   1.282   .     A
C1456  O1480   1.299   .     A
C1456  C1458   1.415   .     S
C1458  C1523   1.355   .     S
C1458  C1552   1.483   .     S
C1459  C1489   1.488   .     S
C1459  C1464   1.416   .     A
C1460  C1463   1.410   .     A
C1460  C1492   1.488   .     S
C1460  C1660   1.375   .     S
C1461  C1463   1.396   .     A
C1461  H1469   1.084   .     S
C1461  C1657   1.381   .     S
C1462  C1464   1.392   .     A
C1462  H1470   1.073   .     S
C1465  N1495   1.426   .     S
C1465  N1472   1.379   .     A
C1466  N1501   1.433   .     S
C1466  N1471   1.391   .     A
C1466  C280    1.444   1_556 S
C1467  N1471   1.371   .     A
C1467  N1507   1.423   .     S
C1467  C277    1.428   1_556 S
C1468  N1472   1.361   .     A
C1468  N1513   1.416   .     S
N1471  Zn1481  2.035   .     S
N1472  Zn1482  2.035   .     S
O1473  Zn1481  2.014   .     S
O1474  Zn1482  2.014   .     S
O1475  Zn1482  2.001   .     S
O1476  Zn1481  2.001   .     S
O1477  Zn1481  1.993   .     S
O1478  Zn1482  1.993   .     S
O1479  Zn1482  2.002   .     S
O1480  Zn1481  2.002   .     S
C1483  H1484   1.083   .     S
C1483  C1523   1.483   .     S
C1483  O1551   1.221   .     S
C1486  O1488   1.221   .     D
C1486  H1487   1.085   .     S
C1489  H1490   1.078   .     S
C1489  O1491   1.222   .     D
C1492  O1494   1.221   .     D
C1492  H1493   1.081   .     S
N1495  H1496   1.016   .     S
N1495  C1497   1.447   .     S
C1497  H1498   1.106   .     S
C1497  H1500   1.107   .     S
C1497  H1499   1.108   .     S
N1501  H1502   1.017   .     S
N1501  C1503   1.450   .     S
C1503  H1506   1.111   .     S
C1503  H1505   1.105   .     S
C1503  H1504   1.109   .     S
N1507  H1508   1.032   .     S
N1507  C1509   1.443   .     S
C1509  H1510   1.110   .     S
C1509  H1511   1.107   .     S
C1509  H1512   1.109   .     S
N1513  H1514   1.030   .     S
N1513  C1515   1.448   .     S
C1515  H1518   1.105   .     S
C1515  H1516   1.107   .     S
H1517  C327    1.108   1_556 S
C1519  O1539   1.305   .     A
C1519  O1541   1.289   .     A
C1519  C1530   1.438   .     S
C1520  O1540   1.300   .     A
C1520  C1529   1.431   .     S
C1520  O1542   1.291   .     A
C1521  O1545   1.301   .     A
C1521  O1543   1.278   .     A
C1521  C1523   1.416   .     S
C1522  O1544   1.282   .     A
C1522  O1546   1.299   .     A
C1522  C1524   1.415   .     S
C1524  C1391   1.355   1_655 S
C1524  C1420   1.483   1_655 S
C1525  C1555   1.488   .     S
C1525  C1530   1.416   .     A
C1526  C1529   1.410   .     A
C1526  C1558   1.488   .     S
C1526  C1726   1.375   .     S
C1527  C1529   1.396   .     A
C1527  H1535   1.084   .     S
C1527  C1723   1.381   .     S
C1528  C1530   1.392   .     A
C1528  H1536   1.073   .     S
C1531  N1561   1.426   .     S
C1531  N1538   1.379   .     A
C1532  N1567   1.433   .     S
C1532  N1537   1.391   .     A
C1532  C346    1.444   1_556 S
C1533  N1537   1.371   .     A
C1533  N1573   1.423   .     S
C1533  C343    1.428   1_556 S
C1534  N1538   1.361   .     A
C1534  N1579   1.416   .     S
N1537  Zn1547  2.035   .     S
N1538  Zn1548  2.035   .     S
O1539  Zn1547  2.014   .     S
O1540  Zn1548  2.014   .     S
O1541  Zn1548  2.001   .     S
O1542  Zn1547  2.001   .     S
O1543  Zn1547  1.993   .     S
O1544  Zn1548  1.993   .     S
O1545  Zn1548  2.002   .     S
O1546  Zn1547  2.002   .     S
C1549  H1550   1.083   .     S
C1549  C1391   1.483   1_655 S
C1549  O1419   1.221   1_655 S
C1552  O1554   1.221   .     D
C1552  H1553   1.085   .     S
C1555  H1556   1.078   .     S
C1555  O1557   1.222   .     D
C1558  O1560   1.221   .     D
C1558  H1559   1.081   .     S
N1561  H1562   1.016   .     S
N1561  C1563   1.447   .     S
C1563  H1564   1.106   .     S
C1563  H1566   1.107   .     S
C1563  H1565   1.108   .     S
N1567  H1568   1.017   .     S
N1567  C1569   1.450   .     S
C1569  H1572   1.111   .     S
C1569  H1571   1.105   .     S
C1569  H1570   1.109   .     S
N1573  H1574   1.032   .     S
N1573  C1575   1.443   .     S
C1575  H1576   1.110   .     S
C1575  H1577   1.107   .     S
C1575  H1578   1.109   .     S
N1579  H1580   1.030   .     S
N1579  C1581   1.448   .     S
C1581  H1584   1.105   .     S
C1581  H1582   1.107   .     S
H1583  C393    1.108   1_556 S
C1585  O1605   1.305   .     A
C1585  O1607   1.289   .     A
C1585  C1596   1.438   .     S
C1586  O1606   1.300   .     A
C1586  C1595   1.431   .     S
C1586  O1608   1.291   .     A
C1587  O1611   1.301   .     A
C1587  O1609   1.278   .     A
C1587  C1589   1.416   .     S
C1588  O1610   1.282   .     A
C1588  O1612   1.299   .     A
C1588  C1590   1.415   .     S
C1589  C1722   1.355   1_455 S
C1589  C1747   1.483   1_455 S
C1590  C1655   1.355   .     S
C1590  C1684   1.483   .     S
C1591  C1621   1.488   .     S
C1591  C1596   1.416   .     A
C1592  C1595   1.410   .     A
C1592  C1624   1.488   .     S
C1592  C1198   1.375   1_565 S
C1593  C1595   1.396   .     A
C1593  H1601   1.084   .     S
C1593  C1195   1.381   1_565 S
C1594  C1596   1.392   .     A
C1594  H1602   1.073   .     S
C1597  N1627   1.426   .     S
C1597  N1604   1.379   .     A
C1598  N1633   1.433   .     S
C1598  N1603   1.391   .     A
C1598  C412    1.444   1_556 S
C1599  N1603   1.371   .     A
C1599  N1639   1.423   .     S
C1599  C409    1.428   1_556 S
C1600  N1604   1.361   .     A
C1600  N1645   1.416   .     S
N1603  Zn1613  2.035   .     S
N1604  Zn1614  2.035   .     S
O1605  Zn1613  2.014   .     S
O1606  Zn1614  2.014   .     S
O1607  Zn1614  2.001   .     S
O1608  Zn1613  2.001   .     S
O1609  Zn1613  1.993   .     S
O1610  Zn1614  1.993   .     S
O1611  Zn1614  2.002   .     S
O1612  Zn1613  2.002   .     S
C1615  H1616   1.083   .     S
C1615  C1655   1.483   .     S
C1615  O1683   1.221   .     S
O1617  C1747   1.221   1_455 S
C1618  O1620   1.221   .     D
C1618  H1619   1.085   .     S
C1618  C1722   1.483   1_455 S
C1621  H1622   1.078   .     S
C1621  O1623   1.222   .     D
C1624  O1626   1.221   .     D
C1624  H1625   1.081   .     S
N1627  H1628   1.016   .     S
N1627  C1629   1.447   .     S
C1629  H1630   1.106   .     S
C1629  H1632   1.107   .     S
C1629  H1631   1.108   .     S
N1633  H1634   1.017   .     S
N1633  C1635   1.450   .     S
C1635  H1638   1.111   .     S
C1635  H1637   1.105   .     S
C1635  H1636   1.109   .     S
N1639  H1640   1.032   .     S
N1639  C1641   1.443   .     S
C1641  H1642   1.110   .     S
C1641  H1643   1.107   .     S
C1641  H1644   1.109   .     S
N1645  H1646   1.030   .     S
N1645  C1647   1.448   .     S
C1647  H1650   1.105   .     S
C1647  H1648   1.107   .     S
H1649  C459    1.108   1_556 S
C1651  O1671   1.305   .     A
C1651  O1673   1.289   .     A
C1651  C1662   1.438   .     S
C1652  O1672   1.300   .     A
C1652  C1661   1.431   .     S
C1652  O1674   1.291   .     A
C1653  O1677   1.301   .     A
C1653  O1675   1.278   .     A
C1653  C1655   1.416   .     S
C1654  O1676   1.282   .     A
C1654  O1678   1.299   .     A
C1654  C1656   1.415   .     S
C1656  C1721   1.355   .     S
C1656  C1750   1.483   .     S
C1657  C1687   1.488   .     S
C1657  C1662   1.416   .     A
C1658  C1661   1.410   .     A
C1658  C1690   1.488   .     S
C1658  C1264   1.375   1_565 S
C1659  C1661   1.396   .     A
C1659  H1667   1.084   .     S
C1659  C1261   1.381   1_565 S
C1660  C1662   1.392   .     A
C1660  H1668   1.073   .     S
C1663  N1693   1.426   .     S
C1663  N1670   1.379   .     A
C1664  N1699   1.433   .     S
C1664  N1669   1.391   .     A
C1664  C478    1.444   1_556 S
C1665  N1669   1.371   .     A
C1665  N1705   1.423   .     S
C1665  C475    1.428   1_556 S
C1666  N1670   1.361   .     A
C1666  N1711   1.416   .     S
N1669  Zn1679  2.035   .     S
N1670  Zn1680  2.035   .     S
O1671  Zn1679  2.014   .     S
O1672  Zn1680  2.014   .     S
O1673  Zn1680  2.001   .     S
O1674  Zn1679  2.001   .     S
O1675  Zn1679  1.993   .     S
O1676  Zn1680  1.993   .     S
O1677  Zn1680  2.002   .     S
O1678  Zn1679  2.002   .     S
C1681  H1682   1.083   .     S
C1681  C1721   1.483   .     S
C1681  O1749   1.221   .     S
C1684  O1686   1.221   .     D
C1684  H1685   1.085   .     S
C1687  H1688   1.078   .     S
C1687  O1689   1.222   .     D
C1690  O1692   1.221   .     D
C1690  H1691   1.081   .     S
N1693  H1694   1.016   .     S
N1693  C1695   1.447   .     S
C1695  H1696   1.106   .     S
C1695  H1698   1.107   .     S
C1695  H1697   1.108   .     S
N1699  H1700   1.017   .     S
N1699  C1701   1.450   .     S
C1701  H1704   1.111   .     S
C1701  H1703   1.105   .     S
C1701  H1702   1.109   .     S
N1705  H1706   1.032   .     S
N1705  C1707   1.443   .     S
C1707  H1708   1.110   .     S
C1707  H1709   1.107   .     S
C1707  H1710   1.109   .     S
N1711  H1712   1.030   .     S
N1711  C1713   1.448   .     S
C1713  H1716   1.105   .     S
C1713  H1714   1.107   .     S
H1715  C525    1.108   1_556 S
C1717  O1737   1.305   .     A
C1717  O1739   1.289   .     A
C1717  C1728   1.438   .     S
C1718  O1738   1.300   .     A
C1718  C1727   1.431   .     S
C1718  O1740   1.291   .     A
C1719  O1743   1.301   .     A
C1719  O1741   1.278   .     A
C1719  C1721   1.416   .     S
C1720  O1742   1.282   .     A
C1720  O1744   1.299   .     A
C1720  C1722   1.415   .     S
C1722  C1589   1.355   1_655 S
C1722  C1618   1.483   1_655 S
C1723  C1753   1.488   .     S
C1723  C1728   1.416   .     A
C1724  C1727   1.410   .     A
C1724  C1756   1.488   .     S
C1724  C1330   1.375   1_565 S
C1725  C1727   1.396   .     A
C1725  H1733   1.084   .     S
C1725  C1327   1.381   1_565 S
C1726  C1728   1.392   .     A
C1726  H1734   1.073   .     S
C1729  N1759   1.426   .     S
C1729  N1736   1.379   .     A
C1730  N1765   1.433   .     S
C1730  N1735   1.391   .     A
C1730  C544    1.444   1_556 S
C1731  N1735   1.371   .     A
C1731  N1771   1.423   .     S
C1731  C541    1.428   1_556 S
C1732  N1736   1.361   .     A
C1732  N1777   1.416   .     S
N1735  Zn1745  2.035   .     S
N1736  Zn1746  2.035   .     S
O1737  Zn1745  2.014   .     S
O1738  Zn1746  2.014   .     S
O1739  Zn1746  2.001   .     S
O1740  Zn1745  2.001   .     S
O1741  Zn1745  1.993   .     S
O1742  Zn1746  1.993   .     S
O1743  Zn1746  2.002   .     S
O1744  Zn1745  2.002   .     S
C1747  H1748   1.083   .     S
C1747  C1589   1.483   1_655 S
C1747  O1617   1.221   1_655 S
C1750  O1752   1.221   .     D
C1750  H1751   1.085   .     S
C1753  H1754   1.078   .     S
C1753  O1755   1.222   .     D
C1756  O1758   1.221   .     D
C1756  H1757   1.081   .     S
N1759  H1760   1.016   .     S
N1759  C1761   1.447   .     S
C1761  H1762   1.106   .     S
C1761  H1764   1.107   .     S
C1761  H1763   1.108   .     S
N1765  H1766   1.017   .     S
N1765  C1767   1.450   .     S
C1767  H1770   1.111   .     S
C1767  H1769   1.105   .     S
C1767  H1768   1.109   .     S
N1771  H1772   1.032   .     S
N1771  C1773   1.443   .     S
C1773  H1774   1.110   .     S
C1773  H1775   1.107   .     S
C1773  H1776   1.109   .     S
N1777  H1778   1.030   .     S
N1777  C1779   1.448   .     S
C1779  H1782   1.105   .     S
C1779  H1780   1.107   .     S
H1781  C591    1.108   1_556 S
