data_str_m3_o1_o10_pcu_sym.36
_audit_creation_date              2020-01-03
_audit_creation_method            'Materials Studio'
_symmetry_space_group_name_H-M    'P1'
_symmetry_Int_Tables_number       1
_symmetry_cell_setting            triclinic
loop_
_symmetry_equiv_pos_as_xyz
  x,y,z
_cell_length_a                    25.7376
_cell_length_b                    32.3996
_cell_length_c                    30.0620
_cell_angle_alpha                 89.3263
_cell_angle_beta                  96.5028
_cell_angle_gamma                 93.2097
loop_
_atom_site_label
_atom_site_type_symbol
_atom_site_fract_x
_atom_site_fract_y
_atom_site_fract_z
_atom_site_U_iso_or_equiv
_atom_site_adp_type
_atom_site_occupancy
C1     C     0.16845   0.08688   0.16731   0.00000  Uiso   1.00
C2     C     0.17879   0.01982   0.20879   0.00000  Uiso   1.00
C3     C     0.16275   0.29071   0.16482   0.00000  Uiso   1.00
C4     C     0.17039   0.04261   0.16840   0.00000  Uiso   1.00
C5     C     0.20330   0.19061   0.02706   0.00000  Uiso   1.00
C6     C     0.12979   0.14295   0.30632   0.00000  Uiso   1.00
C7     C     0.20306   0.19043   0.31263   0.00000  Uiso   1.00
C8     C     0.13031   0.14292   0.02079   0.00000  Uiso   1.00
C9     C     0.33217   0.10913   0.14379   0.00000  Uiso   1.00
C10    C     0.00188   0.22333   0.19048   0.00000  Uiso   1.00
C11    C     0.13710   0.29536   0.07811   0.00000  Uiso   1.00
C12    C     0.16489   0.24646   0.16600   0.00000  Uiso   1.00
C13    C     0.08110   0.27639   0.07470   0.00000  Uiso   1.00
C14    C     0.19711   0.03797   0.25488   0.00000  Uiso   1.00
C15    C     0.25317   0.05675   0.25738   0.00000  Uiso   1.00
C16    C     0.24471   0.21776   0.05470   0.00000  Uiso   1.00
C17    C     0.29813   0.19906   0.06015   0.00000  Uiso   1.00
C18    C     0.08820   0.11594   0.27873   0.00000  Uiso   1.00
C19    C     0.03485   0.13493   0.27297   0.00000  Uiso   1.00
C20    C     0.24271   0.21674   0.29252   0.00000  Uiso   1.00
C21    C     0.09114   0.11643   0.04124   0.00000  Uiso   1.00
C22    C     0.06770   0.16474   0.15599   0.00000  Uiso   1.00
C23    C     0.26570   0.16817   0.17734   0.00000  Uiso   1.00
C24    C     0.01405   0.15379   0.15527   0.00000  Uiso   1.00
C25    C     0.31938   0.17901   0.17793   0.00000  Uiso   1.00
C26    C     0.16051   0.02253   0.12718   0.00000  Uiso   1.00
C27    C     0.17232   0.31080   0.20604   0.00000  Uiso   1.00
C28    C     0.15450   0.31349   0.12439   0.00000  Uiso   1.00
H29    H     0.15661   0.04005   0.09648   0.00000  Uiso   1.00
H30    H     0.28042   0.03247   0.25155   0.00000  Uiso   1.00
H31    H     0.25686   0.08160   0.23213   0.00000  Uiso   1.00
H32    H     0.26489   0.07009   0.29112   0.00000  Uiso   1.00
H33    H     0.16992   0.06041   0.26503   0.00000  Uiso   1.00
H34    H     0.19699   0.01366   0.28132   0.00000  Uiso   1.00
H35    H     0.29363   0.16560   0.06780   0.00000  Uiso   1.00
H36    H     0.31847   0.20344   0.02987   0.00000  Uiso   1.00
H37    H     0.32332   0.21469   0.08802   0.00000  Uiso   1.00
H38    H     0.24811   0.24920   0.03993   0.00000  Uiso   1.00
H39    H     0.23411   0.22307   0.08805   0.00000  Uiso   1.00
H40    H     0.17581   0.29328   0.23675   0.00000  Uiso   1.00
H41    H     0.01351   0.12943   0.30248   0.00000  Uiso   1.00
H42    H     0.03926   0.16869   0.26667   0.00000  Uiso   1.00
H43    H     0.01028   0.12001   0.24432   0.00000  Uiso   1.00
H44    H     0.09905   0.11028   0.24550   0.00000  Uiso   1.00
H45    H     0.08446   0.08460   0.29375   0.00000  Uiso   1.00
H46    H     0.26813   0.27466   0.27743   0.00000  Uiso   1.00
H47    H     0.01633   0.10908   0.05431   0.00000  Uiso   1.00
H48    H     0.27663   0.06263   0.13379   0.00000  Uiso   1.00
H49    H     0.05511   0.27165   0.19260   0.00000  Uiso   1.00
H50    H     0.06970   0.26402   0.04047   0.00000  Uiso   1.00
H51    H     0.07740   0.25073   0.09896   0.00000  Uiso   1.00
H52    H     0.05364   0.30028   0.08125   0.00000  Uiso   1.00
H53    H     0.13762   0.31971   0.05175   0.00000  Uiso   1.00
H54    H     0.16464   0.27306   0.06834   0.00000  Uiso   1.00
N55    N     0.16665   0.16666   0.28573   0.00000  Uiso   1.00
N56    N     0.16668   0.16668   0.04760   0.00000  Uiso   1.00
O57    O     0.16666   0.10558   0.20487   0.00000  Uiso   1.00
O58    O     0.28044   0.09311   0.14151   0.00000  Uiso   1.00
O59    O     0.30372   0.24467   0.20564   0.00000  Uiso   1.00
O60    O     0.05068   0.24156   0.18329   0.00000  Uiso   1.00
O61    O     0.28360   0.20234   0.28498   0.00000  Uiso   1.00
O62    O     0.23659   0.25912   0.28820   0.00000  Uiso   1.00
O63    O     0.09874   0.08002   0.04840   0.00000  Uiso   1.00
O64    O     0.04288   0.13172   0.04709   0.00000  Uiso   1.00
O65    O     0.16667   0.22775   0.12846   0.00000  Uiso   1.00
O66    O     0.16666   0.10559   0.12843   0.00000  Uiso   1.00
O67    O     0.16667   0.22774   0.20490   0.00000  Uiso   1.00
O68    O     0.09058   0.16666   0.19595   0.00000  Uiso   1.00
O69    O     0.24275   0.16667   0.13739   0.00000  Uiso   1.00
O70    O     0.09058   0.16667   0.11950   0.00000  Uiso   1.00
O71    O     0.24275   0.16666   0.21383   0.00000  Uiso   1.00
O72    O     0.03294   0.08579   0.13712   0.00000  Uiso   1.00
Zn73   Zn    0.16667   0.16666   0.21771   0.00000  Uiso   1.00
Zn74   Zn    0.16667   0.16667   0.11563   0.00000  Uiso   1.00
C75    C     0.50178   0.08688   0.16731   0.00000  Uiso   1.00
C76    C     0.51212   0.01982   0.20879   0.00000  Uiso   1.00
C77    C     0.49608   0.29071   0.16482   0.00000  Uiso   1.00
C78    C     0.50373   0.04261   0.16840   0.00000  Uiso   1.00
C79    C     0.53664   0.19061   0.02706   0.00000  Uiso   1.00
C80    C     0.46313   0.14295   0.30632   0.00000  Uiso   1.00
C81    C     0.53639   0.19043   0.31263   0.00000  Uiso   1.00
C82    C     0.46364   0.14292   0.02079   0.00000  Uiso   1.00
C83    C     0.66550   0.10913   0.14379   0.00000  Uiso   1.00
C84    C     0.33521   0.22333   0.19048   0.00000  Uiso   1.00
C85    C     0.47043   0.29536   0.07811   0.00000  Uiso   1.00
C86    C     0.49822   0.24646   0.16600   0.00000  Uiso   1.00
C87    C     0.41443   0.27639   0.07470   0.00000  Uiso   1.00
C88    C     0.53044   0.03797   0.25488   0.00000  Uiso   1.00
C89    C     0.58650   0.05675   0.25738   0.00000  Uiso   1.00
C90    C     0.57804   0.21776   0.05470   0.00000  Uiso   1.00
C91    C     0.63146   0.19906   0.06015   0.00000  Uiso   1.00
C92    C     0.42153   0.11594   0.27873   0.00000  Uiso   1.00
C93    C     0.36818   0.13493   0.27297   0.00000  Uiso   1.00
C94    C     0.57605   0.21674   0.29252   0.00000  Uiso   1.00
C95    C     0.42447   0.11643   0.04124   0.00000  Uiso   1.00
C96    C     0.40103   0.16474   0.15599   0.00000  Uiso   1.00
C97    C     0.59903   0.16817   0.17734   0.00000  Uiso   1.00
C98    C     0.34738   0.15379   0.15527   0.00000  Uiso   1.00
C99    C     0.65271   0.17901   0.17793   0.00000  Uiso   1.00
C100   C     0.49384   0.02253   0.12718   0.00000  Uiso   1.00
C101   C     0.50565   0.31080   0.20604   0.00000  Uiso   1.00
C102   C     0.48783   0.31349   0.12439   0.00000  Uiso   1.00
H103   H     0.48994   0.04005   0.09648   0.00000  Uiso   1.00
H104   H     0.61375   0.03247   0.25155   0.00000  Uiso   1.00
H105   H     0.59019   0.08160   0.23213   0.00000  Uiso   1.00
H106   H     0.59822   0.07009   0.29112   0.00000  Uiso   1.00
H107   H     0.50326   0.06041   0.26503   0.00000  Uiso   1.00
H108   H     0.53033   0.01366   0.28132   0.00000  Uiso   1.00
H109   H     0.62697   0.16560   0.06780   0.00000  Uiso   1.00
H110   H     0.65180   0.20344   0.02987   0.00000  Uiso   1.00
H111   H     0.65665   0.21469   0.08802   0.00000  Uiso   1.00
H112   H     0.58144   0.24920   0.03993   0.00000  Uiso   1.00
H113   H     0.56744   0.22307   0.08805   0.00000  Uiso   1.00
H114   H     0.50914   0.29328   0.23675   0.00000  Uiso   1.00
H115   H     0.34685   0.12943   0.30248   0.00000  Uiso   1.00
H116   H     0.37260   0.16869   0.26667   0.00000  Uiso   1.00
H117   H     0.34361   0.12001   0.24432   0.00000  Uiso   1.00
H118   H     0.43238   0.11028   0.24550   0.00000  Uiso   1.00
H119   H     0.41779   0.08460   0.29375   0.00000  Uiso   1.00
H120   H     0.60146   0.27466   0.27743   0.00000  Uiso   1.00
H121   H     0.34966   0.10908   0.05431   0.00000  Uiso   1.00
H122   H     0.60997   0.06263   0.13379   0.00000  Uiso   1.00
H123   H     0.38844   0.27165   0.19260   0.00000  Uiso   1.00
H124   H     0.40303   0.26402   0.04047   0.00000  Uiso   1.00
H125   H     0.41073   0.25073   0.09896   0.00000  Uiso   1.00
H126   H     0.38697   0.30028   0.08125   0.00000  Uiso   1.00
H127   H     0.47095   0.31971   0.05175   0.00000  Uiso   1.00
H128   H     0.49797   0.27306   0.06834   0.00000  Uiso   1.00
N129   N     0.49999   0.16666   0.28573   0.00000  Uiso   1.00
N130   N     0.50001   0.16668   0.04760   0.00000  Uiso   1.00
O131   O     0.50000   0.10558   0.20487   0.00000  Uiso   1.00
O132   O     0.61377   0.09311   0.14151   0.00000  Uiso   1.00
O133   O     0.63706   0.24467   0.20564   0.00000  Uiso   1.00
O134   O     0.38402   0.24156   0.18329   0.00000  Uiso   1.00
O135   O     0.61694   0.20234   0.28498   0.00000  Uiso   1.00
O136   O     0.56992   0.25912   0.28820   0.00000  Uiso   1.00
O137   O     0.43208   0.08002   0.04840   0.00000  Uiso   1.00
O138   O     0.37621   0.13172   0.04709   0.00000  Uiso   1.00
O139   O     0.50000   0.22775   0.12846   0.00000  Uiso   1.00
O140   O     0.50000   0.10559   0.12843   0.00000  Uiso   1.00
O141   O     0.50000   0.22774   0.20490   0.00000  Uiso   1.00
O142   O     0.42392   0.16666   0.19595   0.00000  Uiso   1.00
O143   O     0.57608   0.16667   0.13739   0.00000  Uiso   1.00
O144   O     0.42392   0.16667   0.11950   0.00000  Uiso   1.00
O145   O     0.57608   0.16666   0.21383   0.00000  Uiso   1.00
O146   O     0.36627   0.08579   0.13712   0.00000  Uiso   1.00
Zn147  Zn    0.50000   0.16666   0.21771   0.00000  Uiso   1.00
Zn148  Zn    0.50000   0.16667   0.11563   0.00000  Uiso   1.00
C149   C     0.83511   0.08688   0.16731   0.00000  Uiso   1.00
C150   C     0.84545   0.01982   0.20879   0.00000  Uiso   1.00
C151   C     0.82941   0.29071   0.16482   0.00000  Uiso   1.00
C152   C     0.83706   0.04261   0.16840   0.00000  Uiso   1.00
C153   C     0.86997   0.19061   0.02706   0.00000  Uiso   1.00
C154   C     0.79646   0.14295   0.30632   0.00000  Uiso   1.00
C155   C     0.86973   0.19043   0.31263   0.00000  Uiso   1.00
C156   C     0.79697   0.14292   0.02079   0.00000  Uiso   1.00
C157   C     0.99883   0.10913   0.14379   0.00000  Uiso   1.00
C158   C     0.66854   0.22333   0.19048   0.00000  Uiso   1.00
C159   C     0.80376   0.29536   0.07811   0.00000  Uiso   1.00
C160   C     0.83155   0.24646   0.16600   0.00000  Uiso   1.00
C161   C     0.74776   0.27639   0.07470   0.00000  Uiso   1.00
C162   C     0.86378   0.03797   0.25488   0.00000  Uiso   1.00
C163   C     0.91984   0.05675   0.25738   0.00000  Uiso   1.00
C164   C     0.91137   0.21776   0.05470   0.00000  Uiso   1.00
C165   C     0.96479   0.19906   0.06015   0.00000  Uiso   1.00
C166   C     0.75486   0.11594   0.27873   0.00000  Uiso   1.00
C167   C     0.70152   0.13493   0.27297   0.00000  Uiso   1.00
C168   C     0.90938   0.21674   0.29252   0.00000  Uiso   1.00
C169   C     0.75781   0.11643   0.04124   0.00000  Uiso   1.00
C170   C     0.73436   0.16474   0.15599   0.00000  Uiso   1.00
C171   C     0.93237   0.16817   0.17734   0.00000  Uiso   1.00
C172   C     0.68072   0.15379   0.15527   0.00000  Uiso   1.00
C173   C     0.98605   0.17901   0.17793   0.00000  Uiso   1.00
C174   C     0.82717   0.02253   0.12718   0.00000  Uiso   1.00
C175   C     0.83898   0.31080   0.20604   0.00000  Uiso   1.00
C176   C     0.82116   0.31349   0.12439   0.00000  Uiso   1.00
H177   H     0.82328   0.04005   0.09648   0.00000  Uiso   1.00
H178   H     0.94709   0.03247   0.25155   0.00000  Uiso   1.00
H179   H     0.92353   0.08160   0.23213   0.00000  Uiso   1.00
H180   H     0.93156   0.07009   0.29112   0.00000  Uiso   1.00
H181   H     0.83659   0.06041   0.26503   0.00000  Uiso   1.00
H182   H     0.86366   0.01366   0.28132   0.00000  Uiso   1.00
H183   H     0.96030   0.16560   0.06780   0.00000  Uiso   1.00
H184   H     0.98514   0.20344   0.02987   0.00000  Uiso   1.00
H185   H     0.98998   0.21469   0.08802   0.00000  Uiso   1.00
H186   H     0.91478   0.24920   0.03993   0.00000  Uiso   1.00
H187   H     0.90078   0.22307   0.08805   0.00000  Uiso   1.00
H188   H     0.84247   0.29328   0.23675   0.00000  Uiso   1.00
H189   H     0.68018   0.12943   0.30248   0.00000  Uiso   1.00
H190   H     0.70593   0.16869   0.26667   0.00000  Uiso   1.00
H191   H     0.67694   0.12001   0.24432   0.00000  Uiso   1.00
H192   H     0.76571   0.11028   0.24550   0.00000  Uiso   1.00
H193   H     0.75113   0.08460   0.29375   0.00000  Uiso   1.00
H194   H     0.93479   0.27466   0.27743   0.00000  Uiso   1.00
H195   H     0.68300   0.10908   0.05431   0.00000  Uiso   1.00
H196   H     0.94330   0.06263   0.13379   0.00000  Uiso   1.00
H197   H     0.72178   0.27165   0.19260   0.00000  Uiso   1.00
H198   H     0.73636   0.26402   0.04047   0.00000  Uiso   1.00
H199   H     0.74407   0.25073   0.09896   0.00000  Uiso   1.00
H200   H     0.72030   0.30028   0.08125   0.00000  Uiso   1.00
H201   H     0.80429   0.31971   0.05175   0.00000  Uiso   1.00
H202   H     0.83130   0.27306   0.06834   0.00000  Uiso   1.00
N203   N     0.83332   0.16666   0.28573   0.00000  Uiso   1.00
N204   N     0.83335   0.16668   0.04760   0.00000  Uiso   1.00
O205   O     0.83333   0.10558   0.20487   0.00000  Uiso   1.00
O206   O     0.94711   0.09311   0.14151   0.00000  Uiso   1.00
O207   O     0.97039   0.24467   0.20564   0.00000  Uiso   1.00
O208   O     0.71735   0.24156   0.18329   0.00000  Uiso   1.00
O209   O     0.95027   0.20234   0.28498   0.00000  Uiso   1.00
O210   O     0.90325   0.25912   0.28820   0.00000  Uiso   1.00
O211   O     0.76541   0.08002   0.04840   0.00000  Uiso   1.00
O212   O     0.70955   0.13172   0.04709   0.00000  Uiso   1.00
O213   O     0.83334   0.22775   0.12846   0.00000  Uiso   1.00
O214   O     0.83333   0.10559   0.12843   0.00000  Uiso   1.00
O215   O     0.83334   0.22774   0.20490   0.00000  Uiso   1.00
O216   O     0.75725   0.16666   0.19595   0.00000  Uiso   1.00
O217   O     0.90942   0.16667   0.13739   0.00000  Uiso   1.00
O218   O     0.75725   0.16667   0.11950   0.00000  Uiso   1.00
O219   O     0.90942   0.16666   0.21383   0.00000  Uiso   1.00
O220   O     0.69960   0.08579   0.13712   0.00000  Uiso   1.00
Zn221  Zn    0.83333   0.16666   0.21771   0.00000  Uiso   1.00
Zn222  Zn    0.83333   0.16667   0.11563   0.00000  Uiso   1.00
C223   C     0.16845   0.42021   0.16731   0.00000  Uiso   1.00
C224   C     0.17879   0.35316   0.20879   0.00000  Uiso   1.00
C225   C     0.16275   0.62404   0.16482   0.00000  Uiso   1.00
C226   C     0.17039   0.37594   0.16840   0.00000  Uiso   1.00
C227   C     0.20330   0.52394   0.02706   0.00000  Uiso   1.00
C228   C     0.12979   0.47628   0.30632   0.00000  Uiso   1.00
C229   C     0.20306   0.52376   0.31263   0.00000  Uiso   1.00
C230   C     0.13031   0.47625   0.02079   0.00000  Uiso   1.00
C231   C     0.33217   0.44246   0.14379   0.00000  Uiso   1.00
C232   C     0.00188   0.55666   0.19048   0.00000  Uiso   1.00
C233   C     0.13710   0.62870   0.07811   0.00000  Uiso   1.00
C234   C     0.16489   0.57979   0.16600   0.00000  Uiso   1.00
C235   C     0.08110   0.60972   0.07470   0.00000  Uiso   1.00
C236   C     0.19711   0.37130   0.25488   0.00000  Uiso   1.00
C237   C     0.25317   0.39009   0.25738   0.00000  Uiso   1.00
C238   C     0.24471   0.55109   0.05470   0.00000  Uiso   1.00
C239   C     0.29813   0.53239   0.06015   0.00000  Uiso   1.00
C240   C     0.08820   0.44928   0.27873   0.00000  Uiso   1.00
C241   C     0.03485   0.46826   0.27297   0.00000  Uiso   1.00
C242   C     0.24271   0.55007   0.29252   0.00000  Uiso   1.00
C243   C     0.09114   0.44977   0.04124   0.00000  Uiso   1.00
C244   C     0.06770   0.49807   0.15599   0.00000  Uiso   1.00
C245   C     0.26570   0.50150   0.17734   0.00000  Uiso   1.00
C246   C     0.01405   0.48712   0.15527   0.00000  Uiso   1.00
C247   C     0.31938   0.51234   0.17793   0.00000  Uiso   1.00
C248   C     0.16051   0.35587   0.12718   0.00000  Uiso   1.00
C249   C     0.17232   0.64413   0.20604   0.00000  Uiso   1.00
C250   C     0.15450   0.64682   0.12439   0.00000  Uiso   1.00
H251   H     0.15661   0.37338   0.09648   0.00000  Uiso   1.00
H252   H     0.28042   0.36581   0.25155   0.00000  Uiso   1.00
H253   H     0.25686   0.41493   0.23213   0.00000  Uiso   1.00
H254   H     0.26489   0.40343   0.29112   0.00000  Uiso   1.00
H255   H     0.16992   0.39375   0.26503   0.00000  Uiso   1.00
H256   H     0.19699   0.34700   0.28132   0.00000  Uiso   1.00
H257   H     0.29363   0.49893   0.06780   0.00000  Uiso   1.00
H258   H     0.31847   0.53678   0.02987   0.00000  Uiso   1.00
H259   H     0.32332   0.54803   0.08802   0.00000  Uiso   1.00
H260   H     0.24811   0.58254   0.03993   0.00000  Uiso   1.00
H261   H     0.23411   0.55641   0.08805   0.00000  Uiso   1.00
H262   H     0.17581   0.62661   0.23675   0.00000  Uiso   1.00
H263   H     0.01351   0.46276   0.30248   0.00000  Uiso   1.00
H264   H     0.03926   0.50202   0.26667   0.00000  Uiso   1.00
H265   H     0.01028   0.45335   0.24432   0.00000  Uiso   1.00
H266   H     0.09905   0.44362   0.24550   0.00000  Uiso   1.00
H267   H     0.08446   0.41793   0.29375   0.00000  Uiso   1.00
H268   H     0.26813   0.60799   0.27743   0.00000  Uiso   1.00
H269   H     0.01633   0.44242   0.05431   0.00000  Uiso   1.00
H270   H     0.27663   0.39596   0.13379   0.00000  Uiso   1.00
H271   H     0.05511   0.60498   0.19260   0.00000  Uiso   1.00
H272   H     0.06970   0.59735   0.04047   0.00000  Uiso   1.00
H273   H     0.07740   0.58407   0.09896   0.00000  Uiso   1.00
H274   H     0.05364   0.63362   0.08125   0.00000  Uiso   1.00
H275   H     0.13762   0.65304   0.05175   0.00000  Uiso   1.00
H276   H     0.16464   0.60639   0.06834   0.00000  Uiso   1.00
N277   N     0.16665   0.49999   0.28573   0.00000  Uiso   1.00
N278   N     0.16668   0.50001   0.04760   0.00000  Uiso   1.00
O279   O     0.16666   0.43892   0.20487   0.00000  Uiso   1.00
O280   O     0.28044   0.42644   0.14151   0.00000  Uiso   1.00
O281   O     0.30372   0.57800   0.20564   0.00000  Uiso   1.00
O282   O     0.05068   0.57490   0.18329   0.00000  Uiso   1.00
O283   O     0.28360   0.53567   0.28498   0.00000  Uiso   1.00
O284   O     0.23659   0.59246   0.28820   0.00000  Uiso   1.00
O285   O     0.09874   0.41336   0.04840   0.00000  Uiso   1.00
O286   O     0.04288   0.46506   0.04709   0.00000  Uiso   1.00
O287   O     0.16667   0.56108   0.12846   0.00000  Uiso   1.00
O288   O     0.16666   0.43893   0.12843   0.00000  Uiso   1.00
O289   O     0.16667   0.56107   0.20490   0.00000  Uiso   1.00
O290   O     0.09058   0.50000   0.19595   0.00000  Uiso   1.00
O291   O     0.24275   0.50000   0.13739   0.00000  Uiso   1.00
O292   O     0.09058   0.50000   0.11950   0.00000  Uiso   1.00
O293   O     0.24275   0.50000   0.21383   0.00000  Uiso   1.00
O294   O     0.03294   0.41912   0.13712   0.00000  Uiso   1.00
Zn295  Zn    0.16667   0.49999   0.21771   0.00000  Uiso   1.00
Zn296  Zn    0.16667   0.50001   0.11563   0.00000  Uiso   1.00
C297   C     0.50178   0.42021   0.16731   0.00000  Uiso   1.00
C298   C     0.51212   0.35316   0.20879   0.00000  Uiso   1.00
C299   C     0.49608   0.62404   0.16482   0.00000  Uiso   1.00
C300   C     0.50373   0.37594   0.16840   0.00000  Uiso   1.00
C301   C     0.53664   0.52394   0.02706   0.00000  Uiso   1.00
C302   C     0.46313   0.47628   0.30632   0.00000  Uiso   1.00
C303   C     0.53639   0.52376   0.31263   0.00000  Uiso   1.00
C304   C     0.46364   0.47625   0.02079   0.00000  Uiso   1.00
C305   C     0.66550   0.44246   0.14379   0.00000  Uiso   1.00
C306   C     0.33521   0.55666   0.19048   0.00000  Uiso   1.00
C307   C     0.47043   0.62870   0.07811   0.00000  Uiso   1.00
C308   C     0.49822   0.57979   0.16600   0.00000  Uiso   1.00
C309   C     0.41443   0.60972   0.07470   0.00000  Uiso   1.00
C310   C     0.53044   0.37130   0.25488   0.00000  Uiso   1.00
C311   C     0.58650   0.39009   0.25738   0.00000  Uiso   1.00
C312   C     0.57804   0.55109   0.05470   0.00000  Uiso   1.00
C313   C     0.63146   0.53239   0.06015   0.00000  Uiso   1.00
C314   C     0.42153   0.44928   0.27873   0.00000  Uiso   1.00
C315   C     0.36818   0.46826   0.27297   0.00000  Uiso   1.00
C316   C     0.57605   0.55007   0.29252   0.00000  Uiso   1.00
C317   C     0.42447   0.44977   0.04124   0.00000  Uiso   1.00
C318   C     0.40103   0.49807   0.15599   0.00000  Uiso   1.00
C319   C     0.59903   0.50150   0.17734   0.00000  Uiso   1.00
C320   C     0.34738   0.48712   0.15527   0.00000  Uiso   1.00
C321   C     0.65271   0.51234   0.17793   0.00000  Uiso   1.00
C322   C     0.49384   0.35587   0.12718   0.00000  Uiso   1.00
C323   C     0.50565   0.64413   0.20604   0.00000  Uiso   1.00
C324   C     0.48783   0.64682   0.12439   0.00000  Uiso   1.00
H325   H     0.48994   0.37338   0.09648   0.00000  Uiso   1.00
H326   H     0.61375   0.36581   0.25155   0.00000  Uiso   1.00
H327   H     0.59019   0.41493   0.23213   0.00000  Uiso   1.00
H328   H     0.59822   0.40343   0.29112   0.00000  Uiso   1.00
H329   H     0.50326   0.39375   0.26503   0.00000  Uiso   1.00
H330   H     0.53033   0.34700   0.28132   0.00000  Uiso   1.00
H331   H     0.62697   0.49893   0.06780   0.00000  Uiso   1.00
H332   H     0.65180   0.53678   0.02987   0.00000  Uiso   1.00
H333   H     0.65665   0.54803   0.08802   0.00000  Uiso   1.00
H334   H     0.58144   0.58254   0.03993   0.00000  Uiso   1.00
H335   H     0.56744   0.55641   0.08805   0.00000  Uiso   1.00
H336   H     0.50914   0.62661   0.23675   0.00000  Uiso   1.00
H337   H     0.34685   0.46276   0.30248   0.00000  Uiso   1.00
H338   H     0.37260   0.50202   0.26667   0.00000  Uiso   1.00
H339   H     0.34361   0.45335   0.24432   0.00000  Uiso   1.00
H340   H     0.43238   0.44362   0.24550   0.00000  Uiso   1.00
H341   H     0.41779   0.41793   0.29375   0.00000  Uiso   1.00
H342   H     0.60146   0.60799   0.27743   0.00000  Uiso   1.00
H343   H     0.34966   0.44242   0.05431   0.00000  Uiso   1.00
H344   H     0.60997   0.39596   0.13379   0.00000  Uiso   1.00
H345   H     0.38844   0.60498   0.19260   0.00000  Uiso   1.00
H346   H     0.40303   0.59735   0.04047   0.00000  Uiso   1.00
H347   H     0.41073   0.58407   0.09896   0.00000  Uiso   1.00
H348   H     0.38697   0.63362   0.08125   0.00000  Uiso   1.00
H349   H     0.47095   0.65304   0.05175   0.00000  Uiso   1.00
H350   H     0.49797   0.60639   0.06834   0.00000  Uiso   1.00
N351   N     0.49999   0.49999   0.28573   0.00000  Uiso   1.00
N352   N     0.50001   0.50001   0.04760   0.00000  Uiso   1.00
O353   O     0.50000   0.43892   0.20487   0.00000  Uiso   1.00
O354   O     0.61377   0.42644   0.14151   0.00000  Uiso   1.00
O355   O     0.63706   0.57800   0.20564   0.00000  Uiso   1.00
O356   O     0.38402   0.57490   0.18329   0.00000  Uiso   1.00
O357   O     0.61694   0.53567   0.28498   0.00000  Uiso   1.00
O358   O     0.56992   0.59246   0.28820   0.00000  Uiso   1.00
O359   O     0.43208   0.41336   0.04840   0.00000  Uiso   1.00
O360   O     0.37621   0.46506   0.04709   0.00000  Uiso   1.00
O361   O     0.50000   0.56108   0.12846   0.00000  Uiso   1.00
O362   O     0.50000   0.43893   0.12843   0.00000  Uiso   1.00
O363   O     0.50000   0.56107   0.20490   0.00000  Uiso   1.00
O364   O     0.42392   0.50000   0.19595   0.00000  Uiso   1.00
O365   O     0.57608   0.50000   0.13739   0.00000  Uiso   1.00
O366   O     0.42392   0.50000   0.11950   0.00000  Uiso   1.00
O367   O     0.57608   0.50000   0.21383   0.00000  Uiso   1.00
O368   O     0.36627   0.41912   0.13712   0.00000  Uiso   1.00
Zn369  Zn    0.50000   0.49999   0.21771   0.00000  Uiso   1.00
Zn370  Zn    0.50000   0.50001   0.11563   0.00000  Uiso   1.00
C371   C     0.83511   0.42021   0.16731   0.00000  Uiso   1.00
C372   C     0.84545   0.35316   0.20879   0.00000  Uiso   1.00
C373   C     0.82941   0.62404   0.16482   0.00000  Uiso   1.00
C374   C     0.83706   0.37594   0.16840   0.00000  Uiso   1.00
C375   C     0.86997   0.52394   0.02706   0.00000  Uiso   1.00
C376   C     0.79646   0.47628   0.30632   0.00000  Uiso   1.00
C377   C     0.86973   0.52376   0.31263   0.00000  Uiso   1.00
C378   C     0.79697   0.47625   0.02079   0.00000  Uiso   1.00
C379   C     0.99883   0.44246   0.14379   0.00000  Uiso   1.00
C380   C     0.66854   0.55666   0.19048   0.00000  Uiso   1.00
C381   C     0.80376   0.62870   0.07811   0.00000  Uiso   1.00
C382   C     0.83155   0.57979   0.16600   0.00000  Uiso   1.00
C383   C     0.74776   0.60972   0.07470   0.00000  Uiso   1.00
C384   C     0.86378   0.37130   0.25488   0.00000  Uiso   1.00
C385   C     0.91984   0.39009   0.25738   0.00000  Uiso   1.00
C386   C     0.91137   0.55109   0.05470   0.00000  Uiso   1.00
C387   C     0.96479   0.53239   0.06015   0.00000  Uiso   1.00
C388   C     0.75486   0.44928   0.27873   0.00000  Uiso   1.00
C389   C     0.70152   0.46826   0.27297   0.00000  Uiso   1.00
C390   C     0.90938   0.55007   0.29252   0.00000  Uiso   1.00
C391   C     0.75781   0.44977   0.04124   0.00000  Uiso   1.00
C392   C     0.73436   0.49807   0.15599   0.00000  Uiso   1.00
C393   C     0.93237   0.50150   0.17734   0.00000  Uiso   1.00
C394   C     0.68072   0.48712   0.15527   0.00000  Uiso   1.00
C395   C     0.98605   0.51234   0.17793   0.00000  Uiso   1.00
C396   C     0.82717   0.35587   0.12718   0.00000  Uiso   1.00
C397   C     0.83898   0.64413   0.20604   0.00000  Uiso   1.00
C398   C     0.82116   0.64682   0.12439   0.00000  Uiso   1.00
H399   H     0.82328   0.37338   0.09648   0.00000  Uiso   1.00
H400   H     0.94709   0.36581   0.25155   0.00000  Uiso   1.00
H401   H     0.92353   0.41493   0.23213   0.00000  Uiso   1.00
H402   H     0.93156   0.40343   0.29112   0.00000  Uiso   1.00
H403   H     0.83659   0.39375   0.26503   0.00000  Uiso   1.00
H404   H     0.86366   0.34700   0.28132   0.00000  Uiso   1.00
H405   H     0.96030   0.49893   0.06780   0.00000  Uiso   1.00
H406   H     0.98514   0.53678   0.02987   0.00000  Uiso   1.00
H407   H     0.98998   0.54803   0.08802   0.00000  Uiso   1.00
H408   H     0.91478   0.58254   0.03993   0.00000  Uiso   1.00
H409   H     0.90078   0.55641   0.08805   0.00000  Uiso   1.00
H410   H     0.84247   0.62661   0.23675   0.00000  Uiso   1.00
H411   H     0.68018   0.46276   0.30248   0.00000  Uiso   1.00
H412   H     0.70593   0.50202   0.26667   0.00000  Uiso   1.00
H413   H     0.67694   0.45335   0.24432   0.00000  Uiso   1.00
H414   H     0.76571   0.44362   0.24550   0.00000  Uiso   1.00
H415   H     0.75113   0.41793   0.29375   0.00000  Uiso   1.00
H416   H     0.93479   0.60799   0.27743   0.00000  Uiso   1.00
H417   H     0.68300   0.44242   0.05431   0.00000  Uiso   1.00
H418   H     0.94330   0.39596   0.13379   0.00000  Uiso   1.00
H419   H     0.72178   0.60498   0.19260   0.00000  Uiso   1.00
H420   H     0.73636   0.59735   0.04047   0.00000  Uiso   1.00
H421   H     0.74407   0.58407   0.09896   0.00000  Uiso   1.00
H422   H     0.72030   0.63362   0.08125   0.00000  Uiso   1.00
H423   H     0.80429   0.65304   0.05175   0.00000  Uiso   1.00
H424   H     0.83130   0.60639   0.06834   0.00000  Uiso   1.00
N425   N     0.83332   0.49999   0.28573   0.00000  Uiso   1.00
N426   N     0.83335   0.50001   0.04760   0.00000  Uiso   1.00
O427   O     0.83333   0.43892   0.20487   0.00000  Uiso   1.00
O428   O     0.94711   0.42644   0.14151   0.00000  Uiso   1.00
O429   O     0.97039   0.57800   0.20564   0.00000  Uiso   1.00
O430   O     0.71735   0.57490   0.18329   0.00000  Uiso   1.00
O431   O     0.95027   0.53567   0.28498   0.00000  Uiso   1.00
O432   O     0.90325   0.59246   0.28820   0.00000  Uiso   1.00
O433   O     0.76541   0.41336   0.04840   0.00000  Uiso   1.00
O434   O     0.70955   0.46506   0.04709   0.00000  Uiso   1.00
O435   O     0.83334   0.56108   0.12846   0.00000  Uiso   1.00
O436   O     0.83333   0.43893   0.12843   0.00000  Uiso   1.00
O437   O     0.83334   0.56107   0.20490   0.00000  Uiso   1.00
O438   O     0.75725   0.50000   0.19595   0.00000  Uiso   1.00
O439   O     0.90942   0.50000   0.13739   0.00000  Uiso   1.00
O440   O     0.75725   0.50000   0.11950   0.00000  Uiso   1.00
O441   O     0.90942   0.50000   0.21383   0.00000  Uiso   1.00
O442   O     0.69960   0.41912   0.13712   0.00000  Uiso   1.00
Zn443  Zn    0.83333   0.49999   0.21771   0.00000  Uiso   1.00
Zn444  Zn    0.83333   0.50001   0.11563   0.00000  Uiso   1.00
C445   C     0.16845   0.75354   0.16731   0.00000  Uiso   1.00
C446   C     0.17879   0.68649   0.20879   0.00000  Uiso   1.00
C447   C     0.16275   0.95738   0.16482   0.00000  Uiso   1.00
C448   C     0.17039   0.70928   0.16840   0.00000  Uiso   1.00
C449   C     0.20330   0.85728   0.02706   0.00000  Uiso   1.00
C450   C     0.12979   0.80961   0.30632   0.00000  Uiso   1.00
C451   C     0.20306   0.85710   0.31263   0.00000  Uiso   1.00
C452   C     0.13031   0.80959   0.02079   0.00000  Uiso   1.00
C453   C     0.33217   0.77580   0.14379   0.00000  Uiso   1.00
C454   C     0.00188   0.88999   0.19048   0.00000  Uiso   1.00
C455   C     0.13710   0.96203   0.07811   0.00000  Uiso   1.00
C456   C     0.16489   0.91312   0.16600   0.00000  Uiso   1.00
C457   C     0.08110   0.94306   0.07470   0.00000  Uiso   1.00
C458   C     0.19711   0.70463   0.25488   0.00000  Uiso   1.00
C459   C     0.25317   0.72342   0.25738   0.00000  Uiso   1.00
C460   C     0.24471   0.88443   0.05470   0.00000  Uiso   1.00
C461   C     0.29813   0.86573   0.06015   0.00000  Uiso   1.00
C462   C     0.08820   0.78261   0.27873   0.00000  Uiso   1.00
C463   C     0.03485   0.80160   0.27297   0.00000  Uiso   1.00
C464   C     0.24271   0.88340   0.29252   0.00000  Uiso   1.00
C465   C     0.09114   0.78310   0.04124   0.00000  Uiso   1.00
C466   C     0.06770   0.83140   0.15599   0.00000  Uiso   1.00
C467   C     0.26570   0.83484   0.17734   0.00000  Uiso   1.00
C468   C     0.01405   0.82045   0.15527   0.00000  Uiso   1.00
C469   C     0.31938   0.84567   0.17793   0.00000  Uiso   1.00
C470   C     0.16051   0.68920   0.12718   0.00000  Uiso   1.00
C471   C     0.17232   0.97746   0.20604   0.00000  Uiso   1.00
C472   C     0.15450   0.98015   0.12439   0.00000  Uiso   1.00
H473   H     0.15661   0.70671   0.09648   0.00000  Uiso   1.00
H474   H     0.28042   0.69914   0.25155   0.00000  Uiso   1.00
H475   H     0.25686   0.74826   0.23213   0.00000  Uiso   1.00
H476   H     0.26489   0.73676   0.29112   0.00000  Uiso   1.00
H477   H     0.16992   0.72708   0.26503   0.00000  Uiso   1.00
H478   H     0.19699   0.68033   0.28132   0.00000  Uiso   1.00
H479   H     0.29363   0.83226   0.06780   0.00000  Uiso   1.00
H480   H     0.31847   0.87011   0.02987   0.00000  Uiso   1.00
H481   H     0.32332   0.88136   0.08802   0.00000  Uiso   1.00
H482   H     0.24811   0.91587   0.03993   0.00000  Uiso   1.00
H483   H     0.23411   0.88974   0.08805   0.00000  Uiso   1.00
H484   H     0.17581   0.95994   0.23675   0.00000  Uiso   1.00
H485   H     0.01351   0.79609   0.30248   0.00000  Uiso   1.00
H486   H     0.03926   0.83536   0.26667   0.00000  Uiso   1.00
H487   H     0.01028   0.78668   0.24432   0.00000  Uiso   1.00
H488   H     0.09905   0.77695   0.24550   0.00000  Uiso   1.00
H489   H     0.08446   0.75127   0.29375   0.00000  Uiso   1.00
H490   H     0.26813   0.94133   0.27743   0.00000  Uiso   1.00
H491   H     0.01633   0.77575   0.05431   0.00000  Uiso   1.00
H492   H     0.27663   0.72929   0.13379   0.00000  Uiso   1.00
H493   H     0.05511   0.93832   0.19260   0.00000  Uiso   1.00
H494   H     0.06970   0.93068   0.04047   0.00000  Uiso   1.00
H495   H     0.07740   0.91740   0.09896   0.00000  Uiso   1.00
H496   H     0.05364   0.96695   0.08125   0.00000  Uiso   1.00
H497   H     0.13762   0.98638   0.05175   0.00000  Uiso   1.00
H498   H     0.16464   0.93972   0.06834   0.00000  Uiso   1.00
N499   N     0.16665   0.83332   0.28573   0.00000  Uiso   1.00
N500   N     0.16668   0.83334   0.04760   0.00000  Uiso   1.00
O501   O     0.16666   0.77225   0.20487   0.00000  Uiso   1.00
O502   O     0.28044   0.75978   0.14151   0.00000  Uiso   1.00
O503   O     0.30372   0.91134   0.20564   0.00000  Uiso   1.00
O504   O     0.05068   0.90823   0.18329   0.00000  Uiso   1.00
O505   O     0.28360   0.86900   0.28498   0.00000  Uiso   1.00
O506   O     0.23659   0.92579   0.28820   0.00000  Uiso   1.00
O507   O     0.09874   0.74669   0.04840   0.00000  Uiso   1.00
O508   O     0.04288   0.79839   0.04709   0.00000  Uiso   1.00
O509   O     0.16667   0.89442   0.12846   0.00000  Uiso   1.00
O510   O     0.16666   0.77226   0.12843   0.00000  Uiso   1.00
O511   O     0.16667   0.89441   0.20490   0.00000  Uiso   1.00
O512   O     0.09058   0.83333   0.19595   0.00000  Uiso   1.00
O513   O     0.24275   0.83334   0.13739   0.00000  Uiso   1.00
O514   O     0.09058   0.83334   0.11950   0.00000  Uiso   1.00
O515   O     0.24275   0.83333   0.21383   0.00000  Uiso   1.00
O516   O     0.03294   0.75246   0.13712   0.00000  Uiso   1.00
Zn517  Zn    0.16667   0.83333   0.21771   0.00000  Uiso   1.00
Zn518  Zn    0.16667   0.83334   0.11563   0.00000  Uiso   1.00
C519   C     0.50178   0.75354   0.16731   0.00000  Uiso   1.00
C520   C     0.51212   0.68649   0.20879   0.00000  Uiso   1.00
C521   C     0.49608   0.95738   0.16482   0.00000  Uiso   1.00
C522   C     0.50373   0.70928   0.16840   0.00000  Uiso   1.00
C523   C     0.53664   0.85728   0.02706   0.00000  Uiso   1.00
C524   C     0.46313   0.80961   0.30632   0.00000  Uiso   1.00
C525   C     0.53639   0.85710   0.31263   0.00000  Uiso   1.00
C526   C     0.46364   0.80959   0.02079   0.00000  Uiso   1.00
C527   C     0.66550   0.77580   0.14379   0.00000  Uiso   1.00
C528   C     0.33521   0.88999   0.19048   0.00000  Uiso   1.00
C529   C     0.47043   0.96203   0.07811   0.00000  Uiso   1.00
C530   C     0.49822   0.91312   0.16600   0.00000  Uiso   1.00
C531   C     0.41443   0.94306   0.07470   0.00000  Uiso   1.00
C532   C     0.53044   0.70463   0.25488   0.00000  Uiso   1.00
C533   C     0.58650   0.72342   0.25738   0.00000  Uiso   1.00
C534   C     0.57804   0.88443   0.05470   0.00000  Uiso   1.00
C535   C     0.63146   0.86573   0.06015   0.00000  Uiso   1.00
C536   C     0.42153   0.78261   0.27873   0.00000  Uiso   1.00
C537   C     0.36818   0.80160   0.27297   0.00000  Uiso   1.00
C538   C     0.57605   0.88340   0.29252   0.00000  Uiso   1.00
C539   C     0.42447   0.78310   0.04124   0.00000  Uiso   1.00
C540   C     0.40103   0.83140   0.15599   0.00000  Uiso   1.00
C541   C     0.59903   0.83484   0.17734   0.00000  Uiso   1.00
C542   C     0.34738   0.82045   0.15527   0.00000  Uiso   1.00
C543   C     0.65271   0.84567   0.17793   0.00000  Uiso   1.00
C544   C     0.49384   0.68920   0.12718   0.00000  Uiso   1.00
C545   C     0.50565   0.97746   0.20604   0.00000  Uiso   1.00
C546   C     0.48783   0.98015   0.12439   0.00000  Uiso   1.00
H547   H     0.48994   0.70671   0.09648   0.00000  Uiso   1.00
H548   H     0.61375   0.69914   0.25155   0.00000  Uiso   1.00
H549   H     0.59019   0.74826   0.23213   0.00000  Uiso   1.00
H550   H     0.59822   0.73676   0.29112   0.00000  Uiso   1.00
H551   H     0.50326   0.72708   0.26503   0.00000  Uiso   1.00
H552   H     0.53033   0.68033   0.28132   0.00000  Uiso   1.00
H553   H     0.62697   0.83226   0.06780   0.00000  Uiso   1.00
H554   H     0.65180   0.87011   0.02987   0.00000  Uiso   1.00
H555   H     0.65665   0.88136   0.08802   0.00000  Uiso   1.00
H556   H     0.58144   0.91587   0.03993   0.00000  Uiso   1.00
H557   H     0.56744   0.88974   0.08805   0.00000  Uiso   1.00
H558   H     0.50914   0.95994   0.23675   0.00000  Uiso   1.00
H559   H     0.34685   0.79609   0.30248   0.00000  Uiso   1.00
H560   H     0.37260   0.83536   0.26667   0.00000  Uiso   1.00
H561   H     0.34361   0.78668   0.24432   0.00000  Uiso   1.00
H562   H     0.43238   0.77695   0.24550   0.00000  Uiso   1.00
H563   H     0.41779   0.75127   0.29375   0.00000  Uiso   1.00
H564   H     0.60146   0.94133   0.27743   0.00000  Uiso   1.00
H565   H     0.34966   0.77575   0.05431   0.00000  Uiso   1.00
H566   H     0.60997   0.72929   0.13379   0.00000  Uiso   1.00
H567   H     0.38844   0.93832   0.19260   0.00000  Uiso   1.00
H568   H     0.40303   0.93068   0.04047   0.00000  Uiso   1.00
H569   H     0.41073   0.91740   0.09896   0.00000  Uiso   1.00
H570   H     0.38697   0.96695   0.08125   0.00000  Uiso   1.00
H571   H     0.47095   0.98638   0.05175   0.00000  Uiso   1.00
H572   H     0.49797   0.93972   0.06834   0.00000  Uiso   1.00
N573   N     0.49999   0.83332   0.28573   0.00000  Uiso   1.00
N574   N     0.50001   0.83334   0.04760   0.00000  Uiso   1.00
O575   O     0.50000   0.77225   0.20487   0.00000  Uiso   1.00
O576   O     0.61377   0.75978   0.14151   0.00000  Uiso   1.00
O577   O     0.63706   0.91134   0.20564   0.00000  Uiso   1.00
O578   O     0.38402   0.90823   0.18329   0.00000  Uiso   1.00
O579   O     0.61694   0.86900   0.28498   0.00000  Uiso   1.00
O580   O     0.56992   0.92579   0.28820   0.00000  Uiso   1.00
O581   O     0.43208   0.74669   0.04840   0.00000  Uiso   1.00
O582   O     0.37621   0.79839   0.04709   0.00000  Uiso   1.00
O583   O     0.50000   0.89442   0.12846   0.00000  Uiso   1.00
O584   O     0.50000   0.77226   0.12843   0.00000  Uiso   1.00
O585   O     0.50000   0.89441   0.20490   0.00000  Uiso   1.00
O586   O     0.42392   0.83333   0.19595   0.00000  Uiso   1.00
O587   O     0.57608   0.83334   0.13739   0.00000  Uiso   1.00
O588   O     0.42392   0.83334   0.11950   0.00000  Uiso   1.00
O589   O     0.57608   0.83333   0.21383   0.00000  Uiso   1.00
O590   O     0.36627   0.75246   0.13712   0.00000  Uiso   1.00
Zn591  Zn    0.50000   0.83333   0.21771   0.00000  Uiso   1.00
Zn592  Zn    0.50000   0.83334   0.11563   0.00000  Uiso   1.00
C593   C     0.83511   0.75354   0.16731   0.00000  Uiso   1.00
C594   C     0.84545   0.68649   0.20879   0.00000  Uiso   1.00
C595   C     0.82941   0.95738   0.16482   0.00000  Uiso   1.00
C596   C     0.83706   0.70928   0.16840   0.00000  Uiso   1.00
C597   C     0.86997   0.85728   0.02706   0.00000  Uiso   1.00
C598   C     0.79646   0.80961   0.30632   0.00000  Uiso   1.00
C599   C     0.86973   0.85710   0.31263   0.00000  Uiso   1.00
C600   C     0.79697   0.80959   0.02079   0.00000  Uiso   1.00
C601   C     0.99883   0.77580   0.14379   0.00000  Uiso   1.00
C602   C     0.66854   0.88999   0.19048   0.00000  Uiso   1.00
C603   C     0.80376   0.96203   0.07811   0.00000  Uiso   1.00
C604   C     0.83155   0.91312   0.16600   0.00000  Uiso   1.00
C605   C     0.74776   0.94306   0.07470   0.00000  Uiso   1.00
C606   C     0.86378   0.70463   0.25488   0.00000  Uiso   1.00
C607   C     0.91984   0.72342   0.25738   0.00000  Uiso   1.00
C608   C     0.91137   0.88443   0.05470   0.00000  Uiso   1.00
C609   C     0.96479   0.86573   0.06015   0.00000  Uiso   1.00
C610   C     0.75486   0.78261   0.27873   0.00000  Uiso   1.00
C611   C     0.70152   0.80160   0.27297   0.00000  Uiso   1.00
C612   C     0.90938   0.88340   0.29252   0.00000  Uiso   1.00
C613   C     0.75781   0.78310   0.04124   0.00000  Uiso   1.00
C614   C     0.73436   0.83140   0.15599   0.00000  Uiso   1.00
C615   C     0.93237   0.83484   0.17734   0.00000  Uiso   1.00
C616   C     0.68072   0.82045   0.15527   0.00000  Uiso   1.00
C617   C     0.98605   0.84567   0.17793   0.00000  Uiso   1.00
C618   C     0.82717   0.68920   0.12718   0.00000  Uiso   1.00
C619   C     0.83898   0.97746   0.20604   0.00000  Uiso   1.00
C620   C     0.82116   0.98015   0.12439   0.00000  Uiso   1.00
H621   H     0.82328   0.70671   0.09648   0.00000  Uiso   1.00
H622   H     0.94709   0.69914   0.25155   0.00000  Uiso   1.00
H623   H     0.92353   0.74826   0.23213   0.00000  Uiso   1.00
H624   H     0.93156   0.73676   0.29112   0.00000  Uiso   1.00
H625   H     0.83659   0.72708   0.26503   0.00000  Uiso   1.00
H626   H     0.86366   0.68033   0.28132   0.00000  Uiso   1.00
H627   H     0.96030   0.83226   0.06780   0.00000  Uiso   1.00
H628   H     0.98514   0.87011   0.02987   0.00000  Uiso   1.00
H629   H     0.98998   0.88136   0.08802   0.00000  Uiso   1.00
H630   H     0.91478   0.91587   0.03993   0.00000  Uiso   1.00
H631   H     0.90078   0.88974   0.08805   0.00000  Uiso   1.00
H632   H     0.84247   0.95994   0.23675   0.00000  Uiso   1.00
H633   H     0.68018   0.79609   0.30248   0.00000  Uiso   1.00
H634   H     0.70593   0.83536   0.26667   0.00000  Uiso   1.00
H635   H     0.67694   0.78668   0.24432   0.00000  Uiso   1.00
H636   H     0.76571   0.77695   0.24550   0.00000  Uiso   1.00
H637   H     0.75113   0.75127   0.29375   0.00000  Uiso   1.00
H638   H     0.93479   0.94133   0.27743   0.00000  Uiso   1.00
H639   H     0.68300   0.77575   0.05431   0.00000  Uiso   1.00
H640   H     0.94330   0.72929   0.13379   0.00000  Uiso   1.00
H641   H     0.72178   0.93832   0.19260   0.00000  Uiso   1.00
H642   H     0.73636   0.93068   0.04047   0.00000  Uiso   1.00
H643   H     0.74407   0.91740   0.09896   0.00000  Uiso   1.00
H644   H     0.72030   0.96695   0.08125   0.00000  Uiso   1.00
H645   H     0.80429   0.98638   0.05175   0.00000  Uiso   1.00
H646   H     0.83130   0.93972   0.06834   0.00000  Uiso   1.00
N647   N     0.83332   0.83332   0.28573   0.00000  Uiso   1.00
N648   N     0.83335   0.83334   0.04760   0.00000  Uiso   1.00
O649   O     0.83333   0.77225   0.20487   0.00000  Uiso   1.00
O650   O     0.94711   0.75978   0.14151   0.00000  Uiso   1.00
O651   O     0.97039   0.91134   0.20564   0.00000  Uiso   1.00
O652   O     0.71735   0.90823   0.18329   0.00000  Uiso   1.00
O653   O     0.95027   0.86900   0.28498   0.00000  Uiso   1.00
O654   O     0.90325   0.92579   0.28820   0.00000  Uiso   1.00
O655   O     0.76541   0.74669   0.04840   0.00000  Uiso   1.00
O656   O     0.70955   0.79839   0.04709   0.00000  Uiso   1.00
O657   O     0.83334   0.89442   0.12846   0.00000  Uiso   1.00
O658   O     0.83333   0.77226   0.12843   0.00000  Uiso   1.00
O659   O     0.83334   0.89441   0.20490   0.00000  Uiso   1.00
O660   O     0.75725   0.83333   0.19595   0.00000  Uiso   1.00
O661   O     0.90942   0.83334   0.13739   0.00000  Uiso   1.00
O662   O     0.75725   0.83334   0.11950   0.00000  Uiso   1.00
O663   O     0.90942   0.83333   0.21383   0.00000  Uiso   1.00
O664   O     0.69960   0.75246   0.13712   0.00000  Uiso   1.00
Zn665  Zn    0.83333   0.83333   0.21771   0.00000  Uiso   1.00
Zn666  Zn    0.83333   0.83334   0.11563   0.00000  Uiso   1.00
C667   C     0.16845   0.08688   0.50065   0.00000  Uiso   1.00
C668   C     0.17879   0.01982   0.54212   0.00000  Uiso   1.00
C669   C     0.16275   0.29071   0.49815   0.00000  Uiso   1.00
C670   C     0.17039   0.04261   0.50174   0.00000  Uiso   1.00
C671   C     0.20330   0.19061   0.36039   0.00000  Uiso   1.00
C672   C     0.12979   0.14295   0.63965   0.00000  Uiso   1.00
C673   C     0.20306   0.19043   0.64597   0.00000  Uiso   1.00
C674   C     0.13031   0.14292   0.35412   0.00000  Uiso   1.00
C675   C     0.33217   0.10913   0.47712   0.00000  Uiso   1.00
C676   C     0.00188   0.22333   0.52382   0.00000  Uiso   1.00
C677   C     0.13710   0.29536   0.41144   0.00000  Uiso   1.00
C678   C     0.16489   0.24646   0.49933   0.00000  Uiso   1.00
C679   C     0.08110   0.27639   0.40803   0.00000  Uiso   1.00
C680   C     0.19711   0.03797   0.58822   0.00000  Uiso   1.00
C681   C     0.25317   0.05675   0.59071   0.00000  Uiso   1.00
C682   C     0.24471   0.21776   0.38803   0.00000  Uiso   1.00
C683   C     0.29813   0.19906   0.39348   0.00000  Uiso   1.00
C684   C     0.08820   0.11594   0.61207   0.00000  Uiso   1.00
C685   C     0.03485   0.13493   0.60631   0.00000  Uiso   1.00
C686   C     0.24271   0.21674   0.62586   0.00000  Uiso   1.00
C687   C     0.09114   0.11643   0.37457   0.00000  Uiso   1.00
C688   C     0.06770   0.16474   0.48932   0.00000  Uiso   1.00
C689   C     0.26570   0.16817   0.51068   0.00000  Uiso   1.00
C690   C     0.01405   0.15379   0.48860   0.00000  Uiso   1.00
C691   C     0.31938   0.17901   0.51126   0.00000  Uiso   1.00
C692   C     0.16051   0.02253   0.46052   0.00000  Uiso   1.00
C693   C     0.17232   0.31080   0.53937   0.00000  Uiso   1.00
C694   C     0.15450   0.31349   0.45772   0.00000  Uiso   1.00
H695   H     0.15661   0.04005   0.42981   0.00000  Uiso   1.00
H696   H     0.28042   0.03247   0.58489   0.00000  Uiso   1.00
H697   H     0.25686   0.08160   0.56546   0.00000  Uiso   1.00
H698   H     0.26489   0.07009   0.62445   0.00000  Uiso   1.00
H699   H     0.16992   0.06041   0.59837   0.00000  Uiso   1.00
H700   H     0.19699   0.01366   0.61465   0.00000  Uiso   1.00
H701   H     0.29363   0.16560   0.40113   0.00000  Uiso   1.00
H702   H     0.31847   0.20344   0.36320   0.00000  Uiso   1.00
H703   H     0.32332   0.21469   0.42135   0.00000  Uiso   1.00
H704   H     0.24811   0.24920   0.37327   0.00000  Uiso   1.00
H705   H     0.23411   0.22307   0.42139   0.00000  Uiso   1.00
H706   H     0.17581   0.29328   0.57009   0.00000  Uiso   1.00
H707   H     0.01351   0.12943   0.63582   0.00000  Uiso   1.00
H708   H     0.03926   0.16869   0.60001   0.00000  Uiso   1.00
H709   H     0.01028   0.12001   0.57765   0.00000  Uiso   1.00
H710   H     0.09905   0.11028   0.57883   0.00000  Uiso   1.00
H711   H     0.08446   0.08460   0.62709   0.00000  Uiso   1.00
H712   H     0.26813   0.27466   0.61076   0.00000  Uiso   1.00
H713   H     0.01633   0.10908   0.38765   0.00000  Uiso   1.00
H714   H     0.27663   0.06263   0.46712   0.00000  Uiso   1.00
H715   H     0.05511   0.27165   0.52594   0.00000  Uiso   1.00
H716   H     0.06970   0.26402   0.37381   0.00000  Uiso   1.00
H717   H     0.07740   0.25073   0.43229   0.00000  Uiso   1.00
H718   H     0.05364   0.30028   0.41459   0.00000  Uiso   1.00
H719   H     0.13762   0.31971   0.38508   0.00000  Uiso   1.00
H720   H     0.16464   0.27306   0.40167   0.00000  Uiso   1.00
N721   N     0.16665   0.16666   0.61907   0.00000  Uiso   1.00
N722   N     0.16668   0.16668   0.38093   0.00000  Uiso   1.00
O723   O     0.16666   0.10558   0.53821   0.00000  Uiso   1.00
O724   O     0.28044   0.09311   0.47484   0.00000  Uiso   1.00
O725   O     0.30372   0.24467   0.53897   0.00000  Uiso   1.00
O726   O     0.05068   0.24156   0.51662   0.00000  Uiso   1.00
O727   O     0.28360   0.20234   0.61831   0.00000  Uiso   1.00
O728   O     0.23659   0.25912   0.62153   0.00000  Uiso   1.00
O729   O     0.09874   0.08002   0.38173   0.00000  Uiso   1.00
O730   O     0.04288   0.13172   0.38043   0.00000  Uiso   1.00
O731   O     0.16667   0.22775   0.46179   0.00000  Uiso   1.00
O732   O     0.16666   0.10559   0.46176   0.00000  Uiso   1.00
O733   O     0.16667   0.22774   0.53824   0.00000  Uiso   1.00
O734   O     0.09058   0.16666   0.52928   0.00000  Uiso   1.00
O735   O     0.24275   0.16667   0.47072   0.00000  Uiso   1.00
O736   O     0.09058   0.16667   0.45284   0.00000  Uiso   1.00
O737   O     0.24275   0.16666   0.54716   0.00000  Uiso   1.00
O738   O     0.03294   0.08579   0.47045   0.00000  Uiso   1.00
Zn739  Zn    0.16667   0.16666   0.55104   0.00000  Uiso   1.00
Zn740  Zn    0.16667   0.16667   0.44896   0.00000  Uiso   1.00
C741   C     0.50178   0.08688   0.50065   0.00000  Uiso   1.00
C742   C     0.51212   0.01982   0.54212   0.00000  Uiso   1.00
C743   C     0.49608   0.29071   0.49815   0.00000  Uiso   1.00
C744   C     0.50373   0.04261   0.50174   0.00000  Uiso   1.00
C745   C     0.53664   0.19061   0.36039   0.00000  Uiso   1.00
C746   C     0.46313   0.14295   0.63965   0.00000  Uiso   1.00
C747   C     0.53639   0.19043   0.64597   0.00000  Uiso   1.00
C748   C     0.46364   0.14292   0.35412   0.00000  Uiso   1.00
C749   C     0.66550   0.10913   0.47712   0.00000  Uiso   1.00
C750   C     0.33521   0.22333   0.52382   0.00000  Uiso   1.00
C751   C     0.47043   0.29536   0.41144   0.00000  Uiso   1.00
C752   C     0.49822   0.24646   0.49933   0.00000  Uiso   1.00
C753   C     0.41443   0.27639   0.40803   0.00000  Uiso   1.00
C754   C     0.53044   0.03797   0.58822   0.00000  Uiso   1.00
C755   C     0.58650   0.05675   0.59071   0.00000  Uiso   1.00
C756   C     0.57804   0.21776   0.38803   0.00000  Uiso   1.00
C757   C     0.63146   0.19906   0.39348   0.00000  Uiso   1.00
C758   C     0.42153   0.11594   0.61207   0.00000  Uiso   1.00
C759   C     0.36818   0.13493   0.60631   0.00000  Uiso   1.00
C760   C     0.57605   0.21674   0.62586   0.00000  Uiso   1.00
C761   C     0.42447   0.11643   0.37457   0.00000  Uiso   1.00
C762   C     0.40103   0.16474   0.48932   0.00000  Uiso   1.00
C763   C     0.59903   0.16817   0.51068   0.00000  Uiso   1.00
C764   C     0.34738   0.15379   0.48860   0.00000  Uiso   1.00
C765   C     0.65271   0.17901   0.51126   0.00000  Uiso   1.00
C766   C     0.49384   0.02253   0.46052   0.00000  Uiso   1.00
C767   C     0.50565   0.31080   0.53937   0.00000  Uiso   1.00
C768   C     0.48783   0.31349   0.45772   0.00000  Uiso   1.00
H769   H     0.48994   0.04005   0.42981   0.00000  Uiso   1.00
H770   H     0.61375   0.03247   0.58489   0.00000  Uiso   1.00
H771   H     0.59019   0.08160   0.56546   0.00000  Uiso   1.00
H772   H     0.59822   0.07009   0.62445   0.00000  Uiso   1.00
H773   H     0.50326   0.06041   0.59837   0.00000  Uiso   1.00
H774   H     0.53033   0.01366   0.61465   0.00000  Uiso   1.00
H775   H     0.62697   0.16560   0.40113   0.00000  Uiso   1.00
H776   H     0.65180   0.20344   0.36320   0.00000  Uiso   1.00
H777   H     0.65665   0.21469   0.42135   0.00000  Uiso   1.00
H778   H     0.58144   0.24920   0.37327   0.00000  Uiso   1.00
H779   H     0.56744   0.22307   0.42139   0.00000  Uiso   1.00
H780   H     0.50914   0.29328   0.57009   0.00000  Uiso   1.00
H781   H     0.34685   0.12943   0.63582   0.00000  Uiso   1.00
H782   H     0.37260   0.16869   0.60001   0.00000  Uiso   1.00
H783   H     0.34361   0.12001   0.57765   0.00000  Uiso   1.00
H784   H     0.43238   0.11028   0.57883   0.00000  Uiso   1.00
H785   H     0.41779   0.08460   0.62709   0.00000  Uiso   1.00
H786   H     0.60146   0.27466   0.61076   0.00000  Uiso   1.00
H787   H     0.34966   0.10908   0.38765   0.00000  Uiso   1.00
H788   H     0.60997   0.06263   0.46712   0.00000  Uiso   1.00
H789   H     0.38844   0.27165   0.52594   0.00000  Uiso   1.00
H790   H     0.40303   0.26402   0.37381   0.00000  Uiso   1.00
H791   H     0.41073   0.25073   0.43229   0.00000  Uiso   1.00
H792   H     0.38697   0.30028   0.41459   0.00000  Uiso   1.00
H793   H     0.47095   0.31971   0.38508   0.00000  Uiso   1.00
H794   H     0.49797   0.27306   0.40167   0.00000  Uiso   1.00
N795   N     0.49999   0.16666   0.61907   0.00000  Uiso   1.00
N796   N     0.50001   0.16668   0.38093   0.00000  Uiso   1.00
O797   O     0.50000   0.10558   0.53821   0.00000  Uiso   1.00
O798   O     0.61377   0.09311   0.47484   0.00000  Uiso   1.00
O799   O     0.63706   0.24467   0.53897   0.00000  Uiso   1.00
O800   O     0.38402   0.24156   0.51662   0.00000  Uiso   1.00
O801   O     0.61694   0.20234   0.61831   0.00000  Uiso   1.00
O802   O     0.56992   0.25912   0.62153   0.00000  Uiso   1.00
O803   O     0.43208   0.08002   0.38173   0.00000  Uiso   1.00
O804   O     0.37621   0.13172   0.38043   0.00000  Uiso   1.00
O805   O     0.50000   0.22775   0.46179   0.00000  Uiso   1.00
O806   O     0.50000   0.10559   0.46176   0.00000  Uiso   1.00
O807   O     0.50000   0.22774   0.53824   0.00000  Uiso   1.00
O808   O     0.42392   0.16666   0.52928   0.00000  Uiso   1.00
O809   O     0.57608   0.16667   0.47072   0.00000  Uiso   1.00
O810   O     0.42392   0.16667   0.45284   0.00000  Uiso   1.00
O811   O     0.57608   0.16666   0.54716   0.00000  Uiso   1.00
O812   O     0.36627   0.08579   0.47045   0.00000  Uiso   1.00
Zn813  Zn    0.50000   0.16666   0.55104   0.00000  Uiso   1.00
Zn814  Zn    0.50000   0.16667   0.44896   0.00000  Uiso   1.00
C815   C     0.83511   0.08688   0.50065   0.00000  Uiso   1.00
C816   C     0.84545   0.01982   0.54212   0.00000  Uiso   1.00
C817   C     0.82941   0.29071   0.49815   0.00000  Uiso   1.00
C818   C     0.83706   0.04261   0.50174   0.00000  Uiso   1.00
C819   C     0.86997   0.19061   0.36039   0.00000  Uiso   1.00
C820   C     0.79646   0.14295   0.63965   0.00000  Uiso   1.00
C821   C     0.86973   0.19043   0.64597   0.00000  Uiso   1.00
C822   C     0.79697   0.14292   0.35412   0.00000  Uiso   1.00
C823   C     0.99883   0.10913   0.47712   0.00000  Uiso   1.00
C824   C     0.66854   0.22333   0.52382   0.00000  Uiso   1.00
C825   C     0.80376   0.29536   0.41144   0.00000  Uiso   1.00
C826   C     0.83155   0.24646   0.49933   0.00000  Uiso   1.00
C827   C     0.74776   0.27639   0.40803   0.00000  Uiso   1.00
C828   C     0.86378   0.03797   0.58822   0.00000  Uiso   1.00
C829   C     0.91984   0.05675   0.59071   0.00000  Uiso   1.00
C830   C     0.91137   0.21776   0.38803   0.00000  Uiso   1.00
C831   C     0.96479   0.19906   0.39348   0.00000  Uiso   1.00
C832   C     0.75486   0.11594   0.61207   0.00000  Uiso   1.00
C833   C     0.70152   0.13493   0.60631   0.00000  Uiso   1.00
C834   C     0.90938   0.21674   0.62586   0.00000  Uiso   1.00
C835   C     0.75781   0.11643   0.37457   0.00000  Uiso   1.00
C836   C     0.73436   0.16474   0.48932   0.00000  Uiso   1.00
C837   C     0.93237   0.16817   0.51068   0.00000  Uiso   1.00
C838   C     0.68072   0.15379   0.48860   0.00000  Uiso   1.00
C839   C     0.98605   0.17901   0.51126   0.00000  Uiso   1.00
C840   C     0.82717   0.02253   0.46052   0.00000  Uiso   1.00
C841   C     0.83898   0.31080   0.53937   0.00000  Uiso   1.00
C842   C     0.82116   0.31349   0.45772   0.00000  Uiso   1.00
H843   H     0.82328   0.04005   0.42981   0.00000  Uiso   1.00
H844   H     0.94709   0.03247   0.58489   0.00000  Uiso   1.00
H845   H     0.92353   0.08160   0.56546   0.00000  Uiso   1.00
H846   H     0.93156   0.07009   0.62445   0.00000  Uiso   1.00
H847   H     0.83659   0.06041   0.59837   0.00000  Uiso   1.00
H848   H     0.86366   0.01366   0.61465   0.00000  Uiso   1.00
H849   H     0.96030   0.16560   0.40113   0.00000  Uiso   1.00
H850   H     0.98514   0.20344   0.36320   0.00000  Uiso   1.00
H851   H     0.98998   0.21469   0.42135   0.00000  Uiso   1.00
H852   H     0.91478   0.24920   0.37327   0.00000  Uiso   1.00
H853   H     0.90078   0.22307   0.42139   0.00000  Uiso   1.00
H854   H     0.84247   0.29328   0.57009   0.00000  Uiso   1.00
H855   H     0.68018   0.12943   0.63582   0.00000  Uiso   1.00
H856   H     0.70593   0.16869   0.60001   0.00000  Uiso   1.00
H857   H     0.67694   0.12001   0.57765   0.00000  Uiso   1.00
H858   H     0.76571   0.11028   0.57883   0.00000  Uiso   1.00
H859   H     0.75113   0.08460   0.62709   0.00000  Uiso   1.00
H860   H     0.93479   0.27466   0.61076   0.00000  Uiso   1.00
H861   H     0.68300   0.10908   0.38765   0.00000  Uiso   1.00
H862   H     0.94330   0.06263   0.46712   0.00000  Uiso   1.00
H863   H     0.72178   0.27165   0.52594   0.00000  Uiso   1.00
H864   H     0.73636   0.26402   0.37381   0.00000  Uiso   1.00
H865   H     0.74407   0.25073   0.43229   0.00000  Uiso   1.00
H866   H     0.72030   0.30028   0.41459   0.00000  Uiso   1.00
H867   H     0.80429   0.31971   0.38508   0.00000  Uiso   1.00
H868   H     0.83130   0.27306   0.40167   0.00000  Uiso   1.00
N869   N     0.83332   0.16666   0.61907   0.00000  Uiso   1.00
N870   N     0.83335   0.16668   0.38093   0.00000  Uiso   1.00
O871   O     0.83333   0.10558   0.53821   0.00000  Uiso   1.00
O872   O     0.94711   0.09311   0.47484   0.00000  Uiso   1.00
O873   O     0.97039   0.24467   0.53897   0.00000  Uiso   1.00
O874   O     0.71735   0.24156   0.51662   0.00000  Uiso   1.00
O875   O     0.95027   0.20234   0.61831   0.00000  Uiso   1.00
O876   O     0.90325   0.25912   0.62153   0.00000  Uiso   1.00
O877   O     0.76541   0.08002   0.38173   0.00000  Uiso   1.00
O878   O     0.70955   0.13172   0.38043   0.00000  Uiso   1.00
O879   O     0.83334   0.22775   0.46179   0.00000  Uiso   1.00
O880   O     0.83333   0.10559   0.46176   0.00000  Uiso   1.00
O881   O     0.83334   0.22774   0.53824   0.00000  Uiso   1.00
O882   O     0.75725   0.16666   0.52928   0.00000  Uiso   1.00
O883   O     0.90942   0.16667   0.47072   0.00000  Uiso   1.00
O884   O     0.75725   0.16667   0.45284   0.00000  Uiso   1.00
O885   O     0.90942   0.16666   0.54716   0.00000  Uiso   1.00
O886   O     0.69960   0.08579   0.47045   0.00000  Uiso   1.00
Zn887  Zn    0.83333   0.16666   0.55104   0.00000  Uiso   1.00
Zn888  Zn    0.83333   0.16667   0.44896   0.00000  Uiso   1.00
C889   C     0.16845   0.42021   0.50065   0.00000  Uiso   1.00
C890   C     0.17879   0.35316   0.54212   0.00000  Uiso   1.00
C891   C     0.16275   0.62404   0.49815   0.00000  Uiso   1.00
C892   C     0.17039   0.37594   0.50174   0.00000  Uiso   1.00
C893   C     0.20330   0.52394   0.36039   0.00000  Uiso   1.00
C894   C     0.12979   0.47628   0.63965   0.00000  Uiso   1.00
C895   C     0.20306   0.52376   0.64597   0.00000  Uiso   1.00
C896   C     0.13031   0.47625   0.35412   0.00000  Uiso   1.00
C897   C     0.33217   0.44246   0.47712   0.00000  Uiso   1.00
C898   C     0.00188   0.55666   0.52382   0.00000  Uiso   1.00
C899   C     0.13710   0.62870   0.41144   0.00000  Uiso   1.00
C900   C     0.16489   0.57979   0.49933   0.00000  Uiso   1.00
C901   C     0.08110   0.60972   0.40803   0.00000  Uiso   1.00
C902   C     0.19711   0.37130   0.58822   0.00000  Uiso   1.00
C903   C     0.25317   0.39009   0.59071   0.00000  Uiso   1.00
C904   C     0.24471   0.55109   0.38803   0.00000  Uiso   1.00
C905   C     0.29813   0.53239   0.39348   0.00000  Uiso   1.00
C906   C     0.08820   0.44928   0.61207   0.00000  Uiso   1.00
C907   C     0.03485   0.46826   0.60631   0.00000  Uiso   1.00
C908   C     0.24271   0.55007   0.62586   0.00000  Uiso   1.00
C909   C     0.09114   0.44977   0.37457   0.00000  Uiso   1.00
C910   C     0.06770   0.49807   0.48932   0.00000  Uiso   1.00
C911   C     0.26570   0.50150   0.51068   0.00000  Uiso   1.00
C912   C     0.01405   0.48712   0.48860   0.00000  Uiso   1.00
C913   C     0.31938   0.51234   0.51126   0.00000  Uiso   1.00
C914   C     0.16051   0.35587   0.46052   0.00000  Uiso   1.00
C915   C     0.17232   0.64413   0.53937   0.00000  Uiso   1.00
C916   C     0.15450   0.64682   0.45772   0.00000  Uiso   1.00
H917   H     0.15661   0.37338   0.42981   0.00000  Uiso   1.00
H918   H     0.28042   0.36581   0.58489   0.00000  Uiso   1.00
H919   H     0.25686   0.41493   0.56546   0.00000  Uiso   1.00
H920   H     0.26489   0.40343   0.62445   0.00000  Uiso   1.00
H921   H     0.16992   0.39375   0.59837   0.00000  Uiso   1.00
H922   H     0.19699   0.34700   0.61465   0.00000  Uiso   1.00
H923   H     0.29363   0.49893   0.40113   0.00000  Uiso   1.00
H924   H     0.31847   0.53678   0.36320   0.00000  Uiso   1.00
H925   H     0.32332   0.54803   0.42135   0.00000  Uiso   1.00
H926   H     0.24811   0.58254   0.37327   0.00000  Uiso   1.00
H927   H     0.23411   0.55641   0.42139   0.00000  Uiso   1.00
H928   H     0.17581   0.62661   0.57009   0.00000  Uiso   1.00
H929   H     0.01351   0.46276   0.63582   0.00000  Uiso   1.00
H930   H     0.03926   0.50202   0.60001   0.00000  Uiso   1.00
H931   H     0.01028   0.45335   0.57765   0.00000  Uiso   1.00
H932   H     0.09905   0.44362   0.57883   0.00000  Uiso   1.00
H933   H     0.08446   0.41793   0.62709   0.00000  Uiso   1.00
H934   H     0.26813   0.60799   0.61076   0.00000  Uiso   1.00
H935   H     0.01633   0.44242   0.38765   0.00000  Uiso   1.00
H936   H     0.27663   0.39596   0.46712   0.00000  Uiso   1.00
H937   H     0.05511   0.60498   0.52594   0.00000  Uiso   1.00
H938   H     0.06970   0.59735   0.37381   0.00000  Uiso   1.00
H939   H     0.07740   0.58407   0.43229   0.00000  Uiso   1.00
H940   H     0.05364   0.63362   0.41459   0.00000  Uiso   1.00
H941   H     0.13762   0.65304   0.38508   0.00000  Uiso   1.00
H942   H     0.16464   0.60639   0.40167   0.00000  Uiso   1.00
N943   N     0.16665   0.49999   0.61907   0.00000  Uiso   1.00
N944   N     0.16668   0.50001   0.38093   0.00000  Uiso   1.00
O945   O     0.16666   0.43892   0.53821   0.00000  Uiso   1.00
O946   O     0.28044   0.42644   0.47484   0.00000  Uiso   1.00
O947   O     0.30372   0.57800   0.53897   0.00000  Uiso   1.00
O948   O     0.05068   0.57490   0.51662   0.00000  Uiso   1.00
O949   O     0.28360   0.53567   0.61831   0.00000  Uiso   1.00
O950   O     0.23659   0.59246   0.62153   0.00000  Uiso   1.00
O951   O     0.09874   0.41336   0.38173   0.00000  Uiso   1.00
O952   O     0.04288   0.46506   0.38043   0.00000  Uiso   1.00
O953   O     0.16667   0.56108   0.46179   0.00000  Uiso   1.00
O954   O     0.16666   0.43893   0.46176   0.00000  Uiso   1.00
O955   O     0.16667   0.56107   0.53824   0.00000  Uiso   1.00
O956   O     0.09058   0.50000   0.52928   0.00000  Uiso   1.00
O957   O     0.24275   0.50000   0.47072   0.00000  Uiso   1.00
O958   O     0.09058   0.50000   0.45284   0.00000  Uiso   1.00
O959   O     0.24275   0.50000   0.54716   0.00000  Uiso   1.00
O960   O     0.03294   0.41912   0.47045   0.00000  Uiso   1.00
Zn961  Zn    0.16667   0.49999   0.55104   0.00000  Uiso   1.00
Zn962  Zn    0.16667   0.50001   0.44896   0.00000  Uiso   1.00
C963   C     0.50178   0.42021   0.50065   0.00000  Uiso   1.00
C964   C     0.51212   0.35316   0.54212   0.00000  Uiso   1.00
C965   C     0.49608   0.62404   0.49815   0.00000  Uiso   1.00
C966   C     0.50373   0.37594   0.50174   0.00000  Uiso   1.00
C967   C     0.53664   0.52394   0.36039   0.00000  Uiso   1.00
C968   C     0.46313   0.47628   0.63965   0.00000  Uiso   1.00
C969   C     0.53639   0.52376   0.64597   0.00000  Uiso   1.00
C970   C     0.46364   0.47625   0.35412   0.00000  Uiso   1.00
C971   C     0.66550   0.44246   0.47712   0.00000  Uiso   1.00
C972   C     0.33521   0.55666   0.52382   0.00000  Uiso   1.00
C973   C     0.47043   0.62870   0.41144   0.00000  Uiso   1.00
C974   C     0.49822   0.57979   0.49933   0.00000  Uiso   1.00
C975   C     0.41443   0.60972   0.40803   0.00000  Uiso   1.00
C976   C     0.53044   0.37130   0.58822   0.00000  Uiso   1.00
C977   C     0.58650   0.39009   0.59071   0.00000  Uiso   1.00
C978   C     0.57804   0.55109   0.38803   0.00000  Uiso   1.00
C979   C     0.63146   0.53239   0.39348   0.00000  Uiso   1.00
C980   C     0.42153   0.44928   0.61207   0.00000  Uiso   1.00
C981   C     0.36818   0.46826   0.60631   0.00000  Uiso   1.00
C982   C     0.57605   0.55007   0.62586   0.00000  Uiso   1.00
C983   C     0.42447   0.44977   0.37457   0.00000  Uiso   1.00
C984   C     0.40103   0.49807   0.48932   0.00000  Uiso   1.00
C985   C     0.59903   0.50150   0.51068   0.00000  Uiso   1.00
C986   C     0.34738   0.48712   0.48860   0.00000  Uiso   1.00
C987   C     0.65271   0.51234   0.51126   0.00000  Uiso   1.00
C988   C     0.49384   0.35587   0.46052   0.00000  Uiso   1.00
C989   C     0.50565   0.64413   0.53937   0.00000  Uiso   1.00
C990   C     0.48783   0.64682   0.45772   0.00000  Uiso   1.00
H991   H     0.48994   0.37338   0.42981   0.00000  Uiso   1.00
H992   H     0.61375   0.36581   0.58489   0.00000  Uiso   1.00
H993   H     0.59019   0.41493   0.56546   0.00000  Uiso   1.00
H994   H     0.59822   0.40343   0.62445   0.00000  Uiso   1.00
H995   H     0.50326   0.39375   0.59837   0.00000  Uiso   1.00
H996   H     0.53033   0.34700   0.61465   0.00000  Uiso   1.00
H997   H     0.62697   0.49893   0.40113   0.00000  Uiso   1.00
H998   H     0.65180   0.53678   0.36320   0.00000  Uiso   1.00
H999   H     0.65665   0.54803   0.42135   0.00000  Uiso   1.00
H1000  H     0.58144   0.58254   0.37327   0.00000  Uiso   1.00
H1001  H     0.56744   0.55641   0.42139   0.00000  Uiso   1.00
H1002  H     0.50914   0.62661   0.57009   0.00000  Uiso   1.00
H1003  H     0.34685   0.46276   0.63582   0.00000  Uiso   1.00
H1004  H     0.37260   0.50202   0.60001   0.00000  Uiso   1.00
H1005  H     0.34361   0.45335   0.57765   0.00000  Uiso   1.00
H1006  H     0.43238   0.44362   0.57883   0.00000  Uiso   1.00
H1007  H     0.41779   0.41793   0.62709   0.00000  Uiso   1.00
H1008  H     0.60146   0.60799   0.61076   0.00000  Uiso   1.00
H1009  H     0.34966   0.44242   0.38765   0.00000  Uiso   1.00
H1010  H     0.60997   0.39596   0.46712   0.00000  Uiso   1.00
H1011  H     0.38844   0.60498   0.52594   0.00000  Uiso   1.00
H1012  H     0.40303   0.59735   0.37381   0.00000  Uiso   1.00
H1013  H     0.41073   0.58407   0.43229   0.00000  Uiso   1.00
H1014  H     0.38697   0.63362   0.41459   0.00000  Uiso   1.00
H1015  H     0.47095   0.65304   0.38508   0.00000  Uiso   1.00
H1016  H     0.49797   0.60639   0.40167   0.00000  Uiso   1.00
N1017  N     0.49999   0.49999   0.61907   0.00000  Uiso   1.00
N1018  N     0.50001   0.50001   0.38093   0.00000  Uiso   1.00
O1019  O     0.50000   0.43892   0.53821   0.00000  Uiso   1.00
O1020  O     0.61377   0.42644   0.47484   0.00000  Uiso   1.00
O1021  O     0.63706   0.57800   0.53897   0.00000  Uiso   1.00
O1022  O     0.38402   0.57490   0.51662   0.00000  Uiso   1.00
O1023  O     0.61694   0.53567   0.61831   0.00000  Uiso   1.00
O1024  O     0.56992   0.59246   0.62153   0.00000  Uiso   1.00
O1025  O     0.43208   0.41336   0.38173   0.00000  Uiso   1.00
O1026  O     0.37621   0.46506   0.38043   0.00000  Uiso   1.00
O1027  O     0.50000   0.56108   0.46179   0.00000  Uiso   1.00
O1028  O     0.50000   0.43893   0.46176   0.00000  Uiso   1.00
O1029  O     0.50000   0.56107   0.53824   0.00000  Uiso   1.00
O1030  O     0.42392   0.50000   0.52928   0.00000  Uiso   1.00
O1031  O     0.57608   0.50000   0.47072   0.00000  Uiso   1.00
O1032  O     0.42392   0.50000   0.45284   0.00000  Uiso   1.00
O1033  O     0.57608   0.50000   0.54716   0.00000  Uiso   1.00
O1034  O     0.36627   0.41912   0.47045   0.00000  Uiso   1.00
Zn1035 Zn    0.50000   0.49999   0.55104   0.00000  Uiso   1.00
Zn1036 Zn    0.50000   0.50001   0.44896   0.00000  Uiso   1.00
C1037  C     0.83511   0.42021   0.50065   0.00000  Uiso   1.00
C1038  C     0.84545   0.35316   0.54212   0.00000  Uiso   1.00
C1039  C     0.82941   0.62404   0.49815   0.00000  Uiso   1.00
C1040  C     0.83706   0.37594   0.50174   0.00000  Uiso   1.00
C1041  C     0.86997   0.52394   0.36039   0.00000  Uiso   1.00
C1042  C     0.79646   0.47628   0.63965   0.00000  Uiso   1.00
C1043  C     0.86973   0.52376   0.64597   0.00000  Uiso   1.00
C1044  C     0.79697   0.47625   0.35412   0.00000  Uiso   1.00
C1045  C     0.99883   0.44246   0.47712   0.00000  Uiso   1.00
C1046  C     0.66854   0.55666   0.52382   0.00000  Uiso   1.00
C1047  C     0.80376   0.62870   0.41144   0.00000  Uiso   1.00
C1048  C     0.83155   0.57979   0.49933   0.00000  Uiso   1.00
C1049  C     0.74776   0.60972   0.40803   0.00000  Uiso   1.00
C1050  C     0.86378   0.37130   0.58822   0.00000  Uiso   1.00
C1051  C     0.91984   0.39009   0.59071   0.00000  Uiso   1.00
C1052  C     0.91137   0.55109   0.38803   0.00000  Uiso   1.00
C1053  C     0.96479   0.53239   0.39348   0.00000  Uiso   1.00
C1054  C     0.75486   0.44928   0.61207   0.00000  Uiso   1.00
C1055  C     0.70152   0.46826   0.60631   0.00000  Uiso   1.00
C1056  C     0.90938   0.55007   0.62586   0.00000  Uiso   1.00
C1057  C     0.75781   0.44977   0.37457   0.00000  Uiso   1.00
C1058  C     0.73436   0.49807   0.48932   0.00000  Uiso   1.00
C1059  C     0.93237   0.50150   0.51068   0.00000  Uiso   1.00
C1060  C     0.68072   0.48712   0.48860   0.00000  Uiso   1.00
C1061  C     0.98605   0.51234   0.51126   0.00000  Uiso   1.00
C1062  C     0.82717   0.35587   0.46052   0.00000  Uiso   1.00
C1063  C     0.83898   0.64413   0.53937   0.00000  Uiso   1.00
C1064  C     0.82116   0.64682   0.45772   0.00000  Uiso   1.00
H1065  H     0.82328   0.37338   0.42981   0.00000  Uiso   1.00
H1066  H     0.94709   0.36581   0.58489   0.00000  Uiso   1.00
H1067  H     0.92353   0.41493   0.56546   0.00000  Uiso   1.00
H1068  H     0.93156   0.40343   0.62445   0.00000  Uiso   1.00
H1069  H     0.83659   0.39375   0.59837   0.00000  Uiso   1.00
H1070  H     0.86366   0.34700   0.61465   0.00000  Uiso   1.00
H1071  H     0.96030   0.49893   0.40113   0.00000  Uiso   1.00
H1072  H     0.98514   0.53678   0.36320   0.00000  Uiso   1.00
H1073  H     0.98998   0.54803   0.42135   0.00000  Uiso   1.00
H1074  H     0.91478   0.58254   0.37327   0.00000  Uiso   1.00
H1075  H     0.90078   0.55641   0.42139   0.00000  Uiso   1.00
H1076  H     0.84247   0.62661   0.57009   0.00000  Uiso   1.00
H1077  H     0.68018   0.46276   0.63582   0.00000  Uiso   1.00
H1078  H     0.70593   0.50202   0.60001   0.00000  Uiso   1.00
H1079  H     0.67694   0.45335   0.57765   0.00000  Uiso   1.00
H1080  H     0.76571   0.44362   0.57883   0.00000  Uiso   1.00
H1081  H     0.75113   0.41793   0.62709   0.00000  Uiso   1.00
H1082  H     0.93479   0.60799   0.61076   0.00000  Uiso   1.00
H1083  H     0.68300   0.44242   0.38765   0.00000  Uiso   1.00
H1084  H     0.94330   0.39596   0.46712   0.00000  Uiso   1.00
H1085  H     0.72178   0.60498   0.52594   0.00000  Uiso   1.00
H1086  H     0.73636   0.59735   0.37381   0.00000  Uiso   1.00
H1087  H     0.74407   0.58407   0.43229   0.00000  Uiso   1.00
H1088  H     0.72030   0.63362   0.41459   0.00000  Uiso   1.00
H1089  H     0.80429   0.65304   0.38508   0.00000  Uiso   1.00
H1090  H     0.83130   0.60639   0.40167   0.00000  Uiso   1.00
N1091  N     0.83332   0.49999   0.61907   0.00000  Uiso   1.00
N1092  N     0.83335   0.50001   0.38093   0.00000  Uiso   1.00
O1093  O     0.83333   0.43892   0.53821   0.00000  Uiso   1.00
O1094  O     0.94711   0.42644   0.47484   0.00000  Uiso   1.00
O1095  O     0.97039   0.57800   0.53897   0.00000  Uiso   1.00
O1096  O     0.71735   0.57490   0.51662   0.00000  Uiso   1.00
O1097  O     0.95027   0.53567   0.61831   0.00000  Uiso   1.00
O1098  O     0.90325   0.59246   0.62153   0.00000  Uiso   1.00
O1099  O     0.76541   0.41336   0.38173   0.00000  Uiso   1.00
O1100  O     0.70955   0.46506   0.38043   0.00000  Uiso   1.00
O1101  O     0.83334   0.56108   0.46179   0.00000  Uiso   1.00
O1102  O     0.83333   0.43893   0.46176   0.00000  Uiso   1.00
O1103  O     0.83334   0.56107   0.53824   0.00000  Uiso   1.00
O1104  O     0.75725   0.50000   0.52928   0.00000  Uiso   1.00
O1105  O     0.90942   0.50000   0.47072   0.00000  Uiso   1.00
O1106  O     0.75725   0.50000   0.45284   0.00000  Uiso   1.00
O1107  O     0.90942   0.50000   0.54716   0.00000  Uiso   1.00
O1108  O     0.69960   0.41912   0.47045   0.00000  Uiso   1.00
Zn1109 Zn    0.83333   0.49999   0.55104   0.00000  Uiso   1.00
Zn1110 Zn    0.83333   0.50001   0.44896   0.00000  Uiso   1.00
C1111  C     0.16845   0.75354   0.50065   0.00000  Uiso   1.00
C1112  C     0.17879   0.68649   0.54212   0.00000  Uiso   1.00
C1113  C     0.16275   0.95738   0.49815   0.00000  Uiso   1.00
C1114  C     0.17039   0.70928   0.50174   0.00000  Uiso   1.00
C1115  C     0.20330   0.85728   0.36039   0.00000  Uiso   1.00
C1116  C     0.12979   0.80961   0.63965   0.00000  Uiso   1.00
C1117  C     0.20306   0.85710   0.64597   0.00000  Uiso   1.00
C1118  C     0.13031   0.80959   0.35412   0.00000  Uiso   1.00
C1119  C     0.33217   0.77580   0.47712   0.00000  Uiso   1.00
C1120  C     0.00188   0.88999   0.52382   0.00000  Uiso   1.00
C1121  C     0.13710   0.96203   0.41144   0.00000  Uiso   1.00
C1122  C     0.16489   0.91312   0.49933   0.00000  Uiso   1.00
C1123  C     0.08110   0.94306   0.40803   0.00000  Uiso   1.00
C1124  C     0.19711   0.70463   0.58822   0.00000  Uiso   1.00
C1125  C     0.25317   0.72342   0.59071   0.00000  Uiso   1.00
C1126  C     0.24471   0.88443   0.38803   0.00000  Uiso   1.00
C1127  C     0.29813   0.86573   0.39348   0.00000  Uiso   1.00
C1128  C     0.08820   0.78261   0.61207   0.00000  Uiso   1.00
C1129  C     0.03485   0.80160   0.60631   0.00000  Uiso   1.00
C1130  C     0.24271   0.88340   0.62586   0.00000  Uiso   1.00
C1131  C     0.09114   0.78310   0.37457   0.00000  Uiso   1.00
C1132  C     0.06770   0.83140   0.48932   0.00000  Uiso   1.00
C1133  C     0.26570   0.83484   0.51068   0.00000  Uiso   1.00
C1134  C     0.01405   0.82045   0.48860   0.00000  Uiso   1.00
C1135  C     0.31938   0.84567   0.51126   0.00000  Uiso   1.00
C1136  C     0.16051   0.68920   0.46052   0.00000  Uiso   1.00
C1137  C     0.17232   0.97746   0.53937   0.00000  Uiso   1.00
C1138  C     0.15450   0.98015   0.45772   0.00000  Uiso   1.00
H1139  H     0.15661   0.70671   0.42981   0.00000  Uiso   1.00
H1140  H     0.28042   0.69914   0.58489   0.00000  Uiso   1.00
H1141  H     0.25686   0.74826   0.56546   0.00000  Uiso   1.00
H1142  H     0.26489   0.73676   0.62445   0.00000  Uiso   1.00
H1143  H     0.16992   0.72708   0.59837   0.00000  Uiso   1.00
H1144  H     0.19699   0.68033   0.61465   0.00000  Uiso   1.00
H1145  H     0.29363   0.83226   0.40113   0.00000  Uiso   1.00
H1146  H     0.31847   0.87011   0.36320   0.00000  Uiso   1.00
H1147  H     0.32332   0.88136   0.42135   0.00000  Uiso   1.00
H1148  H     0.24811   0.91587   0.37327   0.00000  Uiso   1.00
H1149  H     0.23411   0.88974   0.42139   0.00000  Uiso   1.00
H1150  H     0.17581   0.95994   0.57009   0.00000  Uiso   1.00
H1151  H     0.01351   0.79609   0.63582   0.00000  Uiso   1.00
H1152  H     0.03926   0.83536   0.60001   0.00000  Uiso   1.00
H1153  H     0.01028   0.78668   0.57765   0.00000  Uiso   1.00
H1154  H     0.09905   0.77695   0.57883   0.00000  Uiso   1.00
H1155  H     0.08446   0.75127   0.62709   0.00000  Uiso   1.00
H1156  H     0.26813   0.94133   0.61076   0.00000  Uiso   1.00
H1157  H     0.01633   0.77575   0.38765   0.00000  Uiso   1.00
H1158  H     0.27663   0.72929   0.46712   0.00000  Uiso   1.00
H1159  H     0.05511   0.93832   0.52594   0.00000  Uiso   1.00
H1160  H     0.06970   0.93068   0.37381   0.00000  Uiso   1.00
H1161  H     0.07740   0.91740   0.43229   0.00000  Uiso   1.00
H1162  H     0.05364   0.96695   0.41459   0.00000  Uiso   1.00
H1163  H     0.13762   0.98638   0.38508   0.00000  Uiso   1.00
H1164  H     0.16464   0.93972   0.40167   0.00000  Uiso   1.00
N1165  N     0.16665   0.83332   0.61907   0.00000  Uiso   1.00
N1166  N     0.16668   0.83334   0.38093   0.00000  Uiso   1.00
O1167  O     0.16666   0.77225   0.53821   0.00000  Uiso   1.00
O1168  O     0.28044   0.75978   0.47484   0.00000  Uiso   1.00
O1169  O     0.30372   0.91134   0.53897   0.00000  Uiso   1.00
O1170  O     0.05068   0.90823   0.51662   0.00000  Uiso   1.00
O1171  O     0.28360   0.86900   0.61831   0.00000  Uiso   1.00
O1172  O     0.23659   0.92579   0.62153   0.00000  Uiso   1.00
O1173  O     0.09874   0.74669   0.38173   0.00000  Uiso   1.00
O1174  O     0.04288   0.79839   0.38043   0.00000  Uiso   1.00
O1175  O     0.16667   0.89442   0.46179   0.00000  Uiso   1.00
O1176  O     0.16666   0.77226   0.46176   0.00000  Uiso   1.00
O1177  O     0.16667   0.89441   0.53824   0.00000  Uiso   1.00
O1178  O     0.09058   0.83333   0.52928   0.00000  Uiso   1.00
O1179  O     0.24275   0.83334   0.47072   0.00000  Uiso   1.00
O1180  O     0.09058   0.83334   0.45284   0.00000  Uiso   1.00
O1181  O     0.24275   0.83333   0.54716   0.00000  Uiso   1.00
O1182  O     0.03294   0.75246   0.47045   0.00000  Uiso   1.00
Zn1183 Zn    0.16667   0.83333   0.55104   0.00000  Uiso   1.00
Zn1184 Zn    0.16667   0.83334   0.44896   0.00000  Uiso   1.00
C1185  C     0.50178   0.75354   0.50065   0.00000  Uiso   1.00
C1186  C     0.51212   0.68649   0.54212   0.00000  Uiso   1.00
C1187  C     0.49608   0.95738   0.49815   0.00000  Uiso   1.00
C1188  C     0.50373   0.70928   0.50174   0.00000  Uiso   1.00
C1189  C     0.53664   0.85728   0.36039   0.00000  Uiso   1.00
C1190  C     0.46313   0.80961   0.63965   0.00000  Uiso   1.00
C1191  C     0.53639   0.85710   0.64597   0.00000  Uiso   1.00
C1192  C     0.46364   0.80959   0.35412   0.00000  Uiso   1.00
C1193  C     0.66550   0.77580   0.47712   0.00000  Uiso   1.00
C1194  C     0.33521   0.88999   0.52382   0.00000  Uiso   1.00
C1195  C     0.47043   0.96203   0.41144   0.00000  Uiso   1.00
C1196  C     0.49822   0.91312   0.49933   0.00000  Uiso   1.00
C1197  C     0.41443   0.94306   0.40803   0.00000  Uiso   1.00
C1198  C     0.53044   0.70463   0.58822   0.00000  Uiso   1.00
C1199  C     0.58650   0.72342   0.59071   0.00000  Uiso   1.00
C1200  C     0.57804   0.88443   0.38803   0.00000  Uiso   1.00
C1201  C     0.63146   0.86573   0.39348   0.00000  Uiso   1.00
C1202  C     0.42153   0.78261   0.61207   0.00000  Uiso   1.00
C1203  C     0.36818   0.80160   0.60631   0.00000  Uiso   1.00
C1204  C     0.57605   0.88340   0.62586   0.00000  Uiso   1.00
C1205  C     0.42447   0.78310   0.37457   0.00000  Uiso   1.00
C1206  C     0.40103   0.83140   0.48932   0.00000  Uiso   1.00
C1207  C     0.59903   0.83484   0.51068   0.00000  Uiso   1.00
C1208  C     0.34738   0.82045   0.48860   0.00000  Uiso   1.00
C1209  C     0.65271   0.84567   0.51126   0.00000  Uiso   1.00
C1210  C     0.49384   0.68920   0.46052   0.00000  Uiso   1.00
C1211  C     0.50565   0.97746   0.53937   0.00000  Uiso   1.00
C1212  C     0.48783   0.98015   0.45772   0.00000  Uiso   1.00
H1213  H     0.48994   0.70671   0.42981   0.00000  Uiso   1.00
H1214  H     0.61375   0.69914   0.58489   0.00000  Uiso   1.00
H1215  H     0.59019   0.74826   0.56546   0.00000  Uiso   1.00
H1216  H     0.59822   0.73676   0.62445   0.00000  Uiso   1.00
H1217  H     0.50326   0.72708   0.59837   0.00000  Uiso   1.00
H1218  H     0.53033   0.68033   0.61465   0.00000  Uiso   1.00
H1219  H     0.62697   0.83226   0.40113   0.00000  Uiso   1.00
H1220  H     0.65180   0.87011   0.36320   0.00000  Uiso   1.00
H1221  H     0.65665   0.88136   0.42135   0.00000  Uiso   1.00
H1222  H     0.58144   0.91587   0.37327   0.00000  Uiso   1.00
H1223  H     0.56744   0.88974   0.42139   0.00000  Uiso   1.00
H1224  H     0.50914   0.95994   0.57009   0.00000  Uiso   1.00
H1225  H     0.34685   0.79609   0.63582   0.00000  Uiso   1.00
H1226  H     0.37260   0.83536   0.60001   0.00000  Uiso   1.00
H1227  H     0.34361   0.78668   0.57765   0.00000  Uiso   1.00
H1228  H     0.43238   0.77695   0.57883   0.00000  Uiso   1.00
H1229  H     0.41779   0.75127   0.62709   0.00000  Uiso   1.00
H1230  H     0.60146   0.94133   0.61076   0.00000  Uiso   1.00
H1231  H     0.34966   0.77575   0.38765   0.00000  Uiso   1.00
H1232  H     0.60997   0.72929   0.46712   0.00000  Uiso   1.00
H1233  H     0.38844   0.93832   0.52594   0.00000  Uiso   1.00
H1234  H     0.40303   0.93068   0.37381   0.00000  Uiso   1.00
H1235  H     0.41073   0.91740   0.43229   0.00000  Uiso   1.00
H1236  H     0.38697   0.96695   0.41459   0.00000  Uiso   1.00
H1237  H     0.47095   0.98638   0.38508   0.00000  Uiso   1.00
H1238  H     0.49797   0.93972   0.40167   0.00000  Uiso   1.00
N1239  N     0.49999   0.83332   0.61907   0.00000  Uiso   1.00
N1240  N     0.50001   0.83334   0.38093   0.00000  Uiso   1.00
O1241  O     0.50000   0.77225   0.53821   0.00000  Uiso   1.00
O1242  O     0.61377   0.75978   0.47484   0.00000  Uiso   1.00
O1243  O     0.63706   0.91134   0.53897   0.00000  Uiso   1.00
O1244  O     0.38402   0.90823   0.51662   0.00000  Uiso   1.00
O1245  O     0.61694   0.86900   0.61831   0.00000  Uiso   1.00
O1246  O     0.56992   0.92579   0.62153   0.00000  Uiso   1.00
O1247  O     0.43208   0.74669   0.38173   0.00000  Uiso   1.00
O1248  O     0.37621   0.79839   0.38043   0.00000  Uiso   1.00
O1249  O     0.50000   0.89442   0.46179   0.00000  Uiso   1.00
O1250  O     0.50000   0.77226   0.46176   0.00000  Uiso   1.00
O1251  O     0.50000   0.89441   0.53824   0.00000  Uiso   1.00
O1252  O     0.42392   0.83333   0.52928   0.00000  Uiso   1.00
O1253  O     0.57608   0.83334   0.47072   0.00000  Uiso   1.00
O1254  O     0.42392   0.83334   0.45284   0.00000  Uiso   1.00
O1255  O     0.57608   0.83333   0.54716   0.00000  Uiso   1.00
O1256  O     0.36627   0.75246   0.47045   0.00000  Uiso   1.00
Zn1257 Zn    0.50000   0.83333   0.55104   0.00000  Uiso   1.00
Zn1258 Zn    0.50000   0.83334   0.44896   0.00000  Uiso   1.00
C1259  C     0.83511   0.75354   0.50065   0.00000  Uiso   1.00
C1260  C     0.84545   0.68649   0.54212   0.00000  Uiso   1.00
C1261  C     0.82941   0.95738   0.49815   0.00000  Uiso   1.00
C1262  C     0.83706   0.70928   0.50174   0.00000  Uiso   1.00
C1263  C     0.86997   0.85728   0.36039   0.00000  Uiso   1.00
C1264  C     0.79646   0.80961   0.63965   0.00000  Uiso   1.00
C1265  C     0.86973   0.85710   0.64597   0.00000  Uiso   1.00
C1266  C     0.79697   0.80959   0.35412   0.00000  Uiso   1.00
C1267  C     0.99883   0.77580   0.47712   0.00000  Uiso   1.00
C1268  C     0.66854   0.88999   0.52382   0.00000  Uiso   1.00
C1269  C     0.80376   0.96203   0.41144   0.00000  Uiso   1.00
C1270  C     0.83155   0.91312   0.49933   0.00000  Uiso   1.00
C1271  C     0.74776   0.94306   0.40803   0.00000  Uiso   1.00
C1272  C     0.86378   0.70463   0.58822   0.00000  Uiso   1.00
C1273  C     0.91984   0.72342   0.59071   0.00000  Uiso   1.00
C1274  C     0.91137   0.88443   0.38803   0.00000  Uiso   1.00
C1275  C     0.96479   0.86573   0.39348   0.00000  Uiso   1.00
C1276  C     0.75486   0.78261   0.61207   0.00000  Uiso   1.00
C1277  C     0.70152   0.80160   0.60631   0.00000  Uiso   1.00
C1278  C     0.90938   0.88340   0.62586   0.00000  Uiso   1.00
C1279  C     0.75781   0.78310   0.37457   0.00000  Uiso   1.00
C1280  C     0.73436   0.83140   0.48932   0.00000  Uiso   1.00
C1281  C     0.93237   0.83484   0.51068   0.00000  Uiso   1.00
C1282  C     0.68072   0.82045   0.48860   0.00000  Uiso   1.00
C1283  C     0.98605   0.84567   0.51126   0.00000  Uiso   1.00
C1284  C     0.82717   0.68920   0.46052   0.00000  Uiso   1.00
C1285  C     0.83898   0.97746   0.53937   0.00000  Uiso   1.00
C1286  C     0.82116   0.98015   0.45772   0.00000  Uiso   1.00
H1287  H     0.82328   0.70671   0.42981   0.00000  Uiso   1.00
H1288  H     0.94709   0.69914   0.58489   0.00000  Uiso   1.00
H1289  H     0.92353   0.74826   0.56546   0.00000  Uiso   1.00
H1290  H     0.93156   0.73676   0.62445   0.00000  Uiso   1.00
H1291  H     0.83659   0.72708   0.59837   0.00000  Uiso   1.00
H1292  H     0.86366   0.68033   0.61465   0.00000  Uiso   1.00
H1293  H     0.96030   0.83226   0.40113   0.00000  Uiso   1.00
H1294  H     0.98514   0.87011   0.36320   0.00000  Uiso   1.00
H1295  H     0.98998   0.88136   0.42135   0.00000  Uiso   1.00
H1296  H     0.91478   0.91587   0.37327   0.00000  Uiso   1.00
H1297  H     0.90078   0.88974   0.42139   0.00000  Uiso   1.00
H1298  H     0.84247   0.95994   0.57009   0.00000  Uiso   1.00
H1299  H     0.68018   0.79609   0.63582   0.00000  Uiso   1.00
H1300  H     0.70593   0.83536   0.60001   0.00000  Uiso   1.00
H1301  H     0.67694   0.78668   0.57765   0.00000  Uiso   1.00
H1302  H     0.76571   0.77695   0.57883   0.00000  Uiso   1.00
H1303  H     0.75113   0.75127   0.62709   0.00000  Uiso   1.00
H1304  H     0.93479   0.94133   0.61076   0.00000  Uiso   1.00
H1305  H     0.68300   0.77575   0.38765   0.00000  Uiso   1.00
H1306  H     0.94330   0.72929   0.46712   0.00000  Uiso   1.00
H1307  H     0.72178   0.93832   0.52594   0.00000  Uiso   1.00
H1308  H     0.73636   0.93068   0.37381   0.00000  Uiso   1.00
H1309  H     0.74407   0.91740   0.43229   0.00000  Uiso   1.00
H1310  H     0.72030   0.96695   0.41459   0.00000  Uiso   1.00
H1311  H     0.80429   0.98638   0.38508   0.00000  Uiso   1.00
H1312  H     0.83130   0.93972   0.40167   0.00000  Uiso   1.00
N1313  N     0.83332   0.83332   0.61907   0.00000  Uiso   1.00
N1314  N     0.83335   0.83334   0.38093   0.00000  Uiso   1.00
O1315  O     0.83333   0.77225   0.53821   0.00000  Uiso   1.00
O1316  O     0.94711   0.75978   0.47484   0.00000  Uiso   1.00
O1317  O     0.97039   0.91134   0.53897   0.00000  Uiso   1.00
O1318  O     0.71735   0.90823   0.51662   0.00000  Uiso   1.00
O1319  O     0.95027   0.86900   0.61831   0.00000  Uiso   1.00
O1320  O     0.90325   0.92579   0.62153   0.00000  Uiso   1.00
O1321  O     0.76541   0.74669   0.38173   0.00000  Uiso   1.00
O1322  O     0.70955   0.79839   0.38043   0.00000  Uiso   1.00
O1323  O     0.83334   0.89442   0.46179   0.00000  Uiso   1.00
O1324  O     0.83333   0.77226   0.46176   0.00000  Uiso   1.00
O1325  O     0.83334   0.89441   0.53824   0.00000  Uiso   1.00
O1326  O     0.75725   0.83333   0.52928   0.00000  Uiso   1.00
O1327  O     0.90942   0.83334   0.47072   0.00000  Uiso   1.00
O1328  O     0.75725   0.83334   0.45284   0.00000  Uiso   1.00
O1329  O     0.90942   0.83333   0.54716   0.00000  Uiso   1.00
O1330  O     0.69960   0.75246   0.47045   0.00000  Uiso   1.00
Zn1331 Zn    0.83333   0.83333   0.55104   0.00000  Uiso   1.00
Zn1332 Zn    0.83333   0.83334   0.44896   0.00000  Uiso   1.00
C1333  C     0.16845   0.08688   0.83398   0.00000  Uiso   1.00
C1334  C     0.17879   0.01982   0.87546   0.00000  Uiso   1.00
C1335  C     0.16275   0.29071   0.83149   0.00000  Uiso   1.00
C1336  C     0.17039   0.04261   0.83507   0.00000  Uiso   1.00
C1337  C     0.20330   0.19061   0.69372   0.00000  Uiso   1.00
C1338  C     0.12979   0.14295   0.97298   0.00000  Uiso   1.00
C1339  C     0.20306   0.19043   0.97930   0.00000  Uiso   1.00
C1340  C     0.13031   0.14292   0.68746   0.00000  Uiso   1.00
C1341  C     0.33217   0.10913   0.81046   0.00000  Uiso   1.00
C1342  C     0.00188   0.22333   0.85715   0.00000  Uiso   1.00
C1343  C     0.13710   0.29536   0.74478   0.00000  Uiso   1.00
C1344  C     0.16489   0.24646   0.83267   0.00000  Uiso   1.00
C1345  C     0.08110   0.27639   0.74136   0.00000  Uiso   1.00
C1346  C     0.19711   0.03797   0.92155   0.00000  Uiso   1.00
C1347  C     0.25317   0.05675   0.92404   0.00000  Uiso   1.00
C1348  C     0.24471   0.21776   0.72137   0.00000  Uiso   1.00
C1349  C     0.29813   0.19906   0.72682   0.00000  Uiso   1.00
C1350  C     0.08820   0.11594   0.94540   0.00000  Uiso   1.00
C1351  C     0.03485   0.13493   0.93964   0.00000  Uiso   1.00
C1352  C     0.24271   0.21674   0.95919   0.00000  Uiso   1.00
C1353  C     0.09114   0.11643   0.70791   0.00000  Uiso   1.00
C1354  C     0.06770   0.16474   0.82265   0.00000  Uiso   1.00
C1355  C     0.26570   0.16817   0.84401   0.00000  Uiso   1.00
C1356  C     0.01405   0.15379   0.82193   0.00000  Uiso   1.00
C1357  C     0.31938   0.17901   0.84460   0.00000  Uiso   1.00
C1358  C     0.16051   0.02253   0.79385   0.00000  Uiso   1.00
C1359  C     0.17232   0.31080   0.87271   0.00000  Uiso   1.00
C1360  C     0.15450   0.31349   0.79106   0.00000  Uiso   1.00
H1361  H     0.15661   0.04005   0.76314   0.00000  Uiso   1.00
H1362  H     0.28042   0.03247   0.91822   0.00000  Uiso   1.00
H1363  H     0.25686   0.08160   0.89879   0.00000  Uiso   1.00
H1364  H     0.26489   0.07009   0.95779   0.00000  Uiso   1.00
H1365  H     0.16992   0.06041   0.93170   0.00000  Uiso   1.00
H1366  H     0.19699   0.01366   0.94798   0.00000  Uiso   1.00
H1367  H     0.29363   0.16560   0.73447   0.00000  Uiso   1.00
H1368  H     0.31847   0.20344   0.69653   0.00000  Uiso   1.00
H1369  H     0.32332   0.21469   0.75468   0.00000  Uiso   1.00
H1370  H     0.24811   0.24920   0.70660   0.00000  Uiso   1.00
H1371  H     0.23411   0.22307   0.75472   0.00000  Uiso   1.00
H1372  H     0.17581   0.29328   0.90342   0.00000  Uiso   1.00
H1373  H     0.01351   0.12943   0.96915   0.00000  Uiso   1.00
H1374  H     0.03926   0.16869   0.93334   0.00000  Uiso   1.00
H1375  H     0.01028   0.12001   0.91099   0.00000  Uiso   1.00
H1376  H     0.09905   0.11028   0.91217   0.00000  Uiso   1.00
H1377  H     0.08446   0.08460   0.96042   0.00000  Uiso   1.00
H1378  H     0.26813   0.27466   0.94410   0.00000  Uiso   1.00
H1379  H     0.01633   0.10908   0.72098   0.00000  Uiso   1.00
H1380  H     0.27663   0.06263   0.80045   0.00000  Uiso   1.00
H1381  H     0.05511   0.27165   0.85927   0.00000  Uiso   1.00
H1382  H     0.06970   0.26402   0.70714   0.00000  Uiso   1.00
H1383  H     0.07740   0.25073   0.76562   0.00000  Uiso   1.00
H1384  H     0.05364   0.30028   0.74792   0.00000  Uiso   1.00
H1385  H     0.13762   0.31971   0.71842   0.00000  Uiso   1.00
H1386  H     0.16464   0.27306   0.73501   0.00000  Uiso   1.00
N1387  N     0.16665   0.16666   0.95240   0.00000  Uiso   1.00
N1388  N     0.16668   0.16668   0.71427   0.00000  Uiso   1.00
O1389  O     0.16666   0.10558   0.87154   0.00000  Uiso   1.00
O1390  O     0.28044   0.09311   0.80817   0.00000  Uiso   1.00
O1391  O     0.30372   0.24467   0.87231   0.00000  Uiso   1.00
O1392  O     0.05068   0.24156   0.84995   0.00000  Uiso   1.00
O1393  O     0.28360   0.20234   0.95164   0.00000  Uiso   1.00
O1394  O     0.23659   0.25912   0.95487   0.00000  Uiso   1.00
O1395  O     0.09874   0.08002   0.71506   0.00000  Uiso   1.00
O1396  O     0.04288   0.13172   0.71376   0.00000  Uiso   1.00
O1397  O     0.16667   0.22775   0.79513   0.00000  Uiso   1.00
O1398  O     0.16666   0.10559   0.79510   0.00000  Uiso   1.00
O1399  O     0.16667   0.22774   0.87157   0.00000  Uiso   1.00
O1400  O     0.09058   0.16666   0.86261   0.00000  Uiso   1.00
O1401  O     0.24275   0.16667   0.80405   0.00000  Uiso   1.00
O1402  O     0.09058   0.16667   0.78617   0.00000  Uiso   1.00
O1403  O     0.24275   0.16666   0.88050   0.00000  Uiso   1.00
O1404  O     0.03294   0.08579   0.80378   0.00000  Uiso   1.00
Zn1405 Zn    0.16667   0.16666   0.88437   0.00000  Uiso   1.00
Zn1406 Zn    0.16667   0.16667   0.78229   0.00000  Uiso   1.00
C1407  C     0.50178   0.08688   0.83398   0.00000  Uiso   1.00
C1408  C     0.51212   0.01982   0.87546   0.00000  Uiso   1.00
C1409  C     0.49608   0.29071   0.83149   0.00000  Uiso   1.00
C1410  C     0.50373   0.04261   0.83507   0.00000  Uiso   1.00
C1411  C     0.53664   0.19061   0.69372   0.00000  Uiso   1.00
C1412  C     0.46313   0.14295   0.97298   0.00000  Uiso   1.00
C1413  C     0.53639   0.19043   0.97930   0.00000  Uiso   1.00
C1414  C     0.46364   0.14292   0.68746   0.00000  Uiso   1.00
C1415  C     0.66550   0.10913   0.81046   0.00000  Uiso   1.00
C1416  C     0.33521   0.22333   0.85715   0.00000  Uiso   1.00
C1417  C     0.47043   0.29536   0.74478   0.00000  Uiso   1.00
C1418  C     0.49822   0.24646   0.83267   0.00000  Uiso   1.00
C1419  C     0.41443   0.27639   0.74136   0.00000  Uiso   1.00
C1420  C     0.53044   0.03797   0.92155   0.00000  Uiso   1.00
C1421  C     0.58650   0.05675   0.92404   0.00000  Uiso   1.00
C1422  C     0.57804   0.21776   0.72137   0.00000  Uiso   1.00
C1423  C     0.63146   0.19906   0.72682   0.00000  Uiso   1.00
C1424  C     0.42153   0.11594   0.94540   0.00000  Uiso   1.00
C1425  C     0.36818   0.13493   0.93964   0.00000  Uiso   1.00
C1426  C     0.57605   0.21674   0.95919   0.00000  Uiso   1.00
C1427  C     0.42447   0.11643   0.70791   0.00000  Uiso   1.00
C1428  C     0.40103   0.16474   0.82265   0.00000  Uiso   1.00
C1429  C     0.59903   0.16817   0.84401   0.00000  Uiso   1.00
C1430  C     0.34738   0.15379   0.82193   0.00000  Uiso   1.00
C1431  C     0.65271   0.17901   0.84460   0.00000  Uiso   1.00
C1432  C     0.49384   0.02253   0.79385   0.00000  Uiso   1.00
C1433  C     0.50565   0.31080   0.87271   0.00000  Uiso   1.00
C1434  C     0.48783   0.31349   0.79106   0.00000  Uiso   1.00
H1435  H     0.48994   0.04005   0.76314   0.00000  Uiso   1.00
H1436  H     0.61375   0.03247   0.91822   0.00000  Uiso   1.00
H1437  H     0.59019   0.08160   0.89879   0.00000  Uiso   1.00
H1438  H     0.59822   0.07009   0.95779   0.00000  Uiso   1.00
H1439  H     0.50326   0.06041   0.93170   0.00000  Uiso   1.00
H1440  H     0.53033   0.01366   0.94798   0.00000  Uiso   1.00
H1441  H     0.62697   0.16560   0.73447   0.00000  Uiso   1.00
H1442  H     0.65180   0.20344   0.69653   0.00000  Uiso   1.00
H1443  H     0.65665   0.21469   0.75468   0.00000  Uiso   1.00
H1444  H     0.58144   0.24920   0.70660   0.00000  Uiso   1.00
H1445  H     0.56744   0.22307   0.75472   0.00000  Uiso   1.00
H1446  H     0.50914   0.29328   0.90342   0.00000  Uiso   1.00
H1447  H     0.34685   0.12943   0.96915   0.00000  Uiso   1.00
H1448  H     0.37260   0.16869   0.93334   0.00000  Uiso   1.00
H1449  H     0.34361   0.12001   0.91099   0.00000  Uiso   1.00
H1450  H     0.43238   0.11028   0.91217   0.00000  Uiso   1.00
H1451  H     0.41779   0.08460   0.96042   0.00000  Uiso   1.00
H1452  H     0.60146   0.27466   0.94410   0.00000  Uiso   1.00
H1453  H     0.34966   0.10908   0.72098   0.00000  Uiso   1.00
H1454  H     0.60997   0.06263   0.80045   0.00000  Uiso   1.00
H1455  H     0.38844   0.27165   0.85927   0.00000  Uiso   1.00
H1456  H     0.40303   0.26402   0.70714   0.00000  Uiso   1.00
H1457  H     0.41073   0.25073   0.76562   0.00000  Uiso   1.00
H1458  H     0.38697   0.30028   0.74792   0.00000  Uiso   1.00
H1459  H     0.47095   0.31971   0.71842   0.00000  Uiso   1.00
H1460  H     0.49797   0.27306   0.73501   0.00000  Uiso   1.00
N1461  N     0.49999   0.16666   0.95240   0.00000  Uiso   1.00
N1462  N     0.50001   0.16668   0.71427   0.00000  Uiso   1.00
O1463  O     0.50000   0.10558   0.87154   0.00000  Uiso   1.00
O1464  O     0.61377   0.09311   0.80817   0.00000  Uiso   1.00
O1465  O     0.63706   0.24467   0.87231   0.00000  Uiso   1.00
O1466  O     0.38402   0.24156   0.84995   0.00000  Uiso   1.00
O1467  O     0.61694   0.20234   0.95164   0.00000  Uiso   1.00
O1468  O     0.56992   0.25912   0.95487   0.00000  Uiso   1.00
O1469  O     0.43208   0.08002   0.71506   0.00000  Uiso   1.00
O1470  O     0.37621   0.13172   0.71376   0.00000  Uiso   1.00
O1471  O     0.50000   0.22775   0.79513   0.00000  Uiso   1.00
O1472  O     0.50000   0.10559   0.79510   0.00000  Uiso   1.00
O1473  O     0.50000   0.22774   0.87157   0.00000  Uiso   1.00
O1474  O     0.42392   0.16666   0.86261   0.00000  Uiso   1.00
O1475  O     0.57608   0.16667   0.80405   0.00000  Uiso   1.00
O1476  O     0.42392   0.16667   0.78617   0.00000  Uiso   1.00
O1477  O     0.57608   0.16666   0.88050   0.00000  Uiso   1.00
O1478  O     0.36627   0.08579   0.80378   0.00000  Uiso   1.00
Zn1479 Zn    0.50000   0.16666   0.88437   0.00000  Uiso   1.00
Zn1480 Zn    0.50000   0.16667   0.78229   0.00000  Uiso   1.00
C1481  C     0.83511   0.08688   0.83398   0.00000  Uiso   1.00
C1482  C     0.84545   0.01982   0.87546   0.00000  Uiso   1.00
C1483  C     0.82941   0.29071   0.83149   0.00000  Uiso   1.00
C1484  C     0.83706   0.04261   0.83507   0.00000  Uiso   1.00
C1485  C     0.86997   0.19061   0.69372   0.00000  Uiso   1.00
C1486  C     0.79646   0.14295   0.97298   0.00000  Uiso   1.00
C1487  C     0.86973   0.19043   0.97930   0.00000  Uiso   1.00
C1488  C     0.79697   0.14292   0.68746   0.00000  Uiso   1.00
C1489  C     0.99883   0.10913   0.81046   0.00000  Uiso   1.00
C1490  C     0.66854   0.22333   0.85715   0.00000  Uiso   1.00
C1491  C     0.80376   0.29536   0.74478   0.00000  Uiso   1.00
C1492  C     0.83155   0.24646   0.83267   0.00000  Uiso   1.00
C1493  C     0.74776   0.27639   0.74136   0.00000  Uiso   1.00
C1494  C     0.86378   0.03797   0.92155   0.00000  Uiso   1.00
C1495  C     0.91984   0.05675   0.92404   0.00000  Uiso   1.00
C1496  C     0.91137   0.21776   0.72137   0.00000  Uiso   1.00
C1497  C     0.96479   0.19906   0.72682   0.00000  Uiso   1.00
C1498  C     0.75486   0.11594   0.94540   0.00000  Uiso   1.00
C1499  C     0.70152   0.13493   0.93964   0.00000  Uiso   1.00
C1500  C     0.90938   0.21674   0.95919   0.00000  Uiso   1.00
C1501  C     0.75781   0.11643   0.70791   0.00000  Uiso   1.00
C1502  C     0.73436   0.16474   0.82265   0.00000  Uiso   1.00
C1503  C     0.93237   0.16817   0.84401   0.00000  Uiso   1.00
C1504  C     0.68072   0.15379   0.82193   0.00000  Uiso   1.00
C1505  C     0.98605   0.17901   0.84460   0.00000  Uiso   1.00
C1506  C     0.82717   0.02253   0.79385   0.00000  Uiso   1.00
C1507  C     0.83898   0.31080   0.87271   0.00000  Uiso   1.00
C1508  C     0.82116   0.31349   0.79106   0.00000  Uiso   1.00
H1509  H     0.82328   0.04005   0.76314   0.00000  Uiso   1.00
H1510  H     0.94709   0.03247   0.91822   0.00000  Uiso   1.00
H1511  H     0.92353   0.08160   0.89879   0.00000  Uiso   1.00
H1512  H     0.93156   0.07009   0.95779   0.00000  Uiso   1.00
H1513  H     0.83659   0.06041   0.93170   0.00000  Uiso   1.00
H1514  H     0.86366   0.01366   0.94798   0.00000  Uiso   1.00
H1515  H     0.96030   0.16560   0.73447   0.00000  Uiso   1.00
H1516  H     0.98514   0.20344   0.69653   0.00000  Uiso   1.00
H1517  H     0.98998   0.21469   0.75468   0.00000  Uiso   1.00
H1518  H     0.91478   0.24920   0.70660   0.00000  Uiso   1.00
H1519  H     0.90078   0.22307   0.75472   0.00000  Uiso   1.00
H1520  H     0.84247   0.29328   0.90342   0.00000  Uiso   1.00
H1521  H     0.68018   0.12943   0.96915   0.00000  Uiso   1.00
H1522  H     0.70593   0.16869   0.93334   0.00000  Uiso   1.00
H1523  H     0.67694   0.12001   0.91099   0.00000  Uiso   1.00
H1524  H     0.76571   0.11028   0.91217   0.00000  Uiso   1.00
H1525  H     0.75113   0.08460   0.96042   0.00000  Uiso   1.00
H1526  H     0.93479   0.27466   0.94410   0.00000  Uiso   1.00
H1527  H     0.68300   0.10908   0.72098   0.00000  Uiso   1.00
H1528  H     0.94330   0.06263   0.80045   0.00000  Uiso   1.00
H1529  H     0.72178   0.27165   0.85927   0.00000  Uiso   1.00
H1530  H     0.73636   0.26402   0.70714   0.00000  Uiso   1.00
H1531  H     0.74407   0.25073   0.76562   0.00000  Uiso   1.00
H1532  H     0.72030   0.30028   0.74792   0.00000  Uiso   1.00
H1533  H     0.80429   0.31971   0.71842   0.00000  Uiso   1.00
H1534  H     0.83130   0.27306   0.73501   0.00000  Uiso   1.00
N1535  N     0.83332   0.16666   0.95240   0.00000  Uiso   1.00
N1536  N     0.83335   0.16668   0.71427   0.00000  Uiso   1.00
O1537  O     0.83333   0.10558   0.87154   0.00000  Uiso   1.00
O1538  O     0.94711   0.09311   0.80817   0.00000  Uiso   1.00
O1539  O     0.97039   0.24467   0.87231   0.00000  Uiso   1.00
O1540  O     0.71735   0.24156   0.84995   0.00000  Uiso   1.00
O1541  O     0.95027   0.20234   0.95164   0.00000  Uiso   1.00
O1542  O     0.90325   0.25912   0.95487   0.00000  Uiso   1.00
O1543  O     0.76541   0.08002   0.71506   0.00000  Uiso   1.00
O1544  O     0.70955   0.13172   0.71376   0.00000  Uiso   1.00
O1545  O     0.83334   0.22775   0.79513   0.00000  Uiso   1.00
O1546  O     0.83333   0.10559   0.79510   0.00000  Uiso   1.00
O1547  O     0.83334   0.22774   0.87157   0.00000  Uiso   1.00
O1548  O     0.75725   0.16666   0.86261   0.00000  Uiso   1.00
O1549  O     0.90942   0.16667   0.80405   0.00000  Uiso   1.00
O1550  O     0.75725   0.16667   0.78617   0.00000  Uiso   1.00
O1551  O     0.90942   0.16666   0.88050   0.00000  Uiso   1.00
O1552  O     0.69960   0.08579   0.80378   0.00000  Uiso   1.00
Zn1553 Zn    0.83333   0.16666   0.88437   0.00000  Uiso   1.00
Zn1554 Zn    0.83333   0.16667   0.78229   0.00000  Uiso   1.00
C1555  C     0.16845   0.42021   0.83398   0.00000  Uiso   1.00
C1556  C     0.17879   0.35316   0.87546   0.00000  Uiso   1.00
C1557  C     0.16275   0.62404   0.83149   0.00000  Uiso   1.00
C1558  C     0.17039   0.37594   0.83507   0.00000  Uiso   1.00
C1559  C     0.20330   0.52394   0.69372   0.00000  Uiso   1.00
C1560  C     0.12979   0.47628   0.97298   0.00000  Uiso   1.00
C1561  C     0.20306   0.52376   0.97930   0.00000  Uiso   1.00
C1562  C     0.13031   0.47625   0.68746   0.00000  Uiso   1.00
C1563  C     0.33217   0.44246   0.81046   0.00000  Uiso   1.00
C1564  C     0.00188   0.55666   0.85715   0.00000  Uiso   1.00
C1565  C     0.13710   0.62870   0.74478   0.00000  Uiso   1.00
C1566  C     0.16489   0.57979   0.83267   0.00000  Uiso   1.00
C1567  C     0.08110   0.60972   0.74136   0.00000  Uiso   1.00
C1568  C     0.19711   0.37130   0.92155   0.00000  Uiso   1.00
C1569  C     0.25317   0.39009   0.92404   0.00000  Uiso   1.00
C1570  C     0.24471   0.55109   0.72137   0.00000  Uiso   1.00
C1571  C     0.29813   0.53239   0.72682   0.00000  Uiso   1.00
C1572  C     0.08820   0.44928   0.94540   0.00000  Uiso   1.00
C1573  C     0.03485   0.46826   0.93964   0.00000  Uiso   1.00
C1574  C     0.24271   0.55007   0.95919   0.00000  Uiso   1.00
C1575  C     0.09114   0.44977   0.70791   0.00000  Uiso   1.00
C1576  C     0.06770   0.49807   0.82265   0.00000  Uiso   1.00
C1577  C     0.26570   0.50150   0.84401   0.00000  Uiso   1.00
C1578  C     0.01405   0.48712   0.82193   0.00000  Uiso   1.00
C1579  C     0.31938   0.51234   0.84460   0.00000  Uiso   1.00
C1580  C     0.16051   0.35587   0.79385   0.00000  Uiso   1.00
C1581  C     0.17232   0.64413   0.87271   0.00000  Uiso   1.00
C1582  C     0.15450   0.64682   0.79106   0.00000  Uiso   1.00
H1583  H     0.15661   0.37338   0.76314   0.00000  Uiso   1.00
H1584  H     0.28042   0.36581   0.91822   0.00000  Uiso   1.00
H1585  H     0.25686   0.41493   0.89879   0.00000  Uiso   1.00
H1586  H     0.26489   0.40343   0.95779   0.00000  Uiso   1.00
H1587  H     0.16992   0.39375   0.93170   0.00000  Uiso   1.00
H1588  H     0.19699   0.34700   0.94798   0.00000  Uiso   1.00
H1589  H     0.29363   0.49893   0.73447   0.00000  Uiso   1.00
H1590  H     0.31847   0.53678   0.69653   0.00000  Uiso   1.00
H1591  H     0.32332   0.54803   0.75468   0.00000  Uiso   1.00
H1592  H     0.24811   0.58254   0.70660   0.00000  Uiso   1.00
H1593  H     0.23411   0.55641   0.75472   0.00000  Uiso   1.00
H1594  H     0.17581   0.62661   0.90342   0.00000  Uiso   1.00
H1595  H     0.01351   0.46276   0.96915   0.00000  Uiso   1.00
H1596  H     0.03926   0.50202   0.93334   0.00000  Uiso   1.00
H1597  H     0.01028   0.45335   0.91099   0.00000  Uiso   1.00
H1598  H     0.09905   0.44362   0.91217   0.00000  Uiso   1.00
H1599  H     0.08446   0.41793   0.96042   0.00000  Uiso   1.00
H1600  H     0.26813   0.60799   0.94410   0.00000  Uiso   1.00
H1601  H     0.01633   0.44242   0.72098   0.00000  Uiso   1.00
H1602  H     0.27663   0.39596   0.80045   0.00000  Uiso   1.00
H1603  H     0.05511   0.60498   0.85927   0.00000  Uiso   1.00
H1604  H     0.06970   0.59735   0.70714   0.00000  Uiso   1.00
H1605  H     0.07740   0.58407   0.76562   0.00000  Uiso   1.00
H1606  H     0.05364   0.63362   0.74792   0.00000  Uiso   1.00
H1607  H     0.13762   0.65304   0.71842   0.00000  Uiso   1.00
H1608  H     0.16464   0.60639   0.73501   0.00000  Uiso   1.00
N1609  N     0.16665   0.49999   0.95240   0.00000  Uiso   1.00
N1610  N     0.16668   0.50001   0.71427   0.00000  Uiso   1.00
O1611  O     0.16666   0.43892   0.87154   0.00000  Uiso   1.00
O1612  O     0.28044   0.42644   0.80817   0.00000  Uiso   1.00
O1613  O     0.30372   0.57800   0.87231   0.00000  Uiso   1.00
O1614  O     0.05068   0.57490   0.84995   0.00000  Uiso   1.00
O1615  O     0.28360   0.53567   0.95164   0.00000  Uiso   1.00
O1616  O     0.23659   0.59246   0.95487   0.00000  Uiso   1.00
O1617  O     0.09874   0.41336   0.71506   0.00000  Uiso   1.00
O1618  O     0.04288   0.46506   0.71376   0.00000  Uiso   1.00
O1619  O     0.16667   0.56108   0.79513   0.00000  Uiso   1.00
O1620  O     0.16666   0.43893   0.79510   0.00000  Uiso   1.00
O1621  O     0.16667   0.56107   0.87157   0.00000  Uiso   1.00
O1622  O     0.09058   0.50000   0.86261   0.00000  Uiso   1.00
O1623  O     0.24275   0.50000   0.80405   0.00000  Uiso   1.00
O1624  O     0.09058   0.50000   0.78617   0.00000  Uiso   1.00
O1625  O     0.24275   0.50000   0.88050   0.00000  Uiso   1.00
O1626  O     0.03294   0.41912   0.80378   0.00000  Uiso   1.00
Zn1627 Zn    0.16667   0.49999   0.88437   0.00000  Uiso   1.00
Zn1628 Zn    0.16667   0.50001   0.78229   0.00000  Uiso   1.00
C1629  C     0.50178   0.42021   0.83398   0.00000  Uiso   1.00
C1630  C     0.51212   0.35316   0.87546   0.00000  Uiso   1.00
C1631  C     0.49608   0.62404   0.83149   0.00000  Uiso   1.00
C1632  C     0.50373   0.37594   0.83507   0.00000  Uiso   1.00
C1633  C     0.53664   0.52394   0.69372   0.00000  Uiso   1.00
C1634  C     0.46313   0.47628   0.97298   0.00000  Uiso   1.00
C1635  C     0.53639   0.52376   0.97930   0.00000  Uiso   1.00
C1636  C     0.46364   0.47625   0.68746   0.00000  Uiso   1.00
C1637  C     0.66550   0.44246   0.81046   0.00000  Uiso   1.00
C1638  C     0.33521   0.55666   0.85715   0.00000  Uiso   1.00
C1639  C     0.47043   0.62870   0.74478   0.00000  Uiso   1.00
C1640  C     0.49822   0.57979   0.83267   0.00000  Uiso   1.00
C1641  C     0.41443   0.60972   0.74136   0.00000  Uiso   1.00
C1642  C     0.53044   0.37130   0.92155   0.00000  Uiso   1.00
C1643  C     0.58650   0.39009   0.92404   0.00000  Uiso   1.00
C1644  C     0.57804   0.55109   0.72137   0.00000  Uiso   1.00
C1645  C     0.63146   0.53239   0.72682   0.00000  Uiso   1.00
C1646  C     0.42153   0.44928   0.94540   0.00000  Uiso   1.00
C1647  C     0.36818   0.46826   0.93964   0.00000  Uiso   1.00
C1648  C     0.57605   0.55007   0.95919   0.00000  Uiso   1.00
C1649  C     0.42447   0.44977   0.70791   0.00000  Uiso   1.00
C1650  C     0.40103   0.49807   0.82265   0.00000  Uiso   1.00
C1651  C     0.59903   0.50150   0.84401   0.00000  Uiso   1.00
C1652  C     0.34738   0.48712   0.82193   0.00000  Uiso   1.00
C1653  C     0.65271   0.51234   0.84460   0.00000  Uiso   1.00
C1654  C     0.49384   0.35587   0.79385   0.00000  Uiso   1.00
C1655  C     0.50565   0.64413   0.87271   0.00000  Uiso   1.00
C1656  C     0.48783   0.64682   0.79106   0.00000  Uiso   1.00
H1657  H     0.48994   0.37338   0.76314   0.00000  Uiso   1.00
H1658  H     0.61375   0.36581   0.91822   0.00000  Uiso   1.00
H1659  H     0.59019   0.41493   0.89879   0.00000  Uiso   1.00
H1660  H     0.59822   0.40343   0.95779   0.00000  Uiso   1.00
H1661  H     0.50326   0.39375   0.93170   0.00000  Uiso   1.00
H1662  H     0.53033   0.34700   0.94798   0.00000  Uiso   1.00
H1663  H     0.62697   0.49893   0.73447   0.00000  Uiso   1.00
H1664  H     0.65180   0.53678   0.69653   0.00000  Uiso   1.00
H1665  H     0.65665   0.54803   0.75468   0.00000  Uiso   1.00
H1666  H     0.58144   0.58254   0.70660   0.00000  Uiso   1.00
H1667  H     0.56744   0.55641   0.75472   0.00000  Uiso   1.00
H1668  H     0.50914   0.62661   0.90342   0.00000  Uiso   1.00
H1669  H     0.34685   0.46276   0.96915   0.00000  Uiso   1.00
H1670  H     0.37260   0.50202   0.93334   0.00000  Uiso   1.00
H1671  H     0.34361   0.45335   0.91099   0.00000  Uiso   1.00
H1672  H     0.43238   0.44362   0.91217   0.00000  Uiso   1.00
H1673  H     0.41779   0.41793   0.96042   0.00000  Uiso   1.00
H1674  H     0.60146   0.60799   0.94410   0.00000  Uiso   1.00
H1675  H     0.34966   0.44242   0.72098   0.00000  Uiso   1.00
H1676  H     0.60997   0.39596   0.80045   0.00000  Uiso   1.00
H1677  H     0.38844   0.60498   0.85927   0.00000  Uiso   1.00
H1678  H     0.40303   0.59735   0.70714   0.00000  Uiso   1.00
H1679  H     0.41073   0.58407   0.76562   0.00000  Uiso   1.00
H1680  H     0.38697   0.63362   0.74792   0.00000  Uiso   1.00
H1681  H     0.47095   0.65304   0.71842   0.00000  Uiso   1.00
H1682  H     0.49797   0.60639   0.73501   0.00000  Uiso   1.00
N1683  N     0.49999   0.49999   0.95240   0.00000  Uiso   1.00
N1684  N     0.50001   0.50001   0.71427   0.00000  Uiso   1.00
O1685  O     0.50000   0.43892   0.87154   0.00000  Uiso   1.00
O1686  O     0.61377   0.42644   0.80817   0.00000  Uiso   1.00
O1687  O     0.63706   0.57800   0.87231   0.00000  Uiso   1.00
O1688  O     0.38402   0.57490   0.84995   0.00000  Uiso   1.00
O1689  O     0.61694   0.53567   0.95164   0.00000  Uiso   1.00
O1690  O     0.56992   0.59246   0.95487   0.00000  Uiso   1.00
O1691  O     0.43208   0.41336   0.71506   0.00000  Uiso   1.00
O1692  O     0.37621   0.46506   0.71376   0.00000  Uiso   1.00
O1693  O     0.50000   0.56108   0.79513   0.00000  Uiso   1.00
O1694  O     0.50000   0.43893   0.79510   0.00000  Uiso   1.00
O1695  O     0.50000   0.56107   0.87157   0.00000  Uiso   1.00
O1696  O     0.42392   0.50000   0.86261   0.00000  Uiso   1.00
O1697  O     0.57608   0.50000   0.80405   0.00000  Uiso   1.00
O1698  O     0.42392   0.50000   0.78617   0.00000  Uiso   1.00
O1699  O     0.57608   0.50000   0.88050   0.00000  Uiso   1.00
O1700  O     0.36627   0.41912   0.80378   0.00000  Uiso   1.00
Zn1701 Zn    0.50000   0.49999   0.88437   0.00000  Uiso   1.00
Zn1702 Zn    0.50000   0.50001   0.78229   0.00000  Uiso   1.00
C1703  C     0.83511   0.42021   0.83398   0.00000  Uiso   1.00
C1704  C     0.84545   0.35316   0.87546   0.00000  Uiso   1.00
C1705  C     0.82941   0.62404   0.83149   0.00000  Uiso   1.00
C1706  C     0.83706   0.37594   0.83507   0.00000  Uiso   1.00
C1707  C     0.86997   0.52394   0.69372   0.00000  Uiso   1.00
C1708  C     0.79646   0.47628   0.97298   0.00000  Uiso   1.00
C1709  C     0.86973   0.52376   0.97930   0.00000  Uiso   1.00
C1710  C     0.79697   0.47625   0.68746   0.00000  Uiso   1.00
C1711  C     0.99883   0.44246   0.81046   0.00000  Uiso   1.00
C1712  C     0.66854   0.55666   0.85715   0.00000  Uiso   1.00
C1713  C     0.80376   0.62870   0.74478   0.00000  Uiso   1.00
C1714  C     0.83155   0.57979   0.83267   0.00000  Uiso   1.00
C1715  C     0.74776   0.60972   0.74136   0.00000  Uiso   1.00
C1716  C     0.86378   0.37130   0.92155   0.00000  Uiso   1.00
C1717  C     0.91984   0.39009   0.92404   0.00000  Uiso   1.00
C1718  C     0.91137   0.55109   0.72137   0.00000  Uiso   1.00
C1719  C     0.96479   0.53239   0.72682   0.00000  Uiso   1.00
C1720  C     0.75486   0.44928   0.94540   0.00000  Uiso   1.00
C1721  C     0.70152   0.46826   0.93964   0.00000  Uiso   1.00
C1722  C     0.90938   0.55007   0.95919   0.00000  Uiso   1.00
C1723  C     0.75781   0.44977   0.70791   0.00000  Uiso   1.00
C1724  C     0.73436   0.49807   0.82265   0.00000  Uiso   1.00
C1725  C     0.93237   0.50150   0.84401   0.00000  Uiso   1.00
C1726  C     0.68072   0.48712   0.82193   0.00000  Uiso   1.00
C1727  C     0.98605   0.51234   0.84460   0.00000  Uiso   1.00
C1728  C     0.82717   0.35587   0.79385   0.00000  Uiso   1.00
C1729  C     0.83898   0.64413   0.87271   0.00000  Uiso   1.00
C1730  C     0.82116   0.64682   0.79106   0.00000  Uiso   1.00
H1731  H     0.82328   0.37338   0.76314   0.00000  Uiso   1.00
H1732  H     0.94709   0.36581   0.91822   0.00000  Uiso   1.00
H1733  H     0.92353   0.41493   0.89879   0.00000  Uiso   1.00
H1734  H     0.93156   0.40343   0.95779   0.00000  Uiso   1.00
H1735  H     0.83659   0.39375   0.93170   0.00000  Uiso   1.00
H1736  H     0.86366   0.34700   0.94798   0.00000  Uiso   1.00
H1737  H     0.96030   0.49893   0.73447   0.00000  Uiso   1.00
H1738  H     0.98514   0.53678   0.69653   0.00000  Uiso   1.00
H1739  H     0.98998   0.54803   0.75468   0.00000  Uiso   1.00
H1740  H     0.91478   0.58254   0.70660   0.00000  Uiso   1.00
H1741  H     0.90078   0.55641   0.75472   0.00000  Uiso   1.00
H1742  H     0.84247   0.62661   0.90342   0.00000  Uiso   1.00
H1743  H     0.68018   0.46276   0.96915   0.00000  Uiso   1.00
H1744  H     0.70593   0.50202   0.93334   0.00000  Uiso   1.00
H1745  H     0.67694   0.45335   0.91099   0.00000  Uiso   1.00
H1746  H     0.76571   0.44362   0.91217   0.00000  Uiso   1.00
H1747  H     0.75113   0.41793   0.96042   0.00000  Uiso   1.00
H1748  H     0.93479   0.60799   0.94410   0.00000  Uiso   1.00
H1749  H     0.68300   0.44242   0.72098   0.00000  Uiso   1.00
H1750  H     0.94330   0.39596   0.80045   0.00000  Uiso   1.00
H1751  H     0.72178   0.60498   0.85927   0.00000  Uiso   1.00
H1752  H     0.73636   0.59735   0.70714   0.00000  Uiso   1.00
H1753  H     0.74407   0.58407   0.76562   0.00000  Uiso   1.00
H1754  H     0.72030   0.63362   0.74792   0.00000  Uiso   1.00
H1755  H     0.80429   0.65304   0.71842   0.00000  Uiso   1.00
H1756  H     0.83130   0.60639   0.73501   0.00000  Uiso   1.00
N1757  N     0.83332   0.49999   0.95240   0.00000  Uiso   1.00
N1758  N     0.83335   0.50001   0.71427   0.00000  Uiso   1.00
O1759  O     0.83333   0.43892   0.87154   0.00000  Uiso   1.00
O1760  O     0.94711   0.42644   0.80817   0.00000  Uiso   1.00
O1761  O     0.97039   0.57800   0.87231   0.00000  Uiso   1.00
O1762  O     0.71735   0.57490   0.84995   0.00000  Uiso   1.00
O1763  O     0.95027   0.53567   0.95164   0.00000  Uiso   1.00
O1764  O     0.90325   0.59246   0.95487   0.00000  Uiso   1.00
O1765  O     0.76541   0.41336   0.71506   0.00000  Uiso   1.00
O1766  O     0.70955   0.46506   0.71376   0.00000  Uiso   1.00
O1767  O     0.83334   0.56108   0.79513   0.00000  Uiso   1.00
O1768  O     0.83333   0.43893   0.79510   0.00000  Uiso   1.00
O1769  O     0.83334   0.56107   0.87157   0.00000  Uiso   1.00
O1770  O     0.75725   0.50000   0.86261   0.00000  Uiso   1.00
O1771  O     0.90942   0.50000   0.80405   0.00000  Uiso   1.00
O1772  O     0.75725   0.50000   0.78617   0.00000  Uiso   1.00
O1773  O     0.90942   0.50000   0.88050   0.00000  Uiso   1.00
O1774  O     0.69960   0.41912   0.80378   0.00000  Uiso   1.00
Zn1775 Zn    0.83333   0.49999   0.88437   0.00000  Uiso   1.00
Zn1776 Zn    0.83333   0.50001   0.78229   0.00000  Uiso   1.00
C1777  C     0.16845   0.75354   0.83398   0.00000  Uiso   1.00
C1778  C     0.17879   0.68649   0.87546   0.00000  Uiso   1.00
C1779  C     0.16275   0.95738   0.83149   0.00000  Uiso   1.00
C1780  C     0.17039   0.70928   0.83507   0.00000  Uiso   1.00
C1781  C     0.20330   0.85728   0.69372   0.00000  Uiso   1.00
C1782  C     0.12979   0.80961   0.97298   0.00000  Uiso   1.00
C1783  C     0.20306   0.85710   0.97930   0.00000  Uiso   1.00
C1784  C     0.13031   0.80959   0.68746   0.00000  Uiso   1.00
C1785  C     0.33217   0.77580   0.81046   0.00000  Uiso   1.00
C1786  C     0.00188   0.88999   0.85715   0.00000  Uiso   1.00
C1787  C     0.13710   0.96203   0.74478   0.00000  Uiso   1.00
C1788  C     0.16489   0.91312   0.83267   0.00000  Uiso   1.00
C1789  C     0.08110   0.94306   0.74136   0.00000  Uiso   1.00
C1790  C     0.19711   0.70463   0.92155   0.00000  Uiso   1.00
C1791  C     0.25317   0.72342   0.92404   0.00000  Uiso   1.00
C1792  C     0.24471   0.88443   0.72137   0.00000  Uiso   1.00
C1793  C     0.29813   0.86573   0.72682   0.00000  Uiso   1.00
C1794  C     0.08820   0.78261   0.94540   0.00000  Uiso   1.00
C1795  C     0.03485   0.80160   0.93964   0.00000  Uiso   1.00
C1796  C     0.24271   0.88340   0.95919   0.00000  Uiso   1.00
C1797  C     0.09114   0.78310   0.70791   0.00000  Uiso   1.00
C1798  C     0.06770   0.83140   0.82265   0.00000  Uiso   1.00
C1799  C     0.26570   0.83484   0.84401   0.00000  Uiso   1.00
C1800  C     0.01405   0.82045   0.82193   0.00000  Uiso   1.00
C1801  C     0.31938   0.84567   0.84460   0.00000  Uiso   1.00
C1802  C     0.16051   0.68920   0.79385   0.00000  Uiso   1.00
C1803  C     0.17232   0.97746   0.87271   0.00000  Uiso   1.00
C1804  C     0.15450   0.98015   0.79106   0.00000  Uiso   1.00
H1805  H     0.15661   0.70671   0.76314   0.00000  Uiso   1.00
H1806  H     0.28042   0.69914   0.91822   0.00000  Uiso   1.00
H1807  H     0.25686   0.74826   0.89879   0.00000  Uiso   1.00
H1808  H     0.26489   0.73676   0.95779   0.00000  Uiso   1.00
H1809  H     0.16992   0.72708   0.93170   0.00000  Uiso   1.00
H1810  H     0.19699   0.68033   0.94798   0.00000  Uiso   1.00
H1811  H     0.29363   0.83226   0.73447   0.00000  Uiso   1.00
H1812  H     0.31847   0.87011   0.69653   0.00000  Uiso   1.00
H1813  H     0.32332   0.88136   0.75468   0.00000  Uiso   1.00
H1814  H     0.24811   0.91587   0.70660   0.00000  Uiso   1.00
H1815  H     0.23411   0.88974   0.75472   0.00000  Uiso   1.00
H1816  H     0.17581   0.95994   0.90342   0.00000  Uiso   1.00
H1817  H     0.01351   0.79609   0.96915   0.00000  Uiso   1.00
H1818  H     0.03926   0.83536   0.93334   0.00000  Uiso   1.00
H1819  H     0.01028   0.78668   0.91099   0.00000  Uiso   1.00
H1820  H     0.09905   0.77695   0.91217   0.00000  Uiso   1.00
H1821  H     0.08446   0.75127   0.96042   0.00000  Uiso   1.00
H1822  H     0.26813   0.94133   0.94410   0.00000  Uiso   1.00
H1823  H     0.01633   0.77575   0.72098   0.00000  Uiso   1.00
H1824  H     0.27663   0.72929   0.80045   0.00000  Uiso   1.00
H1825  H     0.05511   0.93832   0.85927   0.00000  Uiso   1.00
H1826  H     0.06970   0.93068   0.70714   0.00000  Uiso   1.00
H1827  H     0.07740   0.91740   0.76562   0.00000  Uiso   1.00
H1828  H     0.05364   0.96695   0.74792   0.00000  Uiso   1.00
H1829  H     0.13762   0.98638   0.71842   0.00000  Uiso   1.00
H1830  H     0.16464   0.93972   0.73501   0.00000  Uiso   1.00
N1831  N     0.16665   0.83332   0.95240   0.00000  Uiso   1.00
N1832  N     0.16668   0.83334   0.71427   0.00000  Uiso   1.00
O1833  O     0.16666   0.77225   0.87154   0.00000  Uiso   1.00
O1834  O     0.28044   0.75978   0.80817   0.00000  Uiso   1.00
O1835  O     0.30372   0.91134   0.87231   0.00000  Uiso   1.00
O1836  O     0.05068   0.90823   0.84995   0.00000  Uiso   1.00
O1837  O     0.28360   0.86900   0.95164   0.00000  Uiso   1.00
O1838  O     0.23659   0.92579   0.95487   0.00000  Uiso   1.00
O1839  O     0.09874   0.74669   0.71506   0.00000  Uiso   1.00
O1840  O     0.04288   0.79839   0.71376   0.00000  Uiso   1.00
O1841  O     0.16667   0.89442   0.79513   0.00000  Uiso   1.00
O1842  O     0.16666   0.77226   0.79510   0.00000  Uiso   1.00
O1843  O     0.16667   0.89441   0.87157   0.00000  Uiso   1.00
O1844  O     0.09058   0.83333   0.86261   0.00000  Uiso   1.00
O1845  O     0.24275   0.83334   0.80405   0.00000  Uiso   1.00
O1846  O     0.09058   0.83334   0.78617   0.00000  Uiso   1.00
O1847  O     0.24275   0.83333   0.88050   0.00000  Uiso   1.00
O1848  O     0.03294   0.75246   0.80378   0.00000  Uiso   1.00
Zn1849 Zn    0.16667   0.83333   0.88437   0.00000  Uiso   1.00
Zn1850 Zn    0.16667   0.83334   0.78229   0.00000  Uiso   1.00
C1851  C     0.50178   0.75354   0.83398   0.00000  Uiso   1.00
C1852  C     0.51212   0.68649   0.87546   0.00000  Uiso   1.00
C1853  C     0.49608   0.95738   0.83149   0.00000  Uiso   1.00
C1854  C     0.50373   0.70928   0.83507   0.00000  Uiso   1.00
C1855  C     0.53664   0.85728   0.69372   0.00000  Uiso   1.00
C1856  C     0.46313   0.80961   0.97298   0.00000  Uiso   1.00
C1857  C     0.53639   0.85710   0.97930   0.00000  Uiso   1.00
C1858  C     0.46364   0.80959   0.68746   0.00000  Uiso   1.00
C1859  C     0.66550   0.77580   0.81046   0.00000  Uiso   1.00
C1860  C     0.33521   0.88999   0.85715   0.00000  Uiso   1.00
C1861  C     0.47043   0.96203   0.74478   0.00000  Uiso   1.00
C1862  C     0.49822   0.91312   0.83267   0.00000  Uiso   1.00
C1863  C     0.41443   0.94306   0.74136   0.00000  Uiso   1.00
C1864  C     0.53044   0.70463   0.92155   0.00000  Uiso   1.00
C1865  C     0.58650   0.72342   0.92404   0.00000  Uiso   1.00
C1866  C     0.57804   0.88443   0.72137   0.00000  Uiso   1.00
C1867  C     0.63146   0.86573   0.72682   0.00000  Uiso   1.00
C1868  C     0.42153   0.78261   0.94540   0.00000  Uiso   1.00
C1869  C     0.36818   0.80160   0.93964   0.00000  Uiso   1.00
C1870  C     0.57605   0.88340   0.95919   0.00000  Uiso   1.00
C1871  C     0.42447   0.78310   0.70791   0.00000  Uiso   1.00
C1872  C     0.40103   0.83140   0.82265   0.00000  Uiso   1.00
C1873  C     0.59903   0.83484   0.84401   0.00000  Uiso   1.00
C1874  C     0.34738   0.82045   0.82193   0.00000  Uiso   1.00
C1875  C     0.65271   0.84567   0.84460   0.00000  Uiso   1.00
C1876  C     0.49384   0.68920   0.79385   0.00000  Uiso   1.00
C1877  C     0.50565   0.97746   0.87271   0.00000  Uiso   1.00
C1878  C     0.48783   0.98015   0.79106   0.00000  Uiso   1.00
H1879  H     0.48994   0.70671   0.76314   0.00000  Uiso   1.00
H1880  H     0.61375   0.69914   0.91822   0.00000  Uiso   1.00
H1881  H     0.59019   0.74826   0.89879   0.00000  Uiso   1.00
H1882  H     0.59822   0.73676   0.95779   0.00000  Uiso   1.00
H1883  H     0.50326   0.72708   0.93170   0.00000  Uiso   1.00
H1884  H     0.53033   0.68033   0.94798   0.00000  Uiso   1.00
H1885  H     0.62697   0.83226   0.73447   0.00000  Uiso   1.00
H1886  H     0.65180   0.87011   0.69653   0.00000  Uiso   1.00
H1887  H     0.65665   0.88136   0.75468   0.00000  Uiso   1.00
H1888  H     0.58144   0.91587   0.70660   0.00000  Uiso   1.00
H1889  H     0.56744   0.88974   0.75472   0.00000  Uiso   1.00
H1890  H     0.50914   0.95994   0.90342   0.00000  Uiso   1.00
H1891  H     0.34685   0.79609   0.96915   0.00000  Uiso   1.00
H1892  H     0.37260   0.83536   0.93334   0.00000  Uiso   1.00
H1893  H     0.34361   0.78668   0.91099   0.00000  Uiso   1.00
H1894  H     0.43238   0.77695   0.91217   0.00000  Uiso   1.00
H1895  H     0.41779   0.75127   0.96042   0.00000  Uiso   1.00
H1896  H     0.60146   0.94133   0.94410   0.00000  Uiso   1.00
H1897  H     0.34966   0.77575   0.72098   0.00000  Uiso   1.00
H1898  H     0.60997   0.72929   0.80045   0.00000  Uiso   1.00
H1899  H     0.38844   0.93832   0.85927   0.00000  Uiso   1.00
H1900  H     0.40303   0.93068   0.70714   0.00000  Uiso   1.00
H1901  H     0.41073   0.91740   0.76562   0.00000  Uiso   1.00
H1902  H     0.38697   0.96695   0.74792   0.00000  Uiso   1.00
H1903  H     0.47095   0.98638   0.71842   0.00000  Uiso   1.00
H1904  H     0.49797   0.93972   0.73501   0.00000  Uiso   1.00
N1905  N     0.49999   0.83332   0.95240   0.00000  Uiso   1.00
N1906  N     0.50001   0.83334   0.71427   0.00000  Uiso   1.00
O1907  O     0.50000   0.77225   0.87154   0.00000  Uiso   1.00
O1908  O     0.61377   0.75978   0.80817   0.00000  Uiso   1.00
O1909  O     0.63706   0.91134   0.87231   0.00000  Uiso   1.00
O1910  O     0.38402   0.90823   0.84995   0.00000  Uiso   1.00
O1911  O     0.61694   0.86900   0.95164   0.00000  Uiso   1.00
O1912  O     0.56992   0.92579   0.95487   0.00000  Uiso   1.00
O1913  O     0.43208   0.74669   0.71506   0.00000  Uiso   1.00
O1914  O     0.37621   0.79839   0.71376   0.00000  Uiso   1.00
O1915  O     0.50000   0.89442   0.79513   0.00000  Uiso   1.00
O1916  O     0.50000   0.77226   0.79510   0.00000  Uiso   1.00
O1917  O     0.50000   0.89441   0.87157   0.00000  Uiso   1.00
O1918  O     0.42392   0.83333   0.86261   0.00000  Uiso   1.00
O1919  O     0.57608   0.83334   0.80405   0.00000  Uiso   1.00
O1920  O     0.42392   0.83334   0.78617   0.00000  Uiso   1.00
O1921  O     0.57608   0.83333   0.88050   0.00000  Uiso   1.00
O1922  O     0.36627   0.75246   0.80378   0.00000  Uiso   1.00
Zn1923 Zn    0.50000   0.83333   0.88437   0.00000  Uiso   1.00
Zn1924 Zn    0.50000   0.83334   0.78229   0.00000  Uiso   1.00
C1925  C     0.83511   0.75354   0.83398   0.00000  Uiso   1.00
C1926  C     0.84545   0.68649   0.87546   0.00000  Uiso   1.00
C1927  C     0.82941   0.95738   0.83149   0.00000  Uiso   1.00
C1928  C     0.83706   0.70928   0.83507   0.00000  Uiso   1.00
C1929  C     0.86997   0.85728   0.69372   0.00000  Uiso   1.00
C1930  C     0.79646   0.80961   0.97298   0.00000  Uiso   1.00
C1931  C     0.86973   0.85710   0.97930   0.00000  Uiso   1.00
C1932  C     0.79697   0.80959   0.68746   0.00000  Uiso   1.00
C1933  C     0.99883   0.77580   0.81046   0.00000  Uiso   1.00
C1934  C     0.66854   0.88999   0.85715   0.00000  Uiso   1.00
C1935  C     0.80376   0.96203   0.74478   0.00000  Uiso   1.00
C1936  C     0.83155   0.91312   0.83267   0.00000  Uiso   1.00
C1937  C     0.74776   0.94306   0.74136   0.00000  Uiso   1.00
C1938  C     0.86378   0.70463   0.92155   0.00000  Uiso   1.00
C1939  C     0.91984   0.72342   0.92404   0.00000  Uiso   1.00
C1940  C     0.91137   0.88443   0.72137   0.00000  Uiso   1.00
C1941  C     0.96479   0.86573   0.72682   0.00000  Uiso   1.00
C1942  C     0.75486   0.78261   0.94540   0.00000  Uiso   1.00
C1943  C     0.70152   0.80160   0.93964   0.00000  Uiso   1.00
C1944  C     0.90938   0.88340   0.95919   0.00000  Uiso   1.00
C1945  C     0.75781   0.78310   0.70791   0.00000  Uiso   1.00
C1946  C     0.73436   0.83140   0.82265   0.00000  Uiso   1.00
C1947  C     0.93237   0.83484   0.84401   0.00000  Uiso   1.00
C1948  C     0.68072   0.82045   0.82193   0.00000  Uiso   1.00
C1949  C     0.98605   0.84567   0.84460   0.00000  Uiso   1.00
C1950  C     0.82717   0.68920   0.79385   0.00000  Uiso   1.00
C1951  C     0.83898   0.97746   0.87271   0.00000  Uiso   1.00
C1952  C     0.82116   0.98015   0.79106   0.00000  Uiso   1.00
H1953  H     0.82328   0.70671   0.76314   0.00000  Uiso   1.00
H1954  H     0.94709   0.69914   0.91822   0.00000  Uiso   1.00
H1955  H     0.92353   0.74826   0.89879   0.00000  Uiso   1.00
H1956  H     0.93156   0.73676   0.95779   0.00000  Uiso   1.00
H1957  H     0.83659   0.72708   0.93170   0.00000  Uiso   1.00
H1958  H     0.86366   0.68033   0.94798   0.00000  Uiso   1.00
H1959  H     0.96030   0.83226   0.73447   0.00000  Uiso   1.00
H1960  H     0.98514   0.87011   0.69653   0.00000  Uiso   1.00
H1961  H     0.98998   0.88136   0.75468   0.00000  Uiso   1.00
H1962  H     0.91478   0.91587   0.70660   0.00000  Uiso   1.00
H1963  H     0.90078   0.88974   0.75472   0.00000  Uiso   1.00
H1964  H     0.84247   0.95994   0.90342   0.00000  Uiso   1.00
H1965  H     0.68018   0.79609   0.96915   0.00000  Uiso   1.00
H1966  H     0.70593   0.83536   0.93334   0.00000  Uiso   1.00
H1967  H     0.67694   0.78668   0.91099   0.00000  Uiso   1.00
H1968  H     0.76571   0.77695   0.91217   0.00000  Uiso   1.00
H1969  H     0.75113   0.75127   0.96042   0.00000  Uiso   1.00
H1970  H     0.93479   0.94133   0.94410   0.00000  Uiso   1.00
H1971  H     0.68300   0.77575   0.72098   0.00000  Uiso   1.00
H1972  H     0.94330   0.72929   0.80045   0.00000  Uiso   1.00
H1973  H     0.72178   0.93832   0.85927   0.00000  Uiso   1.00
H1974  H     0.73636   0.93068   0.70714   0.00000  Uiso   1.00
H1975  H     0.74407   0.91740   0.76562   0.00000  Uiso   1.00
H1976  H     0.72030   0.96695   0.74792   0.00000  Uiso   1.00
H1977  H     0.80429   0.98638   0.71842   0.00000  Uiso   1.00
H1978  H     0.83130   0.93972   0.73501   0.00000  Uiso   1.00
N1979  N     0.83332   0.83332   0.95240   0.00000  Uiso   1.00
N1980  N     0.83335   0.83334   0.71427   0.00000  Uiso   1.00
O1981  O     0.83333   0.77225   0.87154   0.00000  Uiso   1.00
O1982  O     0.94711   0.75978   0.80817   0.00000  Uiso   1.00
O1983  O     0.97039   0.91134   0.87231   0.00000  Uiso   1.00
O1984  O     0.71735   0.90823   0.84995   0.00000  Uiso   1.00
O1985  O     0.95027   0.86900   0.95164   0.00000  Uiso   1.00
O1986  O     0.90325   0.92579   0.95487   0.00000  Uiso   1.00
O1987  O     0.76541   0.74669   0.71506   0.00000  Uiso   1.00
O1988  O     0.70955   0.79839   0.71376   0.00000  Uiso   1.00
O1989  O     0.83334   0.89442   0.79513   0.00000  Uiso   1.00
O1990  O     0.83333   0.77226   0.79510   0.00000  Uiso   1.00
O1991  O     0.83334   0.89441   0.87157   0.00000  Uiso   1.00
O1992  O     0.75725   0.83333   0.86261   0.00000  Uiso   1.00
O1993  O     0.90942   0.83334   0.80405   0.00000  Uiso   1.00
O1994  O     0.75725   0.83334   0.78617   0.00000  Uiso   1.00
O1995  O     0.90942   0.83333   0.88050   0.00000  Uiso   1.00
O1996  O     0.69960   0.75246   0.80378   0.00000  Uiso   1.00
Zn1997 Zn    0.83333   0.83333   0.88437   0.00000  Uiso   1.00
Zn1998 Zn    0.83333   0.83334   0.78229   0.00000  Uiso   1.00
loop_
_geom_bond_atom_site_label_1
_geom_bond_atom_site_label_2
_geom_bond_distance
_geom_bond_site_symmetry_2
_ccdc_geom_bond_type
C1     C4      1.438   .     S
C1     O66     1.308   .     A
C1     O57     1.294   .     A
C2     C4      1.415   .     A
C2     C14     1.526   .     S
C2     C471    1.376   1_545 S
C3     C27     1.397   .     A
C3     C28     1.416   .     A
C3     C12     1.438   .     S
C4     C26     1.397   .     A
C5     N56     1.382   .     A
C5     C16     1.520   .     S
C5     C1339   1.435   1_554 S
C6     N55     1.383   .     A
C6     C18     1.520   .     S
C6     C674    1.436   .     S
C7     N55     1.374   .     A
C7     C20     1.471   .     S
C7     C671    1.435   .     S
C8     N56     1.372   .     A
C8     C21     1.470   .     S
C8     C1338   1.436   1_554 S
C9     O58     1.396   .     S
C9     C98     1.511   .     S
C9     O146    1.225   .     S
C10    O60     1.396   .     S
C10    C173    1.511   1_455 S
C10    O207    1.223   1_455 S
C11    H53     1.112   .     S
C11    C13     1.528   .     S
C11    C28     1.526   .     S
C11    H54     1.105   .     S
C12    O65     1.294   .     A
C12    O67     1.308   .     A
C13    H52     1.111   .     S
C13    H51     1.107   .     S
C13    H50     1.111   .     S
C14    H34     1.112   .     S
C14    H33     1.105   .     S
C14    C15     1.528   .     S
C15    H30     1.111   .     S
C15    H32     1.110   .     S
C15    H31     1.107   .     S
C16    H39     1.087   .     S
C16    H38     1.109   .     S
C16    C17     1.525   .     S
C17    H36     1.104   .     S
C17    H37     1.108   .     S
C17    H35     1.108   .     S
C18    H44     1.088   .     S
C18    H45     1.110   .     S
C18    C19     1.527   .     S
C19    H42     1.110   .     S
C19    H43     1.108   .     S
C19    H41     1.103   .     S
C20    O62     1.394   .     S
C20    O61     1.220   .     D
C21    O63     1.219   .     D
C21    O64     1.393   .     S
C22    O68     1.277   .     A
C22    C24     1.404   .     S
C22    O70     1.302   .     A
C23    O69     1.277   .     A
C23    C25     1.405   .     S
C23    O71     1.303   .     A
C24    C157    1.511   1_455 S
C24    C173    1.357   1_455 S
C25    C98     1.357   .     S
C25    C84     1.511   .     S
C26    H29     1.076   .     S
C26    C472    1.376   1_545 S
C27    H40     1.076   .     S
C27    C224    1.376   .     S
C28    C248    1.376   .     S
H46    O62     1.013   .     S
H47    O64     1.013   .     S
H48    O58     1.014   .     S
H49    O60     1.014   .     S
N55    Zn73    2.045   .     S
N56    Zn74    2.045   .     S
O57    Zn73    2.021   .     S
O59    C84     1.223   .     S
O65    Zn74    2.021   .     S
O66    Zn74    2.012   .     S
O67    Zn73    2.012   .     S
O68    Zn73    1.993   .     S
O69    Zn74    1.993   .     S
O70    Zn74    1.975   .     S
O71    Zn73    1.975   .     S
O72    C157    1.225   1_455 S
C75    C78     1.438   .     S
C75    O140    1.308   .     A
C75    O131    1.294   .     A
C76    C78     1.415   .     A
C76    C88     1.526   .     S
C76    C545    1.376   1_545 S
C77    C101    1.397   .     A
C77    C102    1.416   .     A
C77    C86     1.438   .     S
C78    C100    1.397   .     A
C79    N130    1.382   .     A
C79    C90     1.520   .     S
C79    C1413   1.435   1_554 S
C80    N129    1.383   .     A
C80    C92     1.520   .     S
C80    C748    1.436   .     S
C81    N129    1.374   .     A
C81    C94     1.471   .     S
C81    C745    1.435   .     S
C82    N130    1.372   .     A
C82    C95     1.470   .     S
C82    C1412   1.436   1_554 S
C83    O132    1.396   .     S
C83    C172    1.511   .     S
C83    O220    1.225   .     S
C84    O134    1.396   .     S
C85    H127    1.112   .     S
C85    C87     1.528   .     S
C85    C102    1.526   .     S
C85    H128    1.105   .     S
C86    O139    1.294   .     A
C86    O141    1.308   .     A
C87    H126    1.111   .     S
C87    H125    1.107   .     S
C87    H124    1.111   .     S
C88    H108    1.112   .     S
C88    H107    1.105   .     S
C88    C89     1.528   .     S
C89    H104    1.111   .     S
C89    H106    1.110   .     S
C89    H105    1.107   .     S
C90    H113    1.087   .     S
C90    H112    1.109   .     S
C90    C91     1.525   .     S
C91    H110    1.104   .     S
C91    H111    1.108   .     S
C91    H109    1.108   .     S
C92    H118    1.088   .     S
C92    H119    1.110   .     S
C92    C93     1.527   .     S
C93    H116    1.110   .     S
C93    H117    1.108   .     S
C93    H115    1.103   .     S
C94    O136    1.394   .     S
C94    O135    1.220   .     D
C95    O137    1.219   .     D
C95    O138    1.393   .     S
C96    O142    1.277   .     A
C96    C98     1.404   .     S
C96    O144    1.302   .     A
C97    O143    1.277   .     A
C97    C99     1.405   .     S
C97    O145    1.303   .     A
C99    C172    1.357   .     S
C99    C158    1.511   .     S
C100   H103    1.076   .     S
C100   C546    1.376   1_545 S
C101   H114    1.076   .     S
C101   C298    1.376   .     S
C102   C322    1.376   .     S
H120   O136    1.013   .     S
H121   O138    1.013   .     S
H122   O132    1.014   .     S
H123   O134    1.014   .     S
N129   Zn147   2.045   .     S
N130   Zn148   2.045   .     S
O131   Zn147   2.021   .     S
O133   C158    1.223   .     S
O139   Zn148   2.021   .     S
O140   Zn148   2.012   .     S
O141   Zn147   2.012   .     S
O142   Zn147   1.993   .     S
O143   Zn148   1.993   .     S
O144   Zn148   1.975   .     S
O145   Zn147   1.975   .     S
C149   C152    1.438   .     S
C149   O214    1.308   .     A
C149   O205    1.294   .     A
C150   C152    1.415   .     A
C150   C162    1.526   .     S
C150   C619    1.376   1_545 S
C151   C175    1.397   .     A
C151   C176    1.416   .     A
C151   C160    1.438   .     S
C152   C174    1.397   .     A
C153   N204    1.382   .     A
C153   C164    1.520   .     S
C153   C1487   1.435   1_554 S
C154   N203    1.383   .     A
C154   C166    1.520   .     S
C154   C822    1.436   .     S
C155   N203    1.374   .     A
C155   C168    1.471   .     S
C155   C819    1.435   .     S
C156   N204    1.372   .     A
C156   C169    1.470   .     S
C156   C1486   1.436   1_554 S
C157   O206    1.396   .     S
C157   C24     1.511   1_655 S
C157   O72     1.225   1_655 S
C158   O208    1.396   .     S
C159   H201    1.112   .     S
C159   C161    1.528   .     S
C159   C176    1.526   .     S
C159   H202    1.105   .     S
C160   O213    1.294   .     A
C160   O215    1.308   .     A
C161   H200    1.111   .     S
C161   H199    1.107   .     S
C161   H198    1.111   .     S
C162   H182    1.112   .     S
C162   H181    1.105   .     S
C162   C163    1.528   .     S
C163   H178    1.111   .     S
C163   H180    1.110   .     S
C163   H179    1.107   .     S
C164   H187    1.087   .     S
C164   H186    1.109   .     S
C164   C165    1.525   .     S
C165   H184    1.104   .     S
C165   H185    1.108   .     S
C165   H183    1.108   .     S
C166   H192    1.088   .     S
C166   H193    1.110   .     S
C166   C167    1.527   .     S
C167   H190    1.110   .     S
C167   H191    1.108   .     S
C167   H189    1.103   .     S
C168   O210    1.394   .     S
C168   O209    1.220   .     D
C169   O211    1.219   .     D
C169   O212    1.393   .     S
C170   O216    1.277   .     A
C170   C172    1.404   .     S
C170   O218    1.302   .     A
C171   O217    1.277   .     A
C171   C173    1.405   .     S
C171   O219    1.303   .     A
C173   C24     1.357   1_655 S
C173   C10     1.511   1_655 S
C174   H177    1.076   .     S
C174   C620    1.376   1_545 S
C175   H188    1.076   .     S
C175   C372    1.376   .     S
C176   C396    1.376   .     S
H194   O210    1.013   .     S
H195   O212    1.013   .     S
H196   O206    1.014   .     S
H197   O208    1.014   .     S
N203   Zn221   2.045   .     S
N204   Zn222   2.045   .     S
O205   Zn221   2.021   .     S
O207   C10     1.223   1_655 S
O213   Zn222   2.021   .     S
O214   Zn222   2.012   .     S
O215   Zn221   2.012   .     S
O216   Zn221   1.993   .     S
O217   Zn222   1.993   .     S
O218   Zn222   1.975   .     S
O219   Zn221   1.975   .     S
C223   C226    1.438   .     S
C223   O288    1.308   .     A
C223   O279    1.294   .     A
C224   C226    1.415   .     A
C224   C236    1.526   .     S
C225   C249    1.397   .     A
C225   C250    1.416   .     A
C225   C234    1.438   .     S
C226   C248    1.397   .     A
C227   N278    1.382   .     A
C227   C238    1.520   .     S
C227   C1561   1.435   1_554 S
C228   N277    1.383   .     A
C228   C240    1.520   .     S
C228   C896    1.436   .     S
C229   N277    1.374   .     A
C229   C242    1.471   .     S
C229   C893    1.435   .     S
C230   N278    1.372   .     A
C230   C243    1.470   .     S
C230   C1560   1.436   1_554 S
C231   O280    1.396   .     S
C231   C320    1.511   .     S
C231   O368    1.225   .     S
C232   O282    1.396   .     S
C232   C395    1.511   1_455 S
C232   O429    1.223   1_455 S
C233   H275    1.112   .     S
C233   C235    1.528   .     S
C233   C250    1.526   .     S
C233   H276    1.105   .     S
C234   O287    1.294   .     A
C234   O289    1.308   .     A
C235   H274    1.111   .     S
C235   H273    1.107   .     S
C235   H272    1.111   .     S
C236   H256    1.112   .     S
C236   H255    1.105   .     S
C236   C237    1.528   .     S
C237   H252    1.111   .     S
C237   H254    1.110   .     S
C237   H253    1.107   .     S
C238   H261    1.087   .     S
C238   H260    1.109   .     S
C238   C239    1.525   .     S
C239   H258    1.104   .     S
C239   H259    1.108   .     S
C239   H257    1.108   .     S
C240   H266    1.088   .     S
C240   H267    1.110   .     S
C240   C241    1.527   .     S
C241   H264    1.110   .     S
C241   H265    1.108   .     S
C241   H263    1.103   .     S
C242   O284    1.394   .     S
C242   O283    1.220   .     D
C243   O285    1.219   .     D
C243   O286    1.393   .     S
C244   O290    1.277   .     A
C244   C246    1.404   .     S
C244   O292    1.302   .     A
C245   O291    1.277   .     A
C245   C247    1.405   .     S
C245   O293    1.303   .     A
C246   C379    1.511   1_455 S
C246   C395    1.357   1_455 S
C247   C320    1.357   .     S
C247   C306    1.511   .     S
C248   H251    1.076   .     S
C249   H262    1.076   .     S
C249   C446    1.376   .     S
C250   C470    1.376   .     S
H268   O284    1.013   .     S
H269   O286    1.013   .     S
H270   O280    1.014   .     S
H271   O282    1.014   .     S
N277   Zn295   2.045   .     S
N278   Zn296   2.045   .     S
O279   Zn295   2.021   .     S
O281   C306    1.223   .     S
O287   Zn296   2.021   .     S
O288   Zn296   2.012   .     S
O289   Zn295   2.012   .     S
O290   Zn295   1.993   .     S
O291   Zn296   1.993   .     S
O292   Zn296   1.975   .     S
O293   Zn295   1.975   .     S
O294   C379    1.225   1_455 S
C297   C300    1.438   .     S
C297   O362    1.308   .     A
C297   O353    1.294   .     A
C298   C300    1.415   .     A
C298   C310    1.526   .     S
C299   C323    1.397   .     A
C299   C324    1.416   .     A
C299   C308    1.438   .     S
C300   C322    1.397   .     A
C301   N352    1.382   .     A
C301   C312    1.520   .     S
C301   C1635   1.435   1_554 S
C302   N351    1.383   .     A
C302   C314    1.520   .     S
C302   C970    1.436   .     S
C303   N351    1.374   .     A
C303   C316    1.471   .     S
C303   C967    1.435   .     S
C304   N352    1.372   .     A
C304   C317    1.470   .     S
C304   C1634   1.436   1_554 S
C305   O354    1.396   .     S
C305   C394    1.511   .     S
C305   O442    1.225   .     S
C306   O356    1.396   .     S
C307   H349    1.112   .     S
C307   C309    1.528   .     S
C307   C324    1.526   .     S
C307   H350    1.105   .     S
C308   O361    1.294   .     A
C308   O363    1.308   .     A
C309   H348    1.111   .     S
C309   H347    1.107   .     S
C309   H346    1.111   .     S
C310   H330    1.112   .     S
C310   H329    1.105   .     S
C310   C311    1.528   .     S
C311   H326    1.111   .     S
C311   H328    1.110   .     S
C311   H327    1.107   .     S
C312   H335    1.087   .     S
C312   H334    1.109   .     S
C312   C313    1.525   .     S
C313   H332    1.104   .     S
C313   H333    1.108   .     S
C313   H331    1.108   .     S
C314   H340    1.088   .     S
C314   H341    1.110   .     S
C314   C315    1.527   .     S
C315   H338    1.110   .     S
C315   H339    1.108   .     S
C315   H337    1.103   .     S
C316   O358    1.394   .     S
C316   O357    1.220   .     D
C317   O359    1.219   .     D
C317   O360    1.393   .     S
C318   O364    1.277   .     A
C318   C320    1.404   .     S
C318   O366    1.302   .     A
C319   O365    1.277   .     A
C319   C321    1.405   .     S
C319   O367    1.303   .     A
C321   C394    1.357   .     S
C321   C380    1.511   .     S
C322   H325    1.076   .     S
C323   H336    1.076   .     S
C323   C520    1.376   .     S
C324   C544    1.376   .     S
H342   O358    1.013   .     S
H343   O360    1.013   .     S
H344   O354    1.014   .     S
H345   O356    1.014   .     S
N351   Zn369   2.045   .     S
N352   Zn370   2.045   .     S
O353   Zn369   2.021   .     S
O355   C380    1.223   .     S
O361   Zn370   2.021   .     S
O362   Zn370   2.012   .     S
O363   Zn369   2.012   .     S
O364   Zn369   1.993   .     S
O365   Zn370   1.993   .     S
O366   Zn370   1.975   .     S
O367   Zn369   1.975   .     S
C371   C374    1.438   .     S
C371   O436    1.308   .     A
C371   O427    1.294   .     A
C372   C374    1.415   .     A
C372   C384    1.526   .     S
C373   C397    1.397   .     A
C373   C398    1.416   .     A
C373   C382    1.438   .     S
C374   C396    1.397   .     A
C375   N426    1.382   .     A
C375   C386    1.520   .     S
C375   C1709   1.435   1_554 S
C376   N425    1.383   .     A
C376   C388    1.520   .     S
C376   C1044   1.436   .     S
C377   N425    1.374   .     A
C377   C390    1.471   .     S
C377   C1041   1.435   .     S
C378   N426    1.372   .     A
C378   C391    1.470   .     S
C378   C1708   1.436   1_554 S
C379   O428    1.396   .     S
C379   C246    1.511   1_655 S
C379   O294    1.225   1_655 S
C380   O430    1.396   .     S
C381   H423    1.112   .     S
C381   C383    1.528   .     S
C381   C398    1.526   .     S
C381   H424    1.105   .     S
C382   O435    1.294   .     A
C382   O437    1.308   .     A
C383   H422    1.111   .     S
C383   H421    1.107   .     S
C383   H420    1.111   .     S
C384   H404    1.112   .     S
C384   H403    1.105   .     S
C384   C385    1.528   .     S
C385   H400    1.111   .     S
C385   H402    1.110   .     S
C385   H401    1.107   .     S
C386   H409    1.087   .     S
C386   H408    1.109   .     S
C386   C387    1.525   .     S
C387   H406    1.104   .     S
C387   H407    1.108   .     S
C387   H405    1.108   .     S
C388   H414    1.088   .     S
C388   H415    1.110   .     S
C388   C389    1.527   .     S
C389   H412    1.110   .     S
C389   H413    1.108   .     S
C389   H411    1.103   .     S
C390   O432    1.394   .     S
C390   O431    1.220   .     D
C391   O433    1.219   .     D
C391   O434    1.393   .     S
C392   O438    1.277   .     A
C392   C394    1.404   .     S
C392   O440    1.302   .     A
C393   O439    1.277   .     A
C393   C395    1.405   .     S
C393   O441    1.303   .     A
C395   C246    1.357   1_655 S
C395   C232    1.511   1_655 S
C396   H399    1.076   .     S
C397   H410    1.076   .     S
C397   C594    1.376   .     S
C398   C618    1.376   .     S
H416   O432    1.013   .     S
H417   O434    1.013   .     S
H418   O428    1.014   .     S
H419   O430    1.014   .     S
N425   Zn443   2.045   .     S
N426   Zn444   2.045   .     S
O427   Zn443   2.021   .     S
O429   C232    1.223   1_655 S
O435   Zn444   2.021   .     S
O436   Zn444   2.012   .     S
O437   Zn443   2.012   .     S
O438   Zn443   1.993   .     S
O439   Zn444   1.993   .     S
O440   Zn444   1.975   .     S
O441   Zn443   1.975   .     S
C445   C448    1.438   .     S
C445   O510    1.308   .     A
C445   O501    1.294   .     A
C446   C448    1.415   .     A
C446   C458    1.526   .     S
C447   C471    1.397   .     A
C447   C472    1.416   .     A
C447   C456    1.438   .     S
C448   C470    1.397   .     A
C449   N500    1.382   .     A
C449   C460    1.520   .     S
C449   C1783   1.435   1_554 S
C450   N499    1.383   .     A
C450   C462    1.520   .     S
C450   C1118   1.436   .     S
C451   N499    1.374   .     A
C451   C464    1.471   .     S
C451   C1115   1.435   .     S
C452   N500    1.372   .     A
C452   C465    1.470   .     S
C452   C1782   1.436   1_554 S
C453   O502    1.396   .     S
C453   C542    1.511   .     S
C453   O590    1.225   .     S
C454   O504    1.396   .     S
C454   C617    1.511   1_455 S
C454   O651    1.223   1_455 S
C455   H497    1.112   .     S
C455   C457    1.528   .     S
C455   C472    1.526   .     S
C455   H498    1.105   .     S
C456   O509    1.294   .     A
C456   O511    1.308   .     A
C457   H496    1.111   .     S
C457   H495    1.107   .     S
C457   H494    1.111   .     S
C458   H478    1.112   .     S
C458   H477    1.105   .     S
C458   C459    1.528   .     S
C459   H474    1.111   .     S
C459   H476    1.110   .     S
C459   H475    1.107   .     S
C460   H483    1.087   .     S
C460   H482    1.109   .     S
C460   C461    1.525   .     S
C461   H480    1.104   .     S
C461   H481    1.108   .     S
C461   H479    1.108   .     S
C462   H488    1.088   .     S
C462   H489    1.110   .     S
C462   C463    1.527   .     S
C463   H486    1.110   .     S
C463   H487    1.108   .     S
C463   H485    1.103   .     S
C464   O506    1.394   .     S
C464   O505    1.220   .     D
C465   O507    1.219   .     D
C465   O508    1.393   .     S
C466   O512    1.277   .     A
C466   C468    1.404   .     S
C466   O514    1.302   .     A
C467   O513    1.277   .     A
C467   C469    1.405   .     S
C467   O515    1.303   .     A
C468   C601    1.511   1_455 S
C468   C617    1.357   1_455 S
C469   C542    1.357   .     S
C469   C528    1.511   .     S
C470   H473    1.076   .     S
C471   H484    1.076   .     S
C471   C2      1.376   1_565 S
C472   C26     1.376   1_565 S
H490   O506    1.013   .     S
H491   O508    1.013   .     S
H492   O502    1.014   .     S
H493   O504    1.014   .     S
N499   Zn517   2.045   .     S
N500   Zn518   2.045   .     S
O501   Zn517   2.021   .     S
O503   C528    1.223   .     S
O509   Zn518   2.021   .     S
O510   Zn518   2.012   .     S
O511   Zn517   2.012   .     S
O512   Zn517   1.993   .     S
O513   Zn518   1.993   .     S
O514   Zn518   1.975   .     S
O515   Zn517   1.975   .     S
O516   C601    1.225   1_455 S
C519   C522    1.438   .     S
C519   O584    1.308   .     A
C519   O575    1.294   .     A
C520   C522    1.415   .     A
C520   C532    1.526   .     S
C521   C545    1.397   .     A
C521   C546    1.416   .     A
C521   C530    1.438   .     S
C522   C544    1.397   .     A
C523   N574    1.382   .     A
C523   C534    1.520   .     S
C523   C1857   1.435   1_554 S
C524   N573    1.383   .     A
C524   C536    1.520   .     S
C524   C1192   1.436   .     S
C525   N573    1.374   .     A
C525   C538    1.471   .     S
C525   C1189   1.435   .     S
C526   N574    1.372   .     A
C526   C539    1.470   .     S
C526   C1856   1.436   1_554 S
C527   O576    1.396   .     S
C527   C616    1.511   .     S
C527   O664    1.225   .     S
C528   O578    1.396   .     S
C529   H571    1.112   .     S
C529   C531    1.528   .     S
C529   C546    1.526   .     S
C529   H572    1.105   .     S
C530   O583    1.294   .     A
C530   O585    1.308   .     A
C531   H570    1.111   .     S
C531   H569    1.107   .     S
C531   H568    1.111   .     S
C532   H552    1.112   .     S
C532   H551    1.105   .     S
C532   C533    1.528   .     S
C533   H548    1.111   .     S
C533   H550    1.110   .     S
C533   H549    1.107   .     S
C534   H557    1.087   .     S
C534   H556    1.109   .     S
C534   C535    1.525   .     S
C535   H554    1.104   .     S
C535   H555    1.108   .     S
C535   H553    1.108   .     S
C536   H562    1.088   .     S
C536   H563    1.110   .     S
C536   C537    1.527   .     S
C537   H560    1.110   .     S
C537   H561    1.108   .     S
C537   H559    1.103   .     S
C538   O580    1.394   .     S
C538   O579    1.220   .     D
C539   O581    1.219   .     D
C539   O582    1.393   .     S
C540   O586    1.277   .     A
C540   C542    1.404   .     S
C540   O588    1.302   .     A
C541   O587    1.277   .     A
C541   C543    1.405   .     S
C541   O589    1.303   .     A
C543   C616    1.357   .     S
C543   C602    1.511   .     S
C544   H547    1.076   .     S
C545   H558    1.076   .     S
C545   C76     1.376   1_565 S
C546   C100    1.376   1_565 S
H564   O580    1.013   .     S
H565   O582    1.013   .     S
H566   O576    1.014   .     S
H567   O578    1.014   .     S
N573   Zn591   2.045   .     S
N574   Zn592   2.045   .     S
O575   Zn591   2.021   .     S
O577   C602    1.223   .     S
O583   Zn592   2.021   .     S
O584   Zn592   2.012   .     S
O585   Zn591   2.012   .     S
O586   Zn591   1.993   .     S
O587   Zn592   1.993   .     S
O588   Zn592   1.975   .     S
O589   Zn591   1.975   .     S
C593   C596    1.438   .     S
C593   O658    1.308   .     A
C593   O649    1.294   .     A
C594   C596    1.415   .     A
C594   C606    1.526   .     S
C595   C619    1.397   .     A
C595   C620    1.416   .     A
C595   C604    1.438   .     S
C596   C618    1.397   .     A
C597   N648    1.382   .     A
C597   C608    1.520   .     S
C597   C1931   1.435   1_554 S
C598   N647    1.383   .     A
C598   C610    1.520   .     S
C598   C1266   1.436   .     S
C599   N647    1.374   .     A
C599   C612    1.471   .     S
C599   C1263   1.435   .     S
C600   N648    1.372   .     A
C600   C613    1.470   .     S
C600   C1930   1.436   1_554 S
C601   O650    1.396   .     S
C601   C468    1.511   1_655 S
C601   O516    1.225   1_655 S
C602   O652    1.396   .     S
C603   H645    1.112   .     S
C603   C605    1.528   .     S
C603   C620    1.526   .     S
C603   H646    1.105   .     S
C604   O657    1.294   .     A
C604   O659    1.308   .     A
C605   H644    1.111   .     S
C605   H643    1.107   .     S
C605   H642    1.111   .     S
C606   H626    1.112   .     S
C606   H625    1.105   .     S
C606   C607    1.528   .     S
C607   H622    1.111   .     S
C607   H624    1.110   .     S
C607   H623    1.107   .     S
C608   H631    1.087   .     S
C608   H630    1.109   .     S
C608   C609    1.525   .     S
C609   H628    1.104   .     S
C609   H629    1.108   .     S
C609   H627    1.108   .     S
C610   H636    1.088   .     S
C610   H637    1.110   .     S
C610   C611    1.527   .     S
C611   H634    1.110   .     S
C611   H635    1.108   .     S
C611   H633    1.103   .     S
C612   O654    1.394   .     S
C612   O653    1.220   .     D
C613   O655    1.219   .     D
C613   O656    1.393   .     S
C614   O660    1.277   .     A
C614   C616    1.404   .     S
C614   O662    1.302   .     A
C615   O661    1.277   .     A
C615   C617    1.405   .     S
C615   O663    1.303   .     A
C617   C468    1.357   1_655 S
C617   C454    1.511   1_655 S
C618   H621    1.076   .     S
C619   H632    1.076   .     S
C619   C150    1.376   1_565 S
C620   C174    1.376   1_565 S
H638   O654    1.013   .     S
H639   O656    1.013   .     S
H640   O650    1.014   .     S
H641   O652    1.014   .     S
N647   Zn665   2.045   .     S
N648   Zn666   2.045   .     S
O649   Zn665   2.021   .     S
O651   C454    1.223   1_655 S
O657   Zn666   2.021   .     S
O658   Zn666   2.012   .     S
O659   Zn665   2.012   .     S
O660   Zn665   1.993   .     S
O661   Zn666   1.993   .     S
O662   Zn666   1.975   .     S
O663   Zn665   1.975   .     S
C667   C670    1.438   .     S
C667   O732    1.308   .     A
C667   O723    1.294   .     A
C668   C670    1.415   .     A
C668   C680    1.526   .     S
C668   C1137   1.376   1_545 S
C669   C693    1.397   .     A
C669   C694    1.416   .     A
C669   C678    1.438   .     S
C670   C692    1.397   .     A
C671   N722    1.382   .     A
C671   C682    1.520   .     S
C672   N721    1.383   .     A
C672   C684    1.520   .     S
C672   C1340   1.436   .     S
C673   N721    1.374   .     A
C673   C686    1.471   .     S
C673   C1337   1.435   .     S
C674   N722    1.372   .     A
C674   C687    1.470   .     S
C675   O724    1.396   .     S
C675   C764    1.511   .     S
C675   O812    1.225   .     S
C676   O726    1.396   .     S
C676   C839    1.511   1_455 S
C676   O873    1.223   1_455 S
C677   H719    1.112   .     S
C677   C679    1.528   .     S
C677   C694    1.526   .     S
C677   H720    1.105   .     S
C678   O731    1.294   .     A
C678   O733    1.308   .     A
C679   H718    1.111   .     S
C679   H717    1.107   .     S
C679   H716    1.111   .     S
C680   H700    1.112   .     S
C680   H699    1.105   .     S
C680   C681    1.528   .     S
C681   H696    1.111   .     S
C681   H698    1.110   .     S
C681   H697    1.107   .     S
C682   H705    1.087   .     S
C682   H704    1.109   .     S
C682   C683    1.525   .     S
C683   H702    1.104   .     S
C683   H703    1.108   .     S
C683   H701    1.108   .     S
C684   H710    1.088   .     S
C684   H711    1.110   .     S
C684   C685    1.527   .     S
C685   H708    1.110   .     S
C685   H709    1.108   .     S
C685   H707    1.103   .     S
C686   O728    1.394   .     S
C686   O727    1.220   .     D
C687   O729    1.219   .     D
C687   O730    1.393   .     S
C688   O734    1.277   .     A
C688   C690    1.404   .     S
C688   O736    1.302   .     A
C689   O735    1.277   .     A
C689   C691    1.405   .     S
C689   O737    1.303   .     A
C690   C823    1.511   1_455 S
C690   C839    1.357   1_455 S
C691   C764    1.357   .     S
C691   C750    1.511   .     S
C692   H695    1.076   .     S
C692   C1138   1.376   1_545 S
C693   H706    1.076   .     S
C693   C890    1.376   .     S
C694   C914    1.376   .     S
H712   O728    1.013   .     S
H713   O730    1.013   .     S
H714   O724    1.014   .     S
H715   O726    1.014   .     S
N721   Zn739   2.045   .     S
N722   Zn740   2.045   .     S
O723   Zn739   2.021   .     S
O725   C750    1.223   .     S
O731   Zn740   2.021   .     S
O732   Zn740   2.012   .     S
O733   Zn739   2.012   .     S
O734   Zn739   1.993   .     S
O735   Zn740   1.993   .     S
O736   Zn740   1.975   .     S
O737   Zn739   1.975   .     S
O738   C823    1.225   1_455 S
C741   C744    1.438   .     S
C741   O806    1.308   .     A
C741   O797    1.294   .     A
C742   C744    1.415   .     A
C742   C754    1.526   .     S
C742   C1211   1.376   1_545 S
C743   C767    1.397   .     A
C743   C768    1.416   .     A
C743   C752    1.438   .     S
C744   C766    1.397   .     A
C745   N796    1.382   .     A
C745   C756    1.520   .     S
C746   N795    1.383   .     A
C746   C758    1.520   .     S
C746   C1414   1.436   .     S
C747   N795    1.374   .     A
C747   C760    1.471   .     S
C747   C1411   1.435   .     S
C748   N796    1.372   .     A
C748   C761    1.470   .     S
C749   O798    1.396   .     S
C749   C838    1.511   .     S
C749   O886    1.225   .     S
C750   O800    1.396   .     S
C751   H793    1.112   .     S
C751   C753    1.528   .     S
C751   C768    1.526   .     S
C751   H794    1.105   .     S
C752   O805    1.294   .     A
C752   O807    1.308   .     A
C753   H792    1.111   .     S
C753   H791    1.107   .     S
C753   H790    1.111   .     S
C754   H774    1.112   .     S
C754   H773    1.105   .     S
C754   C755    1.528   .     S
C755   H770    1.111   .     S
C755   H772    1.110   .     S
C755   H771    1.107   .     S
C756   H779    1.087   .     S
C756   H778    1.109   .     S
C756   C757    1.525   .     S
C757   H776    1.104   .     S
C757   H777    1.108   .     S
C757   H775    1.108   .     S
C758   H784    1.088   .     S
C758   H785    1.110   .     S
C758   C759    1.527   .     S
C759   H782    1.110   .     S
C759   H783    1.108   .     S
C759   H781    1.103   .     S
C760   O802    1.394   .     S
C760   O801    1.220   .     D
C761   O803    1.219   .     D
C761   O804    1.393   .     S
C762   O808    1.277   .     A
C762   C764    1.404   .     S
C762   O810    1.302   .     A
C763   O809    1.277   .     A
C763   C765    1.405   .     S
C763   O811    1.303   .     A
C765   C838    1.357   .     S
C765   C824    1.511   .     S
C766   H769    1.076   .     S
C766   C1212   1.376   1_545 S
C767   H780    1.076   .     S
C767   C964    1.376   .     S
C768   C988    1.376   .     S
H786   O802    1.013   .     S
H787   O804    1.013   .     S
H788   O798    1.014   .     S
H789   O800    1.014   .     S
N795   Zn813   2.045   .     S
N796   Zn814   2.045   .     S
O797   Zn813   2.021   .     S
O799   C824    1.223   .     S
O805   Zn814   2.021   .     S
O806   Zn814   2.012   .     S
O807   Zn813   2.012   .     S
O808   Zn813   1.993   .     S
O809   Zn814   1.993   .     S
O810   Zn814   1.975   .     S
O811   Zn813   1.975   .     S
C815   C818    1.438   .     S
C815   O880    1.308   .     A
C815   O871    1.294   .     A
C816   C818    1.415   .     A
C816   C828    1.526   .     S
C816   C1285   1.376   1_545 S
C817   C841    1.397   .     A
C817   C842    1.416   .     A
C817   C826    1.438   .     S
C818   C840    1.397   .     A
C819   N870    1.382   .     A
C819   C830    1.520   .     S
C820   N869    1.383   .     A
C820   C832    1.520   .     S
C820   C1488   1.436   .     S
C821   N869    1.374   .     A
C821   C834    1.471   .     S
C821   C1485   1.435   .     S
C822   N870    1.372   .     A
C822   C835    1.470   .     S
C823   O872    1.396   .     S
C823   C690    1.511   1_655 S
C823   O738    1.225   1_655 S
C824   O874    1.396   .     S
C825   H867    1.112   .     S
C825   C827    1.528   .     S
C825   C842    1.526   .     S
C825   H868    1.105   .     S
C826   O879    1.294   .     A
C826   O881    1.308   .     A
C827   H866    1.111   .     S
C827   H865    1.107   .     S
C827   H864    1.111   .     S
C828   H848    1.112   .     S
C828   H847    1.105   .     S
C828   C829    1.528   .     S
C829   H844    1.111   .     S
C829   H846    1.110   .     S
C829   H845    1.107   .     S
C830   H853    1.087   .     S
C830   H852    1.109   .     S
C830   C831    1.525   .     S
C831   H850    1.104   .     S
C831   H851    1.108   .     S
C831   H849    1.108   .     S
C832   H858    1.088   .     S
C832   H859    1.110   .     S
C832   C833    1.527   .     S
C833   H856    1.110   .     S
C833   H857    1.108   .     S
C833   H855    1.103   .     S
C834   O876    1.394   .     S
C834   O875    1.220   .     D
C835   O877    1.219   .     D
C835   O878    1.393   .     S
C836   O882    1.277   .     A
C836   C838    1.404   .     S
C836   O884    1.302   .     A
C837   O883    1.277   .     A
C837   C839    1.405   .     S
C837   O885    1.303   .     A
C839   C690    1.357   1_655 S
C839   C676    1.511   1_655 S
C840   H843    1.076   .     S
C840   C1286   1.376   1_545 S
C841   H854    1.076   .     S
C841   C1038   1.376   .     S
C842   C1062   1.376   .     S
H860   O876    1.013   .     S
H861   O878    1.013   .     S
H862   O872    1.014   .     S
H863   O874    1.014   .     S
N869   Zn887   2.045   .     S
N870   Zn888   2.045   .     S
O871   Zn887   2.021   .     S
O873   C676    1.223   1_655 S
O879   Zn888   2.021   .     S
O880   Zn888   2.012   .     S
O881   Zn887   2.012   .     S
O882   Zn887   1.993   .     S
O883   Zn888   1.993   .     S
O884   Zn888   1.975   .     S
O885   Zn887   1.975   .     S
C889   C892    1.438   .     S
C889   O954    1.308   .     A
C889   O945    1.294   .     A
C890   C892    1.415   .     A
C890   C902    1.526   .     S
C891   C915    1.397   .     A
C891   C916    1.416   .     A
C891   C900    1.438   .     S
C892   C914    1.397   .     A
C893   N944    1.382   .     A
C893   C904    1.520   .     S
C894   N943    1.383   .     A
C894   C906    1.520   .     S
C894   C1562   1.436   .     S
C895   N943    1.374   .     A
C895   C908    1.471   .     S
C895   C1559   1.435   .     S
C896   N944    1.372   .     A
C896   C909    1.470   .     S
C897   O946    1.396   .     S
C897   C986    1.511   .     S
C897   O1034   1.225   .     S
C898   O948    1.396   .     S
C898   C1061   1.511   1_455 S
C898   O1095   1.223   1_455 S
C899   H941    1.112   .     S
C899   C901    1.528   .     S
C899   C916    1.526   .     S
C899   H942    1.105   .     S
C900   O953    1.294   .     A
C900   O955    1.308   .     A
C901   H940    1.111   .     S
C901   H939    1.107   .     S
C901   H938    1.111   .     S
C902   H922    1.112   .     S
C902   H921    1.105   .     S
C902   C903    1.528   .     S
C903   H918    1.111   .     S
C903   H920    1.110   .     S
C903   H919    1.107   .     S
C904   H927    1.087   .     S
C904   H926    1.109   .     S
C904   C905    1.525   .     S
C905   H924    1.104   .     S
C905   H925    1.108   .     S
C905   H923    1.108   .     S
C906   H932    1.088   .     S
C906   H933    1.110   .     S
C906   C907    1.527   .     S
C907   H930    1.110   .     S
C907   H931    1.108   .     S
C907   H929    1.103   .     S
C908   O950    1.394   .     S
C908   O949    1.220   .     D
C909   O951    1.219   .     D
C909   O952    1.393   .     S
C910   O956    1.277   .     A
C910   C912    1.404   .     S
C910   O958    1.302   .     A
C911   O957    1.277   .     A
C911   C913    1.405   .     S
C911   O959    1.303   .     A
C912   C1045   1.511   1_455 S
C912   C1061   1.357   1_455 S
C913   C986    1.357   .     S
C913   C972    1.511   .     S
C914   H917    1.076   .     S
C915   H928    1.076   .     S
C915   C1112   1.376   .     S
C916   C1136   1.376   .     S
H934   O950    1.013   .     S
H935   O952    1.013   .     S
H936   O946    1.014   .     S
H937   O948    1.014   .     S
N943   Zn961   2.045   .     S
N944   Zn962   2.045   .     S
O945   Zn961   2.021   .     S
O947   C972    1.223   .     S
O953   Zn962   2.021   .     S
O954   Zn962   2.012   .     S
O955   Zn961   2.012   .     S
O956   Zn961   1.993   .     S
O957   Zn962   1.993   .     S
O958   Zn962   1.975   .     S
O959   Zn961   1.975   .     S
O960   C1045   1.225   1_455 S
C963   C966    1.438   .     S
C963   O1028   1.308   .     A
C963   O1019   1.294   .     A
C964   C966    1.415   .     A
C964   C976    1.526   .     S
C965   C989    1.397   .     A
C965   C990    1.416   .     A
C965   C974    1.438   .     S
C966   C988    1.397   .     A
C967   N1018   1.382   .     A
C967   C978    1.520   .     S
C968   N1017   1.383   .     A
C968   C980    1.520   .     S
C968   C1636   1.436   .     S
C969   N1017   1.374   .     A
C969   C982    1.471   .     S
C969   C1633   1.435   .     S
C970   N1018   1.372   .     A
C970   C983    1.470   .     S
C971   O1020   1.396   .     S
C971   C1060   1.511   .     S
C971   O1108   1.225   .     S
C972   O1022   1.396   .     S
C973   H1015   1.112   .     S
C973   C975    1.528   .     S
C973   C990    1.526   .     S
C973   H1016   1.105   .     S
C974   O1027   1.294   .     A
C974   O1029   1.308   .     A
C975   H1014   1.111   .     S
C975   H1013   1.107   .     S
C975   H1012   1.111   .     S
C976   H996    1.112   .     S
C976   H995    1.105   .     S
C976   C977    1.528   .     S
C977   H992    1.111   .     S
C977   H994    1.110   .     S
C977   H993    1.107   .     S
C978   H1001   1.087   .     S
C978   H1000   1.109   .     S
C978   C979    1.525   .     S
C979   H998    1.104   .     S
C979   H999    1.108   .     S
C979   H997    1.108   .     S
C980   H1006   1.088   .     S
C980   H1007   1.110   .     S
C980   C981    1.527   .     S
C981   H1004   1.110   .     S
C981   H1005   1.108   .     S
C981   H1003   1.103   .     S
C982   O1024   1.394   .     S
C982   O1023   1.220   .     D
C983   O1025   1.219   .     D
C983   O1026   1.393   .     S
C984   O1030   1.277   .     A
C984   C986    1.404   .     S
C984   O1032   1.302   .     A
C985   O1031   1.277   .     A
C985   C987    1.405   .     S
C985   O1033   1.303   .     A
C987   C1060   1.357   .     S
C987   C1046   1.511   .     S
C988   H991    1.076   .     S
C989   H1002   1.076   .     S
C989   C1186   1.376   .     S
C990   C1210   1.376   .     S
H1008  O1024   1.013   .     S
H1009  O1026   1.013   .     S
H1010  O1020   1.014   .     S
H1011  O1022   1.014   .     S
N1017  Zn1035  2.045   .     S
N1018  Zn1036  2.045   .     S
O1019  Zn1035  2.021   .     S
O1021  C1046   1.223   .     S
O1027  Zn1036  2.021   .     S
O1028  Zn1036  2.012   .     S
O1029  Zn1035  2.012   .     S
O1030  Zn1035  1.993   .     S
O1031  Zn1036  1.993   .     S
O1032  Zn1036  1.975   .     S
O1033  Zn1035  1.975   .     S
C1037  C1040   1.438   .     S
C1037  O1102   1.308   .     A
C1037  O1093   1.294   .     A
C1038  C1040   1.415   .     A
C1038  C1050   1.526   .     S
C1039  C1063   1.397   .     A
C1039  C1064   1.416   .     A
C1039  C1048   1.438   .     S
C1040  C1062   1.397   .     A
C1041  N1092   1.382   .     A
C1041  C1052   1.520   .     S
C1042  N1091   1.383   .     A
C1042  C1054   1.520   .     S
C1042  C1710   1.436   .     S
C1043  N1091   1.374   .     A
C1043  C1056   1.471   .     S
C1043  C1707   1.435   .     S
C1044  N1092   1.372   .     A
C1044  C1057   1.470   .     S
C1045  O1094   1.396   .     S
C1045  C912    1.511   1_655 S
C1045  O960    1.225   1_655 S
C1046  O1096   1.396   .     S
C1047  H1089   1.112   .     S
C1047  C1049   1.528   .     S
C1047  C1064   1.526   .     S
C1047  H1090   1.105   .     S
C1048  O1101   1.294   .     A
C1048  O1103   1.308   .     A
C1049  H1088   1.111   .     S
C1049  H1087   1.107   .     S
C1049  H1086   1.111   .     S
C1050  H1070   1.112   .     S
C1050  H1069   1.105   .     S
C1050  C1051   1.528   .     S
C1051  H1066   1.111   .     S
C1051  H1068   1.110   .     S
C1051  H1067   1.107   .     S
C1052  H1075   1.087   .     S
C1052  H1074   1.109   .     S
C1052  C1053   1.525   .     S
C1053  H1072   1.104   .     S
C1053  H1073   1.108   .     S
C1053  H1071   1.108   .     S
C1054  H1080   1.088   .     S
C1054  H1081   1.110   .     S
C1054  C1055   1.527   .     S
C1055  H1078   1.110   .     S
C1055  H1079   1.108   .     S
C1055  H1077   1.103   .     S
C1056  O1098   1.394   .     S
C1056  O1097   1.220   .     D
C1057  O1099   1.219   .     D
C1057  O1100   1.393   .     S
C1058  O1104   1.277   .     A
C1058  C1060   1.404   .     S
C1058  O1106   1.302   .     A
C1059  O1105   1.277   .     A
C1059  C1061   1.405   .     S
C1059  O1107   1.303   .     A
C1061  C912    1.357   1_655 S
C1061  C898    1.511   1_655 S
C1062  H1065   1.076   .     S
C1063  H1076   1.076   .     S
C1063  C1260   1.376   .     S
C1064  C1284   1.376   .     S
H1082  O1098   1.013   .     S
H1083  O1100   1.013   .     S
H1084  O1094   1.014   .     S
H1085  O1096   1.014   .     S
N1091  Zn1109  2.045   .     S
N1092  Zn1110  2.045   .     S
O1093  Zn1109  2.021   .     S
O1095  C898    1.223   1_655 S
O1101  Zn1110  2.021   .     S
O1102  Zn1110  2.012   .     S
O1103  Zn1109  2.012   .     S
O1104  Zn1109  1.993   .     S
O1105  Zn1110  1.993   .     S
O1106  Zn1110  1.975   .     S
O1107  Zn1109  1.975   .     S
C1111  C1114   1.438   .     S
C1111  O1176   1.308   .     A
C1111  O1167   1.294   .     A
C1112  C1114   1.415   .     A
C1112  C1124   1.526   .     S
C1113  C1137   1.397   .     A
C1113  C1138   1.416   .     A
C1113  C1122   1.438   .     S
C1114  C1136   1.397   .     A
C1115  N1166   1.382   .     A
C1115  C1126   1.520   .     S
C1116  N1165   1.383   .     A
C1116  C1128   1.520   .     S
C1116  C1784   1.436   .     S
C1117  N1165   1.374   .     A
C1117  C1130   1.471   .     S
C1117  C1781   1.435   .     S
C1118  N1166   1.372   .     A
C1118  C1131   1.470   .     S
C1119  O1168   1.396   .     S
C1119  C1208   1.511   .     S
C1119  O1256   1.225   .     S
C1120  O1170   1.396   .     S
C1120  C1283   1.511   1_455 S
C1120  O1317   1.223   1_455 S
C1121  H1163   1.112   .     S
C1121  C1123   1.528   .     S
C1121  C1138   1.526   .     S
C1121  H1164   1.105   .     S
C1122  O1175   1.294   .     A
C1122  O1177   1.308   .     A
C1123  H1162   1.111   .     S
C1123  H1161   1.107   .     S
C1123  H1160   1.111   .     S
C1124  H1144   1.112   .     S
C1124  H1143   1.105   .     S
C1124  C1125   1.528   .     S
C1125  H1140   1.111   .     S
C1125  H1142   1.110   .     S
C1125  H1141   1.107   .     S
C1126  H1149   1.087   .     S
C1126  H1148   1.109   .     S
C1126  C1127   1.525   .     S
C1127  H1146   1.104   .     S
C1127  H1147   1.108   .     S
C1127  H1145   1.108   .     S
C1128  H1154   1.088   .     S
C1128  H1155   1.110   .     S
C1128  C1129   1.527   .     S
C1129  H1152   1.110   .     S
C1129  H1153   1.108   .     S
C1129  H1151   1.103   .     S
C1130  O1172   1.394   .     S
C1130  O1171   1.220   .     D
C1131  O1173   1.219   .     D
C1131  O1174   1.393   .     S
C1132  O1178   1.277   .     A
C1132  C1134   1.404   .     S
C1132  O1180   1.302   .     A
C1133  O1179   1.277   .     A
C1133  C1135   1.405   .     S
C1133  O1181   1.303   .     A
C1134  C1267   1.511   1_455 S
C1134  C1283   1.357   1_455 S
C1135  C1208   1.357   .     S
C1135  C1194   1.511   .     S
C1136  H1139   1.076   .     S
C1137  H1150   1.076   .     S
C1137  C668    1.376   1_565 S
C1138  C692    1.376   1_565 S
H1156  O1172   1.013   .     S
H1157  O1174   1.013   .     S
H1158  O1168   1.014   .     S
H1159  O1170   1.014   .     S
N1165  Zn1183  2.045   .     S
N1166  Zn1184  2.045   .     S
O1167  Zn1183  2.021   .     S
O1169  C1194   1.223   .     S
O1175  Zn1184  2.021   .     S
O1176  Zn1184  2.012   .     S
O1177  Zn1183  2.012   .     S
O1178  Zn1183  1.993   .     S
O1179  Zn1184  1.993   .     S
O1180  Zn1184  1.975   .     S
O1181  Zn1183  1.975   .     S
O1182  C1267   1.225   1_455 S
C1185  C1188   1.438   .     S
C1185  O1250   1.308   .     A
C1185  O1241   1.294   .     A
C1186  C1188   1.415   .     A
C1186  C1198   1.526   .     S
C1187  C1211   1.397   .     A
C1187  C1212   1.416   .     A
C1187  C1196   1.438   .     S
C1188  C1210   1.397   .     A
C1189  N1240   1.382   .     A
C1189  C1200   1.520   .     S
C1190  N1239   1.383   .     A
C1190  C1202   1.520   .     S
C1190  C1858   1.436   .     S
C1191  N1239   1.374   .     A
C1191  C1204   1.471   .     S
C1191  C1855   1.435   .     S
C1192  N1240   1.372   .     A
C1192  C1205   1.470   .     S
C1193  O1242   1.396   .     S
C1193  C1282   1.511   .     S
C1193  O1330   1.225   .     S
C1194  O1244   1.396   .     S
C1195  H1237   1.112   .     S
C1195  C1197   1.528   .     S
C1195  C1212   1.526   .     S
C1195  H1238   1.105   .     S
C1196  O1249   1.294   .     A
C1196  O1251   1.308   .     A
C1197  H1236   1.111   .     S
C1197  H1235   1.107   .     S
C1197  H1234   1.111   .     S
C1198  H1218   1.112   .     S
C1198  H1217   1.105   .     S
C1198  C1199   1.528   .     S
C1199  H1214   1.111   .     S
C1199  H1216   1.110   .     S
C1199  H1215   1.107   .     S
C1200  H1223   1.087   .     S
C1200  H1222   1.109   .     S
C1200  C1201   1.525   .     S
C1201  H1220   1.104   .     S
C1201  H1221   1.108   .     S
C1201  H1219   1.108   .     S
C1202  H1228   1.088   .     S
C1202  H1229   1.110   .     S
C1202  C1203   1.527   .     S
C1203  H1226   1.110   .     S
C1203  H1227   1.108   .     S
C1203  H1225   1.103   .     S
C1204  O1246   1.394   .     S
C1204  O1245   1.220   .     D
C1205  O1247   1.219   .     D
C1205  O1248   1.393   .     S
C1206  O1252   1.277   .     A
C1206  C1208   1.404   .     S
C1206  O1254   1.302   .     A
C1207  O1253   1.277   .     A
C1207  C1209   1.405   .     S
C1207  O1255   1.303   .     A
C1209  C1282   1.357   .     S
C1209  C1268   1.511   .     S
C1210  H1213   1.076   .     S
C1211  H1224   1.076   .     S
C1211  C742    1.376   1_565 S
C1212  C766    1.376   1_565 S
H1230  O1246   1.013   .     S
H1231  O1248   1.013   .     S
H1232  O1242   1.014   .     S
H1233  O1244   1.014   .     S
N1239  Zn1257  2.045   .     S
N1240  Zn1258  2.045   .     S
O1241  Zn1257  2.021   .     S
O1243  C1268   1.223   .     S
O1249  Zn1258  2.021   .     S
O1250  Zn1258  2.012   .     S
O1251  Zn1257  2.012   .     S
O1252  Zn1257  1.993   .     S
O1253  Zn1258  1.993   .     S
O1254  Zn1258  1.975   .     S
O1255  Zn1257  1.975   .     S
C1259  C1262   1.438   .     S
C1259  O1324   1.308   .     A
C1259  O1315   1.294   .     A
C1260  C1262   1.415   .     A
C1260  C1272   1.526   .     S
C1261  C1285   1.397   .     A
C1261  C1286   1.416   .     A
C1261  C1270   1.438   .     S
C1262  C1284   1.397   .     A
C1263  N1314   1.382   .     A
C1263  C1274   1.520   .     S
C1264  N1313   1.383   .     A
C1264  C1276   1.520   .     S
C1264  C1932   1.436   .     S
C1265  N1313   1.374   .     A
C1265  C1278   1.471   .     S
C1265  C1929   1.435   .     S
C1266  N1314   1.372   .     A
C1266  C1279   1.470   .     S
C1267  O1316   1.396   .     S
C1267  C1134   1.511   1_655 S
C1267  O1182   1.225   1_655 S
C1268  O1318   1.396   .     S
C1269  H1311   1.112   .     S
C1269  C1271   1.528   .     S
C1269  C1286   1.526   .     S
C1269  H1312   1.105   .     S
C1270  O1323   1.294   .     A
C1270  O1325   1.308   .     A
C1271  H1310   1.111   .     S
C1271  H1309   1.107   .     S
C1271  H1308   1.111   .     S
C1272  H1292   1.112   .     S
C1272  H1291   1.105   .     S
C1272  C1273   1.528   .     S
C1273  H1288   1.111   .     S
C1273  H1290   1.110   .     S
C1273  H1289   1.107   .     S
C1274  H1297   1.087   .     S
C1274  H1296   1.109   .     S
C1274  C1275   1.525   .     S
C1275  H1294   1.104   .     S
C1275  H1295   1.108   .     S
C1275  H1293   1.108   .     S
C1276  H1302   1.088   .     S
C1276  H1303   1.110   .     S
C1276  C1277   1.527   .     S
C1277  H1300   1.110   .     S
C1277  H1301   1.108   .     S
C1277  H1299   1.103   .     S
C1278  O1320   1.394   .     S
C1278  O1319   1.220   .     D
C1279  O1321   1.219   .     D
C1279  O1322   1.393   .     S
C1280  O1326   1.277   .     A
C1280  C1282   1.404   .     S
C1280  O1328   1.302   .     A
C1281  O1327   1.277   .     A
C1281  C1283   1.405   .     S
C1281  O1329   1.303   .     A
C1283  C1134   1.357   1_655 S
C1283  C1120   1.511   1_655 S
C1284  H1287   1.076   .     S
C1285  H1298   1.076   .     S
C1285  C816    1.376   1_565 S
C1286  C840    1.376   1_565 S
H1304  O1320   1.013   .     S
H1305  O1322   1.013   .     S
H1306  O1316   1.014   .     S
H1307  O1318   1.014   .     S
N1313  Zn1331  2.045   .     S
N1314  Zn1332  2.045   .     S
O1315  Zn1331  2.021   .     S
O1317  C1120   1.223   1_655 S
O1323  Zn1332  2.021   .     S
O1324  Zn1332  2.012   .     S
O1325  Zn1331  2.012   .     S
O1326  Zn1331  1.993   .     S
O1327  Zn1332  1.993   .     S
O1328  Zn1332  1.975   .     S
O1329  Zn1331  1.975   .     S
C1333  C1336   1.438   .     S
C1333  O1398   1.308   .     A
C1333  O1389   1.294   .     A
C1334  C1336   1.415   .     A
C1334  C1346   1.526   .     S
C1334  C1803   1.376   1_545 S
C1335  C1359   1.397   .     A
C1335  C1360   1.416   .     A
C1335  C1344   1.438   .     S
C1336  C1358   1.397   .     A
C1337  N1388   1.382   .     A
C1337  C1348   1.520   .     S
C1338  N1387   1.383   .     A
C1338  C1350   1.520   .     S
C1338  C8      1.436   1_556 S
C1339  N1387   1.374   .     A
C1339  C1352   1.471   .     S
C1339  C5      1.435   1_556 S
C1340  N1388   1.372   .     A
C1340  C1353   1.470   .     S
C1341  O1390   1.396   .     S
C1341  C1430   1.511   .     S
C1341  O1478   1.225   .     S
C1342  O1392   1.396   .     S
C1342  C1505   1.511   1_455 S
C1342  O1539   1.223   1_455 S
C1343  H1385   1.112   .     S
C1343  C1345   1.528   .     S
C1343  C1360   1.526   .     S
C1343  H1386   1.105   .     S
C1344  O1397   1.294   .     A
C1344  O1399   1.308   .     A
C1345  H1384   1.111   .     S
C1345  H1383   1.107   .     S
C1345  H1382   1.111   .     S
C1346  H1366   1.112   .     S
C1346  H1365   1.105   .     S
C1346  C1347   1.528   .     S
C1347  H1362   1.111   .     S
C1347  H1364   1.110   .     S
C1347  H1363   1.107   .     S
C1348  H1371   1.087   .     S
C1348  H1370   1.109   .     S
C1348  C1349   1.525   .     S
C1349  H1368   1.104   .     S
C1349  H1369   1.108   .     S
C1349  H1367   1.108   .     S
C1350  H1376   1.088   .     S
C1350  H1377   1.110   .     S
C1350  C1351   1.527   .     S
C1351  H1374   1.110   .     S
C1351  H1375   1.108   .     S
C1351  H1373   1.103   .     S
C1352  O1394   1.394   .     S
C1352  O1393   1.220   .     D
C1353  O1395   1.219   .     D
C1353  O1396   1.393   .     S
C1354  O1400   1.277   .     A
C1354  C1356   1.404   .     S
C1354  O1402   1.302   .     A
C1355  O1401   1.277   .     A
C1355  C1357   1.405   .     S
C1355  O1403   1.303   .     A
C1356  C1489   1.511   1_455 S
C1356  C1505   1.357   1_455 S
C1357  C1430   1.357   .     S
C1357  C1416   1.511   .     S
C1358  H1361   1.076   .     S
C1358  C1804   1.376   1_545 S
C1359  H1372   1.076   .     S
C1359  C1556   1.376   .     S
C1360  C1580   1.376   .     S
H1378  O1394   1.013   .     S
H1379  O1396   1.013   .     S
H1380  O1390   1.014   .     S
H1381  O1392   1.014   .     S
N1387  Zn1405  2.045   .     S
N1388  Zn1406  2.045   .     S
O1389  Zn1405  2.021   .     S
O1391  C1416   1.223   .     S
O1397  Zn1406  2.021   .     S
O1398  Zn1406  2.012   .     S
O1399  Zn1405  2.012   .     S
O1400  Zn1405  1.993   .     S
O1401  Zn1406  1.993   .     S
O1402  Zn1406  1.975   .     S
O1403  Zn1405  1.975   .     S
O1404  C1489   1.225   1_455 S
C1407  C1410   1.438   .     S
C1407  O1472   1.308   .     A
C1407  O1463   1.294   .     A
C1408  C1410   1.415   .     A
C1408  C1420   1.526   .     S
C1408  C1877   1.376   1_545 S
C1409  C1433   1.397   .     A
C1409  C1434   1.416   .     A
C1409  C1418   1.438   .     S
C1410  C1432   1.397   .     A
C1411  N1462   1.382   .     A
C1411  C1422   1.520   .     S
C1412  N1461   1.383   .     A
C1412  C1424   1.520   .     S
C1412  C82     1.436   1_556 S
C1413  N1461   1.374   .     A
C1413  C1426   1.471   .     S
C1413  C79     1.435   1_556 S
C1414  N1462   1.372   .     A
C1414  C1427   1.470   .     S
C1415  O1464   1.396   .     S
C1415  C1504   1.511   .     S
C1415  O1552   1.225   .     S
C1416  O1466   1.396   .     S
C1417  H1459   1.112   .     S
C1417  C1419   1.528   .     S
C1417  C1434   1.526   .     S
C1417  H1460   1.105   .     S
C1418  O1471   1.294   .     A
C1418  O1473   1.308   .     A
C1419  H1458   1.111   .     S
C1419  H1457   1.107   .     S
C1419  H1456   1.111   .     S
C1420  H1440   1.112   .     S
C1420  H1439   1.105   .     S
C1420  C1421   1.528   .     S
C1421  H1436   1.111   .     S
C1421  H1438   1.110   .     S
C1421  H1437   1.107   .     S
C1422  H1445   1.087   .     S
C1422  H1444   1.109   .     S
C1422  C1423   1.525   .     S
C1423  H1442   1.104   .     S
C1423  H1443   1.108   .     S
C1423  H1441   1.108   .     S
C1424  H1450   1.088   .     S
C1424  H1451   1.110   .     S
C1424  C1425   1.527   .     S
C1425  H1448   1.110   .     S
C1425  H1449   1.108   .     S
C1425  H1447   1.103   .     S
C1426  O1468   1.394   .     S
C1426  O1467   1.220   .     D
C1427  O1469   1.219   .     D
C1427  O1470   1.393   .     S
C1428  O1474   1.277   .     A
C1428  C1430   1.404   .     S
C1428  O1476   1.302   .     A
C1429  O1475   1.277   .     A
C1429  C1431   1.405   .     S
C1429  O1477   1.303   .     A
C1431  C1504   1.357   .     S
C1431  C1490   1.511   .     S
C1432  H1435   1.076   .     S
C1432  C1878   1.376   1_545 S
C1433  H1446   1.076   .     S
C1433  C1630   1.376   .     S
C1434  C1654   1.376   .     S
H1452  O1468   1.013   .     S
H1453  O1470   1.013   .     S
H1454  O1464   1.014   .     S
H1455  O1466   1.014   .     S
N1461  Zn1479  2.045   .     S
N1462  Zn1480  2.045   .     S
O1463  Zn1479  2.021   .     S
O1465  C1490   1.223   .     S
O1471  Zn1480  2.021   .     S
O1472  Zn1480  2.012   .     S
O1473  Zn1479  2.012   .     S
O1474  Zn1479  1.993   .     S
O1475  Zn1480  1.993   .     S
O1476  Zn1480  1.975   .     S
O1477  Zn1479  1.975   .     S
C1481  C1484   1.438   .     S
C1481  O1546   1.308   .     A
C1481  O1537   1.294   .     A
C1482  C1484   1.415   .     A
C1482  C1494   1.526   .     S
C1482  C1951   1.376   1_545 S
C1483  C1507   1.397   .     A
C1483  C1508   1.416   .     A
C1483  C1492   1.438   .     S
C1484  C1506   1.397   .     A
C1485  N1536   1.382   .     A
C1485  C1496   1.520   .     S
C1486  N1535   1.383   .     A
C1486  C1498   1.520   .     S
C1486  C156    1.436   1_556 S
C1487  N1535   1.374   .     A
C1487  C1500   1.471   .     S
C1487  C153    1.435   1_556 S
C1488  N1536   1.372   .     A
C1488  C1501   1.470   .     S
C1489  O1538   1.396   .     S
C1489  C1356   1.511   1_655 S
C1489  O1404   1.225   1_655 S
C1490  O1540   1.396   .     S
C1491  H1533   1.112   .     S
C1491  C1493   1.528   .     S
C1491  C1508   1.526   .     S
C1491  H1534   1.105   .     S
C1492  O1545   1.294   .     A
C1492  O1547   1.308   .     A
C1493  H1532   1.111   .     S
C1493  H1531   1.107   .     S
C1493  H1530   1.111   .     S
C1494  H1514   1.112   .     S
C1494  H1513   1.105   .     S
C1494  C1495   1.528   .     S
C1495  H1510   1.111   .     S
C1495  H1512   1.110   .     S
C1495  H1511   1.107   .     S
C1496  H1519   1.087   .     S
C1496  H1518   1.109   .     S
C1496  C1497   1.525   .     S
C1497  H1516   1.104   .     S
C1497  H1517   1.108   .     S
C1497  H1515   1.108   .     S
C1498  H1524   1.088   .     S
C1498  H1525   1.110   .     S
C1498  C1499   1.527   .     S
C1499  H1522   1.110   .     S
C1499  H1523   1.108   .     S
C1499  H1521   1.103   .     S
C1500  O1542   1.394   .     S
C1500  O1541   1.220   .     D
C1501  O1543   1.219   .     D
C1501  O1544   1.393   .     S
C1502  O1548   1.277   .     A
C1502  C1504   1.404   .     S
C1502  O1550   1.302   .     A
C1503  O1549   1.277   .     A
C1503  C1505   1.405   .     S
C1503  O1551   1.303   .     A
C1505  C1356   1.357   1_655 S
C1505  C1342   1.511   1_655 S
C1506  H1509   1.076   .     S
C1506  C1952   1.376   1_545 S
C1507  H1520   1.076   .     S
C1507  C1704   1.376   .     S
C1508  C1728   1.376   .     S
H1526  O1542   1.013   .     S
H1527  O1544   1.013   .     S
H1528  O1538   1.014   .     S
H1529  O1540   1.014   .     S
N1535  Zn1553  2.045   .     S
N1536  Zn1554  2.045   .     S
O1537  Zn1553  2.021   .     S
O1539  C1342   1.223   1_655 S
O1545  Zn1554  2.021   .     S
O1546  Zn1554  2.012   .     S
O1547  Zn1553  2.012   .     S
O1548  Zn1553  1.993   .     S
O1549  Zn1554  1.993   .     S
O1550  Zn1554  1.975   .     S
O1551  Zn1553  1.975   .     S
C1555  C1558   1.438   .     S
C1555  O1620   1.308   .     A
C1555  O1611   1.294   .     A
C1556  C1558   1.415   .     A
C1556  C1568   1.526   .     S
C1557  C1581   1.397   .     A
C1557  C1582   1.416   .     A
C1557  C1566   1.438   .     S
C1558  C1580   1.397   .     A
C1559  N1610   1.382   .     A
C1559  C1570   1.520   .     S
C1560  N1609   1.383   .     A
C1560  C1572   1.520   .     S
C1560  C230    1.436   1_556 S
C1561  N1609   1.374   .     A
C1561  C1574   1.471   .     S
C1561  C227    1.435   1_556 S
C1562  N1610   1.372   .     A
C1562  C1575   1.470   .     S
C1563  O1612   1.396   .     S
C1563  C1652   1.511   .     S
C1563  O1700   1.225   .     S
C1564  O1614   1.396   .     S
C1564  C1727   1.511   1_455 S
C1564  O1761   1.223   1_455 S
C1565  H1607   1.112   .     S
C1565  C1567   1.528   .     S
C1565  C1582   1.526   .     S
C1565  H1608   1.105   .     S
C1566  O1619   1.294   .     A
C1566  O1621   1.308   .     A
C1567  H1606   1.111   .     S
C1567  H1605   1.107   .     S
C1567  H1604   1.111   .     S
C1568  H1588   1.112   .     S
C1568  H1587   1.105   .     S
C1568  C1569   1.528   .     S
C1569  H1584   1.111   .     S
C1569  H1586   1.110   .     S
C1569  H1585   1.107   .     S
C1570  H1593   1.087   .     S
C1570  H1592   1.109   .     S
C1570  C1571   1.525   .     S
C1571  H1590   1.104   .     S
C1571  H1591   1.108   .     S
C1571  H1589   1.108   .     S
C1572  H1598   1.088   .     S
C1572  H1599   1.110   .     S
C1572  C1573   1.527   .     S
C1573  H1596   1.110   .     S
C1573  H1597   1.108   .     S
C1573  H1595   1.103   .     S
C1574  O1616   1.394   .     S
C1574  O1615   1.220   .     D
C1575  O1617   1.219   .     D
C1575  O1618   1.393   .     S
C1576  O1622   1.277   .     A
C1576  C1578   1.404   .     S
C1576  O1624   1.302   .     A
C1577  O1623   1.277   .     A
C1577  C1579   1.405   .     S
C1577  O1625   1.303   .     A
C1578  C1711   1.511   1_455 S
C1578  C1727   1.357   1_455 S
C1579  C1652   1.357   .     S
C1579  C1638   1.511   .     S
C1580  H1583   1.076   .     S
C1581  H1594   1.076   .     S
C1581  C1778   1.376   .     S
C1582  C1802   1.376   .     S
H1600  O1616   1.013   .     S
H1601  O1618   1.013   .     S
H1602  O1612   1.014   .     S
H1603  O1614   1.014   .     S
N1609  Zn1627  2.045   .     S
N1610  Zn1628  2.045   .     S
O1611  Zn1627  2.021   .     S
O1613  C1638   1.223   .     S
O1619  Zn1628  2.021   .     S
O1620  Zn1628  2.012   .     S
O1621  Zn1627  2.012   .     S
O1622  Zn1627  1.993   .     S
O1623  Zn1628  1.993   .     S
O1624  Zn1628  1.975   .     S
O1625  Zn1627  1.975   .     S
O1626  C1711   1.225   1_455 S
C1629  C1632   1.438   .     S
C1629  O1694   1.308   .     A
C1629  O1685   1.294   .     A
C1630  C1632   1.415   .     A
C1630  C1642   1.526   .     S
C1631  C1655   1.397   .     A
C1631  C1656   1.416   .     A
C1631  C1640   1.438   .     S
C1632  C1654   1.397   .     A
C1633  N1684   1.382   .     A
C1633  C1644   1.520   .     S
C1634  N1683   1.383   .     A
C1634  C1646   1.520   .     S
C1634  C304    1.436   1_556 S
C1635  N1683   1.374   .     A
C1635  C1648   1.471   .     S
C1635  C301    1.435   1_556 S
C1636  N1684   1.372   .     A
C1636  C1649   1.470   .     S
C1637  O1686   1.396   .     S
C1637  C1726   1.511   .     S
C1637  O1774   1.225   .     S
C1638  O1688   1.396   .     S
C1639  H1681   1.112   .     S
C1639  C1641   1.528   .     S
C1639  C1656   1.526   .     S
C1639  H1682   1.105   .     S
C1640  O1693   1.294   .     A
C1640  O1695   1.308   .     A
C1641  H1680   1.111   .     S
C1641  H1679   1.107   .     S
C1641  H1678   1.111   .     S
C1642  H1662   1.112   .     S
C1642  H1661   1.105   .     S
C1642  C1643   1.528   .     S
C1643  H1658   1.111   .     S
C1643  H1660   1.110   .     S
C1643  H1659   1.107   .     S
C1644  H1667   1.087   .     S
C1644  H1666   1.109   .     S
C1644  C1645   1.525   .     S
C1645  H1664   1.104   .     S
C1645  H1665   1.108   .     S
C1645  H1663   1.108   .     S
C1646  H1672   1.088   .     S
C1646  H1673   1.110   .     S
C1646  C1647   1.527   .     S
C1647  H1670   1.110   .     S
C1647  H1671   1.108   .     S
C1647  H1669   1.103   .     S
C1648  O1690   1.394   .     S
C1648  O1689   1.220   .     D
C1649  O1691   1.219   .     D
C1649  O1692   1.393   .     S
C1650  O1696   1.277   .     A
C1650  C1652   1.404   .     S
C1650  O1698   1.302   .     A
C1651  O1697   1.277   .     A
C1651  C1653   1.405   .     S
C1651  O1699   1.303   .     A
C1653  C1726   1.357   .     S
C1653  C1712   1.511   .     S
C1654  H1657   1.076   .     S
C1655  H1668   1.076   .     S
C1655  C1852   1.376   .     S
C1656  C1876   1.376   .     S
H1674  O1690   1.013   .     S
H1675  O1692   1.013   .     S
H1676  O1686   1.014   .     S
H1677  O1688   1.014   .     S
N1683  Zn1701  2.045   .     S
N1684  Zn1702  2.045   .     S
O1685  Zn1701  2.021   .     S
O1687  C1712   1.223   .     S
O1693  Zn1702  2.021   .     S
O1694  Zn1702  2.012   .     S
O1695  Zn1701  2.012   .     S
O1696  Zn1701  1.993   .     S
O1697  Zn1702  1.993   .     S
O1698  Zn1702  1.975   .     S
O1699  Zn1701  1.975   .     S
C1703  C1706   1.438   .     S
C1703  O1768   1.308   .     A
C1703  O1759   1.294   .     A
C1704  C1706   1.415   .     A
C1704  C1716   1.526   .     S
C1705  C1729   1.397   .     A
C1705  C1730   1.416   .     A
C1705  C1714   1.438   .     S
C1706  C1728   1.397   .     A
C1707  N1758   1.382   .     A
C1707  C1718   1.520   .     S
C1708  N1757   1.383   .     A
C1708  C1720   1.520   .     S
C1708  C378    1.436   1_556 S
C1709  N1757   1.374   .     A
C1709  C1722   1.471   .     S
C1709  C375    1.435   1_556 S
C1710  N1758   1.372   .     A
C1710  C1723   1.470   .     S
C1711  O1760   1.396   .     S
C1711  C1578   1.511   1_655 S
C1711  O1626   1.225   1_655 S
C1712  O1762   1.396   .     S
C1713  H1755   1.112   .     S
C1713  C1715   1.528   .     S
C1713  C1730   1.526   .     S
C1713  H1756   1.105   .     S
C1714  O1767   1.294   .     A
C1714  O1769   1.308   .     A
C1715  H1754   1.111   .     S
C1715  H1753   1.107   .     S
C1715  H1752   1.111   .     S
C1716  H1736   1.112   .     S
C1716  H1735   1.105   .     S
C1716  C1717   1.528   .     S
C1717  H1732   1.111   .     S
C1717  H1734   1.110   .     S
C1717  H1733   1.107   .     S
C1718  H1741   1.087   .     S
C1718  H1740   1.109   .     S
C1718  C1719   1.525   .     S
C1719  H1738   1.104   .     S
C1719  H1739   1.108   .     S
C1719  H1737   1.108   .     S
C1720  H1746   1.088   .     S
C1720  H1747   1.110   .     S
C1720  C1721   1.527   .     S
C1721  H1744   1.110   .     S
C1721  H1745   1.108   .     S
C1721  H1743   1.103   .     S
C1722  O1764   1.394   .     S
C1722  O1763   1.220   .     D
C1723  O1765   1.219   .     D
C1723  O1766   1.393   .     S
C1724  O1770   1.277   .     A
C1724  C1726   1.404   .     S
C1724  O1772   1.302   .     A
C1725  O1771   1.277   .     A
C1725  C1727   1.405   .     S
C1725  O1773   1.303   .     A
C1727  C1578   1.357   1_655 S
C1727  C1564   1.511   1_655 S
C1728  H1731   1.076   .     S
C1729  H1742   1.076   .     S
C1729  C1926   1.376   .     S
C1730  C1950   1.376   .     S
H1748  O1764   1.013   .     S
H1749  O1766   1.013   .     S
H1750  O1760   1.014   .     S
H1751  O1762   1.014   .     S
N1757  Zn1775  2.045   .     S
N1758  Zn1776  2.045   .     S
O1759  Zn1775  2.021   .     S
O1761  C1564   1.223   1_655 S
O1767  Zn1776  2.021   .     S
O1768  Zn1776  2.012   .     S
O1769  Zn1775  2.012   .     S
O1770  Zn1775  1.993   .     S
O1771  Zn1776  1.993   .     S
O1772  Zn1776  1.975   .     S
O1773  Zn1775  1.975   .     S
C1777  C1780   1.438   .     S
C1777  O1842   1.308   .     A
C1777  O1833   1.294   .     A
C1778  C1780   1.415   .     A
C1778  C1790   1.526   .     S
C1779  C1803   1.397   .     A
C1779  C1804   1.416   .     A
C1779  C1788   1.438   .     S
C1780  C1802   1.397   .     A
C1781  N1832   1.382   .     A
C1781  C1792   1.520   .     S
C1782  N1831   1.383   .     A
C1782  C1794   1.520   .     S
C1782  C452    1.436   1_556 S
C1783  N1831   1.374   .     A
C1783  C1796   1.471   .     S
C1783  C449    1.435   1_556 S
C1784  N1832   1.372   .     A
C1784  C1797   1.470   .     S
C1785  O1834   1.396   .     S
C1785  C1874   1.511   .     S
C1785  O1922   1.225   .     S
C1786  O1836   1.396   .     S
C1786  C1949   1.511   1_455 S
C1786  O1983   1.223   1_455 S
C1787  H1829   1.112   .     S
C1787  C1789   1.528   .     S
C1787  C1804   1.526   .     S
C1787  H1830   1.105   .     S
C1788  O1841   1.294   .     A
C1788  O1843   1.308   .     A
C1789  H1828   1.111   .     S
C1789  H1827   1.107   .     S
C1789  H1826   1.111   .     S
C1790  H1810   1.112   .     S
C1790  H1809   1.105   .     S
C1790  C1791   1.528   .     S
C1791  H1806   1.111   .     S
C1791  H1808   1.110   .     S
C1791  H1807   1.107   .     S
C1792  H1815   1.087   .     S
C1792  H1814   1.109   .     S
C1792  C1793   1.525   .     S
C1793  H1812   1.104   .     S
C1793  H1813   1.108   .     S
C1793  H1811   1.108   .     S
C1794  H1820   1.088   .     S
C1794  H1821   1.110   .     S
C1794  C1795   1.527   .     S
C1795  H1818   1.110   .     S
C1795  H1819   1.108   .     S
C1795  H1817   1.103   .     S
C1796  O1838   1.394   .     S
C1796  O1837   1.220   .     D
C1797  O1839   1.219   .     D
C1797  O1840   1.393   .     S
C1798  O1844   1.277   .     A
C1798  C1800   1.404   .     S
C1798  O1846   1.302   .     A
C1799  O1845   1.277   .     A
C1799  C1801   1.405   .     S
C1799  O1847   1.303   .     A
C1800  C1933   1.511   1_455 S
C1800  C1949   1.357   1_455 S
C1801  C1874   1.357   .     S
C1801  C1860   1.511   .     S
C1802  H1805   1.076   .     S
C1803  H1816   1.076   .     S
C1803  C1334   1.376   1_565 S
C1804  C1358   1.376   1_565 S
H1822  O1838   1.013   .     S
H1823  O1840   1.013   .     S
H1824  O1834   1.014   .     S
H1825  O1836   1.014   .     S
N1831  Zn1849  2.045   .     S
N1832  Zn1850  2.045   .     S
O1833  Zn1849  2.021   .     S
O1835  C1860   1.223   .     S
O1841  Zn1850  2.021   .     S
O1842  Zn1850  2.012   .     S
O1843  Zn1849  2.012   .     S
O1844  Zn1849  1.993   .     S
O1845  Zn1850  1.993   .     S
O1846  Zn1850  1.975   .     S
O1847  Zn1849  1.975   .     S
O1848  C1933   1.225   1_455 S
C1851  C1854   1.438   .     S
C1851  O1916   1.308   .     A
C1851  O1907   1.294   .     A
C1852  C1854   1.415   .     A
C1852  C1864   1.526   .     S
C1853  C1877   1.397   .     A
C1853  C1878   1.416   .     A
C1853  C1862   1.438   .     S
C1854  C1876   1.397   .     A
C1855  N1906   1.382   .     A
C1855  C1866   1.520   .     S
C1856  N1905   1.383   .     A
C1856  C1868   1.520   .     S
C1856  C526    1.436   1_556 S
C1857  N1905   1.374   .     A
C1857  C1870   1.471   .     S
C1857  C523    1.435   1_556 S
C1858  N1906   1.372   .     A
C1858  C1871   1.470   .     S
C1859  O1908   1.396   .     S
C1859  C1948   1.511   .     S
C1859  O1996   1.225   .     S
C1860  O1910   1.396   .     S
C1861  H1903   1.112   .     S
C1861  C1863   1.528   .     S
C1861  C1878   1.526   .     S
C1861  H1904   1.105   .     S
C1862  O1915   1.294   .     A
C1862  O1917   1.308   .     A
C1863  H1902   1.111   .     S
C1863  H1901   1.107   .     S
C1863  H1900   1.111   .     S
C1864  H1884   1.112   .     S
C1864  H1883   1.105   .     S
C1864  C1865   1.528   .     S
C1865  H1880   1.111   .     S
C1865  H1882   1.110   .     S
C1865  H1881   1.107   .     S
C1866  H1889   1.087   .     S
C1866  H1888   1.109   .     S
C1866  C1867   1.525   .     S
C1867  H1886   1.104   .     S
C1867  H1887   1.108   .     S
C1867  H1885   1.108   .     S
C1868  H1894   1.088   .     S
C1868  H1895   1.110   .     S
C1868  C1869   1.527   .     S
C1869  H1892   1.110   .     S
C1869  H1893   1.108   .     S
C1869  H1891   1.103   .     S
C1870  O1912   1.394   .     S
C1870  O1911   1.220   .     D
C1871  O1913   1.219   .     D
C1871  O1914   1.393   .     S
C1872  O1918   1.277   .     A
C1872  C1874   1.404   .     S
C1872  O1920   1.302   .     A
C1873  O1919   1.277   .     A
C1873  C1875   1.405   .     S
C1873  O1921   1.303   .     A
C1875  C1948   1.357   .     S
C1875  C1934   1.511   .     S
C1876  H1879   1.076   .     S
C1877  H1890   1.076   .     S
C1877  C1408   1.376   1_565 S
C1878  C1432   1.376   1_565 S
H1896  O1912   1.013   .     S
H1897  O1914   1.013   .     S
H1898  O1908   1.014   .     S
H1899  O1910   1.014   .     S
N1905  Zn1923  2.045   .     S
N1906  Zn1924  2.045   .     S
O1907  Zn1923  2.021   .     S
O1909  C1934   1.223   .     S
O1915  Zn1924  2.021   .     S
O1916  Zn1924  2.012   .     S
O1917  Zn1923  2.012   .     S
O1918  Zn1923  1.993   .     S
O1919  Zn1924  1.993   .     S
O1920  Zn1924  1.975   .     S
O1921  Zn1923  1.975   .     S
C1925  C1928   1.438   .     S
C1925  O1990   1.308   .     A
C1925  O1981   1.294   .     A
C1926  C1928   1.415   .     A
C1926  C1938   1.526   .     S
C1927  C1951   1.397   .     A
C1927  C1952   1.416   .     A
C1927  C1936   1.438   .     S
C1928  C1950   1.397   .     A
C1929  N1980   1.382   .     A
C1929  C1940   1.520   .     S
C1930  N1979   1.383   .     A
C1930  C1942   1.520   .     S
C1930  C600    1.436   1_556 S
C1931  N1979   1.374   .     A
C1931  C1944   1.471   .     S
C1931  C597    1.435   1_556 S
C1932  N1980   1.372   .     A
C1932  C1945   1.470   .     S
C1933  O1982   1.396   .     S
C1933  C1800   1.511   1_655 S
C1933  O1848   1.225   1_655 S
C1934  O1984   1.396   .     S
C1935  H1977   1.112   .     S
C1935  C1937   1.528   .     S
C1935  C1952   1.526   .     S
C1935  H1978   1.105   .     S
C1936  O1989   1.294   .     A
C1936  O1991   1.308   .     A
C1937  H1976   1.111   .     S
C1937  H1975   1.107   .     S
C1937  H1974   1.111   .     S
C1938  H1958   1.112   .     S
C1938  H1957   1.105   .     S
C1938  C1939   1.528   .     S
C1939  H1954   1.111   .     S
C1939  H1956   1.110   .     S
C1939  H1955   1.107   .     S
C1940  H1963   1.087   .     S
C1940  H1962   1.109   .     S
C1940  C1941   1.525   .     S
C1941  H1960   1.104   .     S
C1941  H1961   1.108   .     S
C1941  H1959   1.108   .     S
C1942  H1968   1.088   .     S
C1942  H1969   1.110   .     S
C1942  C1943   1.527   .     S
C1943  H1966   1.110   .     S
C1943  H1967   1.108   .     S
C1943  H1965   1.103   .     S
C1944  O1986   1.394   .     S
C1944  O1985   1.220   .     D
C1945  O1987   1.219   .     D
C1945  O1988   1.393   .     S
C1946  O1992   1.277   .     A
C1946  C1948   1.404   .     S
C1946  O1994   1.302   .     A
C1947  O1993   1.277   .     A
C1947  C1949   1.405   .     S
C1947  O1995   1.303   .     A
C1949  C1800   1.357   1_655 S
C1949  C1786   1.511   1_655 S
C1950  H1953   1.076   .     S
C1951  H1964   1.076   .     S
C1951  C1482   1.376   1_565 S
C1952  C1506   1.376   1_565 S
H1970  O1986   1.013   .     S
H1971  O1988   1.013   .     S
H1972  O1982   1.014   .     S
H1973  O1984   1.014   .     S
N1979  Zn1997  2.045   .     S
N1980  Zn1998  2.045   .     S
O1981  Zn1997  2.021   .     S
O1983  C1786   1.223   1_655 S
O1989  Zn1998  2.021   .     S
O1990  Zn1998  2.012   .     S
O1991  Zn1997  2.012   .     S
O1992  Zn1997  1.993   .     S
O1993  Zn1998  1.993   .     S
O1994  Zn1998  1.975   .     S
O1995  Zn1997  1.975   .     S
