data_str_m3_o1_o17_pcu_sym.179
_audit_creation_date              2020-01-03
_audit_creation_method            'Materials Studio'
_symmetry_space_group_name_H-M    'P1'
_symmetry_Int_Tables_number       1
_symmetry_cell_setting            triclinic
loop_
_symmetry_equiv_pos_as_xyz
  x,y,z
_cell_length_a                    32.1522
_cell_length_b                    29.5242
_cell_length_c                    29.7785
_cell_angle_alpha                 90.0017
_cell_angle_beta                  90.9742
_cell_angle_gamma                 90.0004
loop_
_atom_site_label
_atom_site_type_symbol
_atom_site_fract_x
_atom_site_fract_y
_atom_site_fract_z
_atom_site_U_iso_or_equiv
_atom_site_adp_type
_atom_site_occupancy
C1     C     0.08662   0.16666   0.25010   0.00000  Uiso   1.00
C2     C     0.24671   0.16666   0.24990   0.00000  Uiso   1.00
C3     C     0.09026   0.17043   0.02023   0.00000  Uiso   1.00
C4     C     0.24308   0.17039   0.47977   0.00000  Uiso   1.00
C5     C     0.02129   0.12531   0.25024   0.00000  Uiso   1.00
C6     C     0.31205   0.20795   0.24990   0.00000  Uiso   1.00
C7     C     0.31204   0.12531   0.24969   0.00000  Uiso   1.00
C8     C     0.02129   0.20795   0.25016   0.00000  Uiso   1.00
C9     C     0.29086   0.16664   0.24970   0.00000  Uiso   1.00
C10    C     0.04247   0.16664   0.25030   0.00000  Uiso   1.00
C11    C     0.19495   0.02398   0.27551   0.00000  Uiso   1.00
C12    C     0.13840   0.30935   0.22447   0.00000  Uiso   1.00
C13    C     0.13839   0.02398   0.22449   0.00000  Uiso   1.00
C14    C     0.19494   0.30935   0.27553   0.00000  Uiso   1.00
C15    C     0.16536   0.16667   0.16357   0.00000  Uiso   1.00
C16    C     0.16797   0.16667   0.33643   0.00000  Uiso   1.00
C17    C     0.20640   0.16592   0.40782   0.00000  Uiso   1.00
C18    C     0.12693   0.16592   0.09218   0.00000  Uiso   1.00
C19    C     0.16851   0.16675   0.38403   0.00000  Uiso   1.00
C20    C     0.16482   0.16675   0.11597   0.00000  Uiso   1.00
C21    C     0.13052   0.16899   0.40525   0.00000  Uiso   1.00
C22    C     0.20281   0.16898   0.09475   0.00000  Uiso   1.00
C23    C     0.12930   0.17013   0.45169   0.00000  Uiso   1.00
C24    C     0.20404   0.17011   0.04831   0.00000  Uiso   1.00
C25    C     0.16712   0.16913   0.47659   0.00000  Uiso   1.00
C26    C     0.16622   0.16913   0.02341   0.00000  Uiso   1.00
C27    C     0.20584   0.16830   0.45464   0.00000  Uiso   1.00
C28    C     0.12750   0.16831   0.04536   0.00000  Uiso   1.00
C29    C     0.09101   0.17297   0.47361   0.00000  Uiso   1.00
C30    C     0.24233   0.17292   0.02640   0.00000  Uiso   1.00
H31    H     0.10202   0.16977   0.38519   0.00000  Uiso   1.00
H32    H     0.23131   0.16976   0.11481   0.00000  Uiso   1.00
H33    H     0.06042   0.17067   0.03644   0.00000  Uiso   1.00
H34    H     0.27291   0.17061   0.46357   0.00000  Uiso   1.00
H35    H     0.03744   0.09310   0.25028   0.00000  Uiso   1.00
H36    H     0.29591   0.24016   0.24991   0.00000  Uiso   1.00
H37    H     0.29589   0.09310   0.24960   0.00000  Uiso   1.00
H38    H     0.03743   0.24016   0.25021   0.00000  Uiso   1.00
H39    H     0.21758   0.04213   0.29589   0.00000  Uiso   1.00
H40    H     0.11580   0.29117   0.20406   0.00000  Uiso   1.00
H41    H     0.11576   0.04213   0.20411   0.00000  Uiso   1.00
H42    H     0.21754   0.29117   0.29594   0.00000  Uiso   1.00
N43    N     0.16667   0.28573   0.25000   0.00000  Uiso   1.00
N44    N     0.16667   0.04760   0.25000   0.00000  Uiso   1.00
O45    O     0.10559   0.20487   0.25000   0.00000  Uiso   1.00
O46    O     0.22774   0.12846   0.25001   0.00000  Uiso   1.00
O47    O     0.22774   0.20487   0.25001   0.00000  Uiso   1.00
O48    O     0.10559   0.12846   0.25000   0.00000  Uiso   1.00
O49    O     0.16666   0.20489   0.18393   0.00000  Uiso   1.00
O50    O     0.16667   0.12844   0.31608   0.00000  Uiso   1.00
O51    O     0.16667   0.20489   0.31608   0.00000  Uiso   1.00
O52    O     0.16666   0.12844   0.18393   0.00000  Uiso   1.00
Zn53   Zn    0.16667   0.21771   0.25000   0.00000  Uiso   1.00
Zn54   Zn    0.16667   0.11563   0.25000   0.00000  Uiso   1.00
O55    O     0.24377   0.16640   0.38532   0.00000  Uiso   1.00
C56    C     0.25688   0.12133   0.37796   0.00000  Uiso   1.00
H57    H     0.24109   0.10763   0.34742   0.00000  Uiso   1.00
H58    H     0.25048   0.09847   0.40691   0.00000  Uiso   1.00
C59    C     0.30357   0.12086   0.37050   0.00000  Uiso   1.00
H60    H     0.32037   0.12953   0.40222   0.00000  Uiso   1.00
H61    H     0.31348   0.08663   0.35954   0.00000  Uiso   1.00
H62    H     0.31186   0.14589   0.34434   0.00000  Uiso   1.00
O63    O     0.08956   0.16641   0.11468   0.00000  Uiso   1.00
C64    C     0.07646   0.12133   0.12205   0.00000  Uiso   1.00
H65    H     0.09224   0.10765   0.15260   0.00000  Uiso   1.00
H66    H     0.08289   0.09845   0.09312   0.00000  Uiso   1.00
C67    C     0.02977   0.12085   0.12949   0.00000  Uiso   1.00
H68    H     0.01298   0.12946   0.09774   0.00000  Uiso   1.00
H69    H     0.01987   0.08663   0.14049   0.00000  Uiso   1.00
H70    H     0.02145   0.14591   0.15560   0.00000  Uiso   1.00
O71    O     0.05409   0.17749   0.44948   0.00000  Uiso   1.00
C72    C     0.04536   0.22422   0.44480   0.00000  Uiso   1.00
H73    H     0.07327   0.24398   0.43460   0.00000  Uiso   1.00
H74    H     0.03376   0.23804   0.47703   0.00000  Uiso   1.00
C75    C     0.01210   0.23102   0.40848   0.00000  Uiso   1.00
H76    H     0.31613   0.21421   0.41818   0.00000  Uiso   1.00
H77    H     0.00594   0.26775   0.40390   0.00000  Uiso   1.00
H78    H     0.02273   0.21664   0.37616   0.00000  Uiso   1.00
O79    O     0.27924   0.17744   0.05053   0.00000  Uiso   1.00
C80    C     0.28809   0.22416   0.05503   0.00000  Uiso   1.00
H81    H     0.26020   0.24408   0.06499   0.00000  Uiso   1.00
H82    H     0.29987   0.23776   0.02280   0.00000  Uiso   1.00
C83    C     0.32121   0.23101   0.09148   0.00000  Uiso   1.00
H84    H     0.01717   0.21404   0.08202   0.00000  Uiso   1.00
H85    H     0.32747   0.26774   0.09591   0.00000  Uiso   1.00
H86    H     0.31040   0.21684   0.12381   0.00000  Uiso   1.00
C87    C     0.41995   0.16666   0.25010   0.00000  Uiso   1.00
C88    C     0.58005   0.16666   0.24990   0.00000  Uiso   1.00
C89    C     0.42359   0.17043   0.02023   0.00000  Uiso   1.00
C90    C     0.57641   0.17039   0.47977   0.00000  Uiso   1.00
C91    C     0.35462   0.12531   0.25024   0.00000  Uiso   1.00
C92    C     0.64538   0.20795   0.24990   0.00000  Uiso   1.00
C93    C     0.64537   0.12531   0.24969   0.00000  Uiso   1.00
C94    C     0.35462   0.20795   0.25016   0.00000  Uiso   1.00
C95    C     0.62419   0.16664   0.24970   0.00000  Uiso   1.00
C96    C     0.37581   0.16664   0.25030   0.00000  Uiso   1.00
C97    C     0.52828   0.02398   0.27551   0.00000  Uiso   1.00
C98    C     0.47173   0.30935   0.22447   0.00000  Uiso   1.00
C99    C     0.47172   0.02398   0.22449   0.00000  Uiso   1.00
C100   C     0.52827   0.30935   0.27553   0.00000  Uiso   1.00
C101   C     0.49870   0.16667   0.16357   0.00000  Uiso   1.00
C102   C     0.50130   0.16667   0.33643   0.00000  Uiso   1.00
C103   C     0.53973   0.16592   0.40782   0.00000  Uiso   1.00
C104   C     0.46026   0.16592   0.09218   0.00000  Uiso   1.00
C105   C     0.50185   0.16675   0.38403   0.00000  Uiso   1.00
C106   C     0.49815   0.16675   0.11597   0.00000  Uiso   1.00
C107   C     0.46385   0.16899   0.40525   0.00000  Uiso   1.00
C108   C     0.53615   0.16898   0.09475   0.00000  Uiso   1.00
C109   C     0.46263   0.17013   0.45169   0.00000  Uiso   1.00
C110   C     0.53737   0.17011   0.04831   0.00000  Uiso   1.00
C111   C     0.50045   0.16913   0.47659   0.00000  Uiso   1.00
C112   C     0.49955   0.16913   0.02341   0.00000  Uiso   1.00
C113   C     0.53917   0.16830   0.45464   0.00000  Uiso   1.00
C114   C     0.46083   0.16831   0.04536   0.00000  Uiso   1.00
C115   C     0.42434   0.17297   0.47361   0.00000  Uiso   1.00
C116   C     0.57566   0.17292   0.02640   0.00000  Uiso   1.00
H117   H     0.43535   0.16977   0.38519   0.00000  Uiso   1.00
H118   H     0.56464   0.16976   0.11481   0.00000  Uiso   1.00
H119   H     0.39375   0.17067   0.03644   0.00000  Uiso   1.00
H120   H     0.60624   0.17061   0.46357   0.00000  Uiso   1.00
H121   H     0.37077   0.09310   0.25028   0.00000  Uiso   1.00
H122   H     0.62924   0.24016   0.24991   0.00000  Uiso   1.00
H123   H     0.62922   0.09310   0.24960   0.00000  Uiso   1.00
H124   H     0.37076   0.24016   0.25021   0.00000  Uiso   1.00
H125   H     0.55091   0.04213   0.29589   0.00000  Uiso   1.00
H126   H     0.44913   0.29117   0.20406   0.00000  Uiso   1.00
H127   H     0.44909   0.04213   0.20411   0.00000  Uiso   1.00
H128   H     0.55087   0.29117   0.29594   0.00000  Uiso   1.00
N129   N     0.50000   0.28573   0.25000   0.00000  Uiso   1.00
N130   N     0.50000   0.04760   0.25000   0.00000  Uiso   1.00
O131   O     0.43892   0.20487   0.25000   0.00000  Uiso   1.00
O132   O     0.56108   0.12846   0.25001   0.00000  Uiso   1.00
O133   O     0.56108   0.20487   0.25001   0.00000  Uiso   1.00
O134   O     0.43892   0.12846   0.25000   0.00000  Uiso   1.00
O135   O     0.49999   0.20489   0.18393   0.00000  Uiso   1.00
O136   O     0.50001   0.12844   0.31608   0.00000  Uiso   1.00
O137   O     0.50001   0.20489   0.31608   0.00000  Uiso   1.00
O138   O     0.49999   0.12844   0.18393   0.00000  Uiso   1.00
Zn139  Zn    0.50000   0.21771   0.25000   0.00000  Uiso   1.00
Zn140  Zn    0.50000   0.11563   0.25000   0.00000  Uiso   1.00
O141   O     0.57710   0.16640   0.38532   0.00000  Uiso   1.00
C142   C     0.59021   0.12133   0.37796   0.00000  Uiso   1.00
H143   H     0.57442   0.10763   0.34742   0.00000  Uiso   1.00
H144   H     0.58381   0.09847   0.40691   0.00000  Uiso   1.00
C145   C     0.63690   0.12086   0.37050   0.00000  Uiso   1.00
H146   H     0.65370   0.12953   0.40222   0.00000  Uiso   1.00
H147   H     0.64681   0.08663   0.35954   0.00000  Uiso   1.00
H148   H     0.64520   0.14589   0.34434   0.00000  Uiso   1.00
O149   O     0.42289   0.16641   0.11468   0.00000  Uiso   1.00
C150   C     0.40979   0.12133   0.12205   0.00000  Uiso   1.00
H151   H     0.42557   0.10765   0.15260   0.00000  Uiso   1.00
H152   H     0.41622   0.09845   0.09312   0.00000  Uiso   1.00
C153   C     0.36310   0.12085   0.12949   0.00000  Uiso   1.00
H154   H     0.34631   0.12946   0.09774   0.00000  Uiso   1.00
H155   H     0.35321   0.08663   0.14049   0.00000  Uiso   1.00
H156   H     0.35478   0.14591   0.15560   0.00000  Uiso   1.00
O157   O     0.38742   0.17749   0.44948   0.00000  Uiso   1.00
C158   C     0.37869   0.22422   0.44480   0.00000  Uiso   1.00
H159   H     0.40661   0.24398   0.43460   0.00000  Uiso   1.00
H160   H     0.36710   0.23804   0.47703   0.00000  Uiso   1.00
C161   C     0.34544   0.23102   0.40848   0.00000  Uiso   1.00
H162   H     0.64947   0.21421   0.41818   0.00000  Uiso   1.00
H163   H     0.33928   0.26775   0.40390   0.00000  Uiso   1.00
H164   H     0.35607   0.21664   0.37616   0.00000  Uiso   1.00
O165   O     0.61257   0.17744   0.05053   0.00000  Uiso   1.00
C166   C     0.62142   0.22416   0.05503   0.00000  Uiso   1.00
H167   H     0.59353   0.24408   0.06499   0.00000  Uiso   1.00
H168   H     0.63321   0.23776   0.02280   0.00000  Uiso   1.00
C169   C     0.65455   0.23101   0.09148   0.00000  Uiso   1.00
H170   H     0.35050   0.21404   0.08202   0.00000  Uiso   1.00
H171   H     0.66080   0.26774   0.09591   0.00000  Uiso   1.00
H172   H     0.64373   0.21684   0.12381   0.00000  Uiso   1.00
C173   C     0.75329   0.16666   0.25010   0.00000  Uiso   1.00
C174   C     0.91338   0.16666   0.24990   0.00000  Uiso   1.00
C175   C     0.75692   0.17043   0.02023   0.00000  Uiso   1.00
C176   C     0.90974   0.17039   0.47977   0.00000  Uiso   1.00
C177   C     0.68796   0.12531   0.25024   0.00000  Uiso   1.00
C178   C     0.97872   0.20795   0.24990   0.00000  Uiso   1.00
C179   C     0.97871   0.12531   0.24969   0.00000  Uiso   1.00
C180   C     0.68795   0.20795   0.25016   0.00000  Uiso   1.00
C181   C     0.95752   0.16664   0.24970   0.00000  Uiso   1.00
C182   C     0.70914   0.16664   0.25030   0.00000  Uiso   1.00
C183   C     0.86161   0.02398   0.27551   0.00000  Uiso   1.00
C184   C     0.80506   0.30935   0.22447   0.00000  Uiso   1.00
C185   C     0.80505   0.02398   0.22449   0.00000  Uiso   1.00
C186   C     0.86160   0.30935   0.27553   0.00000  Uiso   1.00
C187   C     0.83203   0.16667   0.16357   0.00000  Uiso   1.00
C188   C     0.83463   0.16667   0.33643   0.00000  Uiso   1.00
C189   C     0.87307   0.16592   0.40782   0.00000  Uiso   1.00
C190   C     0.79360   0.16592   0.09218   0.00000  Uiso   1.00
C191   C     0.83518   0.16675   0.38403   0.00000  Uiso   1.00
C192   C     0.83149   0.16675   0.11597   0.00000  Uiso   1.00
C193   C     0.79719   0.16899   0.40525   0.00000  Uiso   1.00
C194   C     0.86948   0.16898   0.09475   0.00000  Uiso   1.00
C195   C     0.79596   0.17013   0.45169   0.00000  Uiso   1.00
C196   C     0.87070   0.17011   0.04831   0.00000  Uiso   1.00
C197   C     0.83378   0.16913   0.47659   0.00000  Uiso   1.00
C198   C     0.83288   0.16913   0.02341   0.00000  Uiso   1.00
C199   C     0.87250   0.16830   0.45464   0.00000  Uiso   1.00
C200   C     0.79416   0.16831   0.04536   0.00000  Uiso   1.00
C201   C     0.75767   0.17297   0.47361   0.00000  Uiso   1.00
C202   C     0.90899   0.17292   0.02640   0.00000  Uiso   1.00
H203   H     0.76869   0.16977   0.38519   0.00000  Uiso   1.00
H204   H     0.89798   0.16976   0.11481   0.00000  Uiso   1.00
H205   H     0.72709   0.17067   0.03644   0.00000  Uiso   1.00
H206   H     0.93958   0.17061   0.46357   0.00000  Uiso   1.00
H207   H     0.70411   0.09310   0.25028   0.00000  Uiso   1.00
H208   H     0.96257   0.24016   0.24991   0.00000  Uiso   1.00
H209   H     0.96256   0.09310   0.24960   0.00000  Uiso   1.00
H210   H     0.70410   0.24016   0.25021   0.00000  Uiso   1.00
H211   H     0.88424   0.04213   0.29589   0.00000  Uiso   1.00
H212   H     0.78246   0.29117   0.20406   0.00000  Uiso   1.00
H213   H     0.78242   0.04213   0.20411   0.00000  Uiso   1.00
H214   H     0.88420   0.29117   0.29594   0.00000  Uiso   1.00
N215   N     0.83333   0.28573   0.25000   0.00000  Uiso   1.00
N216   N     0.83333   0.04760   0.25000   0.00000  Uiso   1.00
O217   O     0.77226   0.20487   0.25000   0.00000  Uiso   1.00
O218   O     0.89441   0.12846   0.25001   0.00000  Uiso   1.00
O219   O     0.89441   0.20487   0.25001   0.00000  Uiso   1.00
O220   O     0.77226   0.12846   0.25000   0.00000  Uiso   1.00
O221   O     0.83333   0.20489   0.18393   0.00000  Uiso   1.00
O222   O     0.83334   0.12844   0.31608   0.00000  Uiso   1.00
O223   O     0.83334   0.20489   0.31608   0.00000  Uiso   1.00
O224   O     0.83333   0.12844   0.18393   0.00000  Uiso   1.00
Zn225  Zn    0.83333   0.21771   0.25000   0.00000  Uiso   1.00
Zn226  Zn    0.83333   0.11563   0.25000   0.00000  Uiso   1.00
O227   O     0.91044   0.16640   0.38532   0.00000  Uiso   1.00
C228   C     0.92355   0.12133   0.37796   0.00000  Uiso   1.00
H229   H     0.90776   0.10763   0.34742   0.00000  Uiso   1.00
H230   H     0.91714   0.09847   0.40691   0.00000  Uiso   1.00
C231   C     0.97024   0.12086   0.37050   0.00000  Uiso   1.00
H232   H     0.98704   0.12953   0.40222   0.00000  Uiso   1.00
H233   H     0.98014   0.08663   0.35954   0.00000  Uiso   1.00
H234   H     0.97853   0.14589   0.34434   0.00000  Uiso   1.00
O235   O     0.75623   0.16641   0.11468   0.00000  Uiso   1.00
C236   C     0.74313   0.12133   0.12205   0.00000  Uiso   1.00
H237   H     0.75891   0.10765   0.15260   0.00000  Uiso   1.00
H238   H     0.74955   0.09845   0.09312   0.00000  Uiso   1.00
C239   C     0.69643   0.12085   0.12949   0.00000  Uiso   1.00
H240   H     0.67965   0.12946   0.09774   0.00000  Uiso   1.00
H241   H     0.68654   0.08663   0.14049   0.00000  Uiso   1.00
H242   H     0.68811   0.14591   0.15560   0.00000  Uiso   1.00
O243   O     0.72076   0.17749   0.44948   0.00000  Uiso   1.00
C244   C     0.71203   0.22422   0.44480   0.00000  Uiso   1.00
H245   H     0.73994   0.24398   0.43460   0.00000  Uiso   1.00
H246   H     0.70043   0.23804   0.47703   0.00000  Uiso   1.00
C247   C     0.67877   0.23102   0.40848   0.00000  Uiso   1.00
H248   H     0.98280   0.21421   0.41818   0.00000  Uiso   1.00
H249   H     0.67261   0.26775   0.40390   0.00000  Uiso   1.00
H250   H     0.68940   0.21664   0.37616   0.00000  Uiso   1.00
O251   O     0.94591   0.17744   0.05053   0.00000  Uiso   1.00
C252   C     0.95476   0.22416   0.05503   0.00000  Uiso   1.00
H253   H     0.92687   0.24408   0.06499   0.00000  Uiso   1.00
H254   H     0.96654   0.23776   0.02280   0.00000  Uiso   1.00
C255   C     0.98788   0.23101   0.09148   0.00000  Uiso   1.00
H256   H     0.68384   0.21404   0.08202   0.00000  Uiso   1.00
H257   H     0.99413   0.26774   0.09591   0.00000  Uiso   1.00
H258   H     0.97706   0.21684   0.12381   0.00000  Uiso   1.00
C259   C     0.08662   0.49999   0.25010   0.00000  Uiso   1.00
C260   C     0.24671   0.49999   0.24990   0.00000  Uiso   1.00
C261   C     0.09026   0.50376   0.02023   0.00000  Uiso   1.00
C262   C     0.24308   0.50373   0.47977   0.00000  Uiso   1.00
C263   C     0.02129   0.45864   0.25024   0.00000  Uiso   1.00
C264   C     0.31205   0.54128   0.24990   0.00000  Uiso   1.00
C265   C     0.31204   0.45864   0.24969   0.00000  Uiso   1.00
C266   C     0.02129   0.54128   0.25016   0.00000  Uiso   1.00
C267   C     0.29086   0.49997   0.24970   0.00000  Uiso   1.00
C268   C     0.04247   0.49997   0.25030   0.00000  Uiso   1.00
C269   C     0.19495   0.35731   0.27551   0.00000  Uiso   1.00
C270   C     0.13840   0.64268   0.22447   0.00000  Uiso   1.00
C271   C     0.13839   0.35731   0.22449   0.00000  Uiso   1.00
C272   C     0.19494   0.64268   0.27553   0.00000  Uiso   1.00
C273   C     0.16536   0.50001   0.16357   0.00000  Uiso   1.00
C274   C     0.16797   0.50001   0.33643   0.00000  Uiso   1.00
C275   C     0.20640   0.49925   0.40782   0.00000  Uiso   1.00
C276   C     0.12693   0.49926   0.09218   0.00000  Uiso   1.00
C277   C     0.16851   0.50009   0.38403   0.00000  Uiso   1.00
C278   C     0.16482   0.50009   0.11597   0.00000  Uiso   1.00
C279   C     0.13052   0.50232   0.40525   0.00000  Uiso   1.00
C280   C     0.20281   0.50231   0.09475   0.00000  Uiso   1.00
C281   C     0.12930   0.50347   0.45169   0.00000  Uiso   1.00
C282   C     0.20404   0.50345   0.04831   0.00000  Uiso   1.00
C283   C     0.16712   0.50246   0.47659   0.00000  Uiso   1.00
C284   C     0.16622   0.50246   0.02341   0.00000  Uiso   1.00
C285   C     0.20584   0.50163   0.45464   0.00000  Uiso   1.00
C286   C     0.12750   0.50165   0.04536   0.00000  Uiso   1.00
C287   C     0.09101   0.50630   0.47361   0.00000  Uiso   1.00
C288   C     0.24233   0.50626   0.02640   0.00000  Uiso   1.00
H289   H     0.10202   0.50310   0.38519   0.00000  Uiso   1.00
H290   H     0.23131   0.50310   0.11481   0.00000  Uiso   1.00
H291   H     0.06042   0.50400   0.03644   0.00000  Uiso   1.00
H292   H     0.27291   0.50395   0.46357   0.00000  Uiso   1.00
H293   H     0.03744   0.42643   0.25028   0.00000  Uiso   1.00
H294   H     0.29591   0.57349   0.24991   0.00000  Uiso   1.00
H295   H     0.29589   0.42643   0.24960   0.00000  Uiso   1.00
H296   H     0.03743   0.57349   0.25021   0.00000  Uiso   1.00
H297   H     0.21758   0.37547   0.29589   0.00000  Uiso   1.00
H298   H     0.11580   0.62450   0.20406   0.00000  Uiso   1.00
H299   H     0.11576   0.37546   0.20411   0.00000  Uiso   1.00
H300   H     0.21754   0.62451   0.29594   0.00000  Uiso   1.00
N301   N     0.16667   0.61907   0.25000   0.00000  Uiso   1.00
N302   N     0.16667   0.38093   0.25000   0.00000  Uiso   1.00
O303   O     0.10559   0.53821   0.25000   0.00000  Uiso   1.00
O304   O     0.22774   0.46179   0.25001   0.00000  Uiso   1.00
O305   O     0.22774   0.53821   0.25001   0.00000  Uiso   1.00
O306   O     0.10559   0.46179   0.25000   0.00000  Uiso   1.00
O307   O     0.16666   0.53823   0.18393   0.00000  Uiso   1.00
O308   O     0.16667   0.46177   0.31608   0.00000  Uiso   1.00
O309   O     0.16667   0.53823   0.31608   0.00000  Uiso   1.00
O310   O     0.16666   0.46177   0.18393   0.00000  Uiso   1.00
Zn311  Zn    0.16667   0.55104   0.25000   0.00000  Uiso   1.00
Zn312  Zn    0.16667   0.44896   0.25000   0.00000  Uiso   1.00
O313   O     0.24377   0.49974   0.38532   0.00000  Uiso   1.00
C314   C     0.25688   0.45466   0.37796   0.00000  Uiso   1.00
H315   H     0.24109   0.44096   0.34742   0.00000  Uiso   1.00
H316   H     0.25048   0.43180   0.40691   0.00000  Uiso   1.00
C317   C     0.30357   0.45420   0.37050   0.00000  Uiso   1.00
H318   H     0.32037   0.46287   0.40222   0.00000  Uiso   1.00
H319   H     0.31348   0.41996   0.35954   0.00000  Uiso   1.00
H320   H     0.31186   0.47922   0.34434   0.00000  Uiso   1.00
O321   O     0.08956   0.49974   0.11468   0.00000  Uiso   1.00
C322   C     0.07646   0.45467   0.12205   0.00000  Uiso   1.00
H323   H     0.09224   0.44099   0.15260   0.00000  Uiso   1.00
H324   H     0.08289   0.43179   0.09312   0.00000  Uiso   1.00
C325   C     0.02977   0.45418   0.12949   0.00000  Uiso   1.00
H326   H     0.01298   0.46279   0.09774   0.00000  Uiso   1.00
H327   H     0.01987   0.41996   0.14049   0.00000  Uiso   1.00
H328   H     0.02145   0.47924   0.15560   0.00000  Uiso   1.00
O329   O     0.05409   0.51083   0.44948   0.00000  Uiso   1.00
C330   C     0.04536   0.55756   0.44480   0.00000  Uiso   1.00
H331   H     0.07327   0.57732   0.43460   0.00000  Uiso   1.00
H332   H     0.03376   0.57138   0.47703   0.00000  Uiso   1.00
C333   C     0.01210   0.56435   0.40848   0.00000  Uiso   1.00
H334   H     0.31613   0.54754   0.41818   0.00000  Uiso   1.00
H335   H     0.00594   0.60108   0.40390   0.00000  Uiso   1.00
H336   H     0.02273   0.54997   0.37616   0.00000  Uiso   1.00
O337   O     0.27924   0.51077   0.05053   0.00000  Uiso   1.00
C338   C     0.28809   0.55749   0.05503   0.00000  Uiso   1.00
H339   H     0.26020   0.57741   0.06499   0.00000  Uiso   1.00
H340   H     0.29987   0.57110   0.02280   0.00000  Uiso   1.00
C341   C     0.32121   0.56435   0.09148   0.00000  Uiso   1.00
H342   H     0.01717   0.54738   0.08202   0.00000  Uiso   1.00
H343   H     0.32747   0.60108   0.09591   0.00000  Uiso   1.00
H344   H     0.31040   0.55018   0.12381   0.00000  Uiso   1.00
C345   C     0.41995   0.49999   0.25010   0.00000  Uiso   1.00
C346   C     0.58005   0.49999   0.24990   0.00000  Uiso   1.00
C347   C     0.42359   0.50376   0.02023   0.00000  Uiso   1.00
C348   C     0.57641   0.50373   0.47977   0.00000  Uiso   1.00
C349   C     0.35462   0.45864   0.25024   0.00000  Uiso   1.00
C350   C     0.64538   0.54128   0.24990   0.00000  Uiso   1.00
C351   C     0.64537   0.45864   0.24969   0.00000  Uiso   1.00
C352   C     0.35462   0.54128   0.25016   0.00000  Uiso   1.00
C353   C     0.62419   0.49997   0.24970   0.00000  Uiso   1.00
C354   C     0.37581   0.49997   0.25030   0.00000  Uiso   1.00
C355   C     0.52828   0.35731   0.27551   0.00000  Uiso   1.00
C356   C     0.47173   0.64268   0.22447   0.00000  Uiso   1.00
C357   C     0.47172   0.35731   0.22449   0.00000  Uiso   1.00
C358   C     0.52827   0.64268   0.27553   0.00000  Uiso   1.00
C359   C     0.49870   0.50001   0.16357   0.00000  Uiso   1.00
C360   C     0.50130   0.50001   0.33643   0.00000  Uiso   1.00
C361   C     0.53973   0.49925   0.40782   0.00000  Uiso   1.00
C362   C     0.46026   0.49926   0.09218   0.00000  Uiso   1.00
C363   C     0.50185   0.50009   0.38403   0.00000  Uiso   1.00
C364   C     0.49815   0.50009   0.11597   0.00000  Uiso   1.00
C365   C     0.46385   0.50232   0.40525   0.00000  Uiso   1.00
C366   C     0.53615   0.50231   0.09475   0.00000  Uiso   1.00
C367   C     0.46263   0.50347   0.45169   0.00000  Uiso   1.00
C368   C     0.53737   0.50345   0.04831   0.00000  Uiso   1.00
C369   C     0.50045   0.50246   0.47659   0.00000  Uiso   1.00
C370   C     0.49955   0.50246   0.02341   0.00000  Uiso   1.00
C371   C     0.53917   0.50163   0.45464   0.00000  Uiso   1.00
C372   C     0.46083   0.50165   0.04536   0.00000  Uiso   1.00
C373   C     0.42434   0.50630   0.47361   0.00000  Uiso   1.00
C374   C     0.57566   0.50626   0.02640   0.00000  Uiso   1.00
H375   H     0.43535   0.50310   0.38519   0.00000  Uiso   1.00
H376   H     0.56464   0.50310   0.11481   0.00000  Uiso   1.00
H377   H     0.39375   0.50400   0.03644   0.00000  Uiso   1.00
H378   H     0.60624   0.50395   0.46357   0.00000  Uiso   1.00
H379   H     0.37077   0.42643   0.25028   0.00000  Uiso   1.00
H380   H     0.62924   0.57349   0.24991   0.00000  Uiso   1.00
H381   H     0.62922   0.42643   0.24960   0.00000  Uiso   1.00
H382   H     0.37076   0.57349   0.25021   0.00000  Uiso   1.00
H383   H     0.55091   0.37547   0.29589   0.00000  Uiso   1.00
H384   H     0.44913   0.62450   0.20406   0.00000  Uiso   1.00
H385   H     0.44909   0.37546   0.20411   0.00000  Uiso   1.00
H386   H     0.55087   0.62451   0.29594   0.00000  Uiso   1.00
N387   N     0.50000   0.61907   0.25000   0.00000  Uiso   1.00
N388   N     0.50000   0.38093   0.25000   0.00000  Uiso   1.00
O389   O     0.43892   0.53821   0.25000   0.00000  Uiso   1.00
O390   O     0.56108   0.46179   0.25001   0.00000  Uiso   1.00
O391   O     0.56108   0.53821   0.25001   0.00000  Uiso   1.00
O392   O     0.43892   0.46179   0.25000   0.00000  Uiso   1.00
O393   O     0.49999   0.53823   0.18393   0.00000  Uiso   1.00
O394   O     0.50001   0.46177   0.31608   0.00000  Uiso   1.00
O395   O     0.50001   0.53823   0.31608   0.00000  Uiso   1.00
O396   O     0.49999   0.46177   0.18393   0.00000  Uiso   1.00
Zn397  Zn    0.50000   0.55104   0.25000   0.00000  Uiso   1.00
Zn398  Zn    0.50000   0.44896   0.25000   0.00000  Uiso   1.00
O399   O     0.57710   0.49974   0.38532   0.00000  Uiso   1.00
C400   C     0.59021   0.45466   0.37796   0.00000  Uiso   1.00
H401   H     0.57442   0.44096   0.34742   0.00000  Uiso   1.00
H402   H     0.58381   0.43180   0.40691   0.00000  Uiso   1.00
C403   C     0.63690   0.45420   0.37050   0.00000  Uiso   1.00
H404   H     0.65370   0.46287   0.40222   0.00000  Uiso   1.00
H405   H     0.64681   0.41996   0.35954   0.00000  Uiso   1.00
H406   H     0.64520   0.47922   0.34434   0.00000  Uiso   1.00
O407   O     0.42289   0.49974   0.11468   0.00000  Uiso   1.00
C408   C     0.40979   0.45467   0.12205   0.00000  Uiso   1.00
H409   H     0.42557   0.44099   0.15260   0.00000  Uiso   1.00
H410   H     0.41622   0.43179   0.09312   0.00000  Uiso   1.00
C411   C     0.36310   0.45418   0.12949   0.00000  Uiso   1.00
H412   H     0.34631   0.46279   0.09774   0.00000  Uiso   1.00
H413   H     0.35321   0.41996   0.14049   0.00000  Uiso   1.00
H414   H     0.35478   0.47924   0.15560   0.00000  Uiso   1.00
O415   O     0.38742   0.51083   0.44948   0.00000  Uiso   1.00
C416   C     0.37869   0.55756   0.44480   0.00000  Uiso   1.00
H417   H     0.40661   0.57732   0.43460   0.00000  Uiso   1.00
H418   H     0.36710   0.57138   0.47703   0.00000  Uiso   1.00
C419   C     0.34544   0.56435   0.40848   0.00000  Uiso   1.00
H420   H     0.64947   0.54754   0.41818   0.00000  Uiso   1.00
H421   H     0.33928   0.60108   0.40390   0.00000  Uiso   1.00
H422   H     0.35607   0.54997   0.37616   0.00000  Uiso   1.00
O423   O     0.61257   0.51077   0.05053   0.00000  Uiso   1.00
C424   C     0.62142   0.55749   0.05503   0.00000  Uiso   1.00
H425   H     0.59353   0.57741   0.06499   0.00000  Uiso   1.00
H426   H     0.63321   0.57110   0.02280   0.00000  Uiso   1.00
C427   C     0.65455   0.56435   0.09148   0.00000  Uiso   1.00
H428   H     0.35050   0.54738   0.08202   0.00000  Uiso   1.00
H429   H     0.66080   0.60108   0.09591   0.00000  Uiso   1.00
H430   H     0.64373   0.55018   0.12381   0.00000  Uiso   1.00
C431   C     0.75329   0.49999   0.25010   0.00000  Uiso   1.00
C432   C     0.91338   0.49999   0.24990   0.00000  Uiso   1.00
C433   C     0.75692   0.50376   0.02023   0.00000  Uiso   1.00
C434   C     0.90974   0.50373   0.47977   0.00000  Uiso   1.00
C435   C     0.68796   0.45864   0.25024   0.00000  Uiso   1.00
C436   C     0.97872   0.54128   0.24990   0.00000  Uiso   1.00
C437   C     0.97871   0.45864   0.24969   0.00000  Uiso   1.00
C438   C     0.68795   0.54128   0.25016   0.00000  Uiso   1.00
C439   C     0.95752   0.49997   0.24970   0.00000  Uiso   1.00
C440   C     0.70914   0.49997   0.25030   0.00000  Uiso   1.00
C441   C     0.86161   0.35731   0.27551   0.00000  Uiso   1.00
C442   C     0.80506   0.64268   0.22447   0.00000  Uiso   1.00
C443   C     0.80505   0.35731   0.22449   0.00000  Uiso   1.00
C444   C     0.86160   0.64268   0.27553   0.00000  Uiso   1.00
C445   C     0.83203   0.50001   0.16357   0.00000  Uiso   1.00
C446   C     0.83463   0.50001   0.33643   0.00000  Uiso   1.00
C447   C     0.87307   0.49925   0.40782   0.00000  Uiso   1.00
C448   C     0.79360   0.49926   0.09218   0.00000  Uiso   1.00
C449   C     0.83518   0.50009   0.38403   0.00000  Uiso   1.00
C450   C     0.83149   0.50009   0.11597   0.00000  Uiso   1.00
C451   C     0.79719   0.50232   0.40525   0.00000  Uiso   1.00
C452   C     0.86948   0.50231   0.09475   0.00000  Uiso   1.00
C453   C     0.79596   0.50347   0.45169   0.00000  Uiso   1.00
C454   C     0.87070   0.50345   0.04831   0.00000  Uiso   1.00
C455   C     0.83378   0.50246   0.47659   0.00000  Uiso   1.00
C456   C     0.83288   0.50246   0.02341   0.00000  Uiso   1.00
C457   C     0.87250   0.50163   0.45464   0.00000  Uiso   1.00
C458   C     0.79416   0.50165   0.04536   0.00000  Uiso   1.00
C459   C     0.75767   0.50630   0.47361   0.00000  Uiso   1.00
C460   C     0.90899   0.50626   0.02640   0.00000  Uiso   1.00
H461   H     0.76869   0.50310   0.38519   0.00000  Uiso   1.00
H462   H     0.89798   0.50310   0.11481   0.00000  Uiso   1.00
H463   H     0.72709   0.50400   0.03644   0.00000  Uiso   1.00
H464   H     0.93958   0.50395   0.46357   0.00000  Uiso   1.00
H465   H     0.70411   0.42643   0.25028   0.00000  Uiso   1.00
H466   H     0.96257   0.57349   0.24991   0.00000  Uiso   1.00
H467   H     0.96256   0.42643   0.24960   0.00000  Uiso   1.00
H468   H     0.70410   0.57349   0.25021   0.00000  Uiso   1.00
H469   H     0.88424   0.37547   0.29589   0.00000  Uiso   1.00
H470   H     0.78246   0.62450   0.20406   0.00000  Uiso   1.00
H471   H     0.78242   0.37546   0.20411   0.00000  Uiso   1.00
H472   H     0.88420   0.62451   0.29594   0.00000  Uiso   1.00
N473   N     0.83333   0.61907   0.25000   0.00000  Uiso   1.00
N474   N     0.83333   0.38093   0.25000   0.00000  Uiso   1.00
O475   O     0.77226   0.53821   0.25000   0.00000  Uiso   1.00
O476   O     0.89441   0.46179   0.25001   0.00000  Uiso   1.00
O477   O     0.89441   0.53821   0.25001   0.00000  Uiso   1.00
O478   O     0.77226   0.46179   0.25000   0.00000  Uiso   1.00
O479   O     0.83333   0.53823   0.18393   0.00000  Uiso   1.00
O480   O     0.83334   0.46177   0.31608   0.00000  Uiso   1.00
O481   O     0.83334   0.53823   0.31608   0.00000  Uiso   1.00
O482   O     0.83333   0.46177   0.18393   0.00000  Uiso   1.00
Zn483  Zn    0.83333   0.55104   0.25000   0.00000  Uiso   1.00
Zn484  Zn    0.83333   0.44896   0.25000   0.00000  Uiso   1.00
O485   O     0.91044   0.49974   0.38532   0.00000  Uiso   1.00
C486   C     0.92355   0.45466   0.37796   0.00000  Uiso   1.00
H487   H     0.90776   0.44096   0.34742   0.00000  Uiso   1.00
H488   H     0.91714   0.43180   0.40691   0.00000  Uiso   1.00
C489   C     0.97024   0.45420   0.37050   0.00000  Uiso   1.00
H490   H     0.98704   0.46287   0.40222   0.00000  Uiso   1.00
H491   H     0.98014   0.41996   0.35954   0.00000  Uiso   1.00
H492   H     0.97853   0.47922   0.34434   0.00000  Uiso   1.00
O493   O     0.75623   0.49974   0.11468   0.00000  Uiso   1.00
C494   C     0.74313   0.45467   0.12205   0.00000  Uiso   1.00
H495   H     0.75891   0.44099   0.15260   0.00000  Uiso   1.00
H496   H     0.74955   0.43179   0.09312   0.00000  Uiso   1.00
C497   C     0.69643   0.45418   0.12949   0.00000  Uiso   1.00
H498   H     0.67965   0.46279   0.09774   0.00000  Uiso   1.00
H499   H     0.68654   0.41996   0.14049   0.00000  Uiso   1.00
H500   H     0.68811   0.47924   0.15560   0.00000  Uiso   1.00
O501   O     0.72076   0.51083   0.44948   0.00000  Uiso   1.00
C502   C     0.71203   0.55756   0.44480   0.00000  Uiso   1.00
H503   H     0.73994   0.57732   0.43460   0.00000  Uiso   1.00
H504   H     0.70043   0.57138   0.47703   0.00000  Uiso   1.00
C505   C     0.67877   0.56435   0.40848   0.00000  Uiso   1.00
H506   H     0.98280   0.54754   0.41818   0.00000  Uiso   1.00
H507   H     0.67261   0.60108   0.40390   0.00000  Uiso   1.00
H508   H     0.68940   0.54997   0.37616   0.00000  Uiso   1.00
O509   O     0.94591   0.51077   0.05053   0.00000  Uiso   1.00
C510   C     0.95476   0.55749   0.05503   0.00000  Uiso   1.00
H511   H     0.92687   0.57741   0.06499   0.00000  Uiso   1.00
H512   H     0.96654   0.57110   0.02280   0.00000  Uiso   1.00
C513   C     0.98788   0.56435   0.09148   0.00000  Uiso   1.00
H514   H     0.68384   0.54738   0.08202   0.00000  Uiso   1.00
H515   H     0.99413   0.60108   0.09591   0.00000  Uiso   1.00
H516   H     0.97706   0.55018   0.12381   0.00000  Uiso   1.00
C517   C     0.08662   0.83333   0.25010   0.00000  Uiso   1.00
C518   C     0.24671   0.83333   0.24990   0.00000  Uiso   1.00
C519   C     0.09026   0.83710   0.02023   0.00000  Uiso   1.00
C520   C     0.24308   0.83706   0.47977   0.00000  Uiso   1.00
C521   C     0.02129   0.79197   0.25024   0.00000  Uiso   1.00
C522   C     0.31205   0.87461   0.24990   0.00000  Uiso   1.00
C523   C     0.31204   0.79197   0.24969   0.00000  Uiso   1.00
C524   C     0.02129   0.87461   0.25016   0.00000  Uiso   1.00
C525   C     0.29086   0.83330   0.24970   0.00000  Uiso   1.00
C526   C     0.04247   0.83330   0.25030   0.00000  Uiso   1.00
C527   C     0.19495   0.69065   0.27551   0.00000  Uiso   1.00
C528   C     0.13840   0.97601   0.22447   0.00000  Uiso   1.00
C529   C     0.13839   0.69064   0.22449   0.00000  Uiso   1.00
C530   C     0.19494   0.97602   0.27553   0.00000  Uiso   1.00
C531   C     0.16536   0.83334   0.16357   0.00000  Uiso   1.00
C532   C     0.16797   0.83334   0.33643   0.00000  Uiso   1.00
C533   C     0.20640   0.83258   0.40782   0.00000  Uiso   1.00
C534   C     0.12693   0.83259   0.09218   0.00000  Uiso   1.00
C535   C     0.16851   0.83342   0.38403   0.00000  Uiso   1.00
C536   C     0.16482   0.83342   0.11597   0.00000  Uiso   1.00
C537   C     0.13052   0.83565   0.40525   0.00000  Uiso   1.00
C538   C     0.20281   0.83565   0.09475   0.00000  Uiso   1.00
C539   C     0.12930   0.83680   0.45169   0.00000  Uiso   1.00
C540   C     0.20404   0.83678   0.04831   0.00000  Uiso   1.00
C541   C     0.16712   0.83580   0.47659   0.00000  Uiso   1.00
C542   C     0.16622   0.83579   0.02341   0.00000  Uiso   1.00
C543   C     0.20584   0.83497   0.45464   0.00000  Uiso   1.00
C544   C     0.12750   0.83498   0.04536   0.00000  Uiso   1.00
C545   C     0.09101   0.83963   0.47361   0.00000  Uiso   1.00
C546   C     0.24233   0.83959   0.02640   0.00000  Uiso   1.00
H547   H     0.10202   0.83644   0.38519   0.00000  Uiso   1.00
H548   H     0.23131   0.83643   0.11481   0.00000  Uiso   1.00
H549   H     0.06042   0.83733   0.03644   0.00000  Uiso   1.00
H550   H     0.27291   0.83728   0.46357   0.00000  Uiso   1.00
H551   H     0.03744   0.75976   0.25028   0.00000  Uiso   1.00
H552   H     0.29591   0.90683   0.24991   0.00000  Uiso   1.00
H553   H     0.29589   0.75976   0.24960   0.00000  Uiso   1.00
H554   H     0.03743   0.90683   0.25021   0.00000  Uiso   1.00
H555   H     0.21758   0.70880   0.29589   0.00000  Uiso   1.00
H556   H     0.11580   0.95784   0.20406   0.00000  Uiso   1.00
H557   H     0.11576   0.70880   0.20411   0.00000  Uiso   1.00
H558   H     0.21754   0.95784   0.29594   0.00000  Uiso   1.00
N559   N     0.16667   0.95240   0.25000   0.00000  Uiso   1.00
N560   N     0.16667   0.71427   0.25000   0.00000  Uiso   1.00
O561   O     0.10559   0.87154   0.25000   0.00000  Uiso   1.00
O562   O     0.22774   0.79513   0.25001   0.00000  Uiso   1.00
O563   O     0.22774   0.87154   0.25001   0.00000  Uiso   1.00
O564   O     0.10559   0.79513   0.25000   0.00000  Uiso   1.00
O565   O     0.16666   0.87156   0.18393   0.00000  Uiso   1.00
O566   O     0.16667   0.79511   0.31608   0.00000  Uiso   1.00
O567   O     0.16667   0.87156   0.31608   0.00000  Uiso   1.00
O568   O     0.16666   0.79511   0.18393   0.00000  Uiso   1.00
Zn569  Zn    0.16667   0.88437   0.25000   0.00000  Uiso   1.00
Zn570  Zn    0.16667   0.78229   0.25000   0.00000  Uiso   1.00
O571   O     0.24377   0.83307   0.38532   0.00000  Uiso   1.00
C572   C     0.25688   0.78800   0.37796   0.00000  Uiso   1.00
H573   H     0.24109   0.77430   0.34742   0.00000  Uiso   1.00
H574   H     0.25048   0.76513   0.40691   0.00000  Uiso   1.00
C575   C     0.30357   0.78753   0.37050   0.00000  Uiso   1.00
H576   H     0.32037   0.79620   0.40222   0.00000  Uiso   1.00
H577   H     0.31348   0.75330   0.35954   0.00000  Uiso   1.00
H578   H     0.31186   0.81255   0.34434   0.00000  Uiso   1.00
O579   O     0.08956   0.83307   0.11468   0.00000  Uiso   1.00
C580   C     0.07646   0.78800   0.12205   0.00000  Uiso   1.00
H581   H     0.09224   0.77432   0.15260   0.00000  Uiso   1.00
H582   H     0.08289   0.76512   0.09312   0.00000  Uiso   1.00
C583   C     0.02977   0.78752   0.12949   0.00000  Uiso   1.00
H584   H     0.01298   0.79612   0.09774   0.00000  Uiso   1.00
H585   H     0.01987   0.75329   0.14049   0.00000  Uiso   1.00
H586   H     0.02145   0.81258   0.15560   0.00000  Uiso   1.00
O587   O     0.05409   0.84416   0.44948   0.00000  Uiso   1.00
C588   C     0.04536   0.89089   0.44480   0.00000  Uiso   1.00
H589   H     0.07327   0.91065   0.43460   0.00000  Uiso   1.00
H590   H     0.03376   0.90471   0.47703   0.00000  Uiso   1.00
C591   C     0.01210   0.89768   0.40848   0.00000  Uiso   1.00
H592   H     0.31613   0.88087   0.41818   0.00000  Uiso   1.00
H593   H     0.00594   0.93442   0.40390   0.00000  Uiso   1.00
H594   H     0.02273   0.88330   0.37616   0.00000  Uiso   1.00
O595   O     0.27924   0.84410   0.05053   0.00000  Uiso   1.00
C596   C     0.28809   0.89083   0.05503   0.00000  Uiso   1.00
H597   H     0.26020   0.91075   0.06499   0.00000  Uiso   1.00
H598   H     0.29987   0.90443   0.02280   0.00000  Uiso   1.00
C599   C     0.32121   0.89768   0.09148   0.00000  Uiso   1.00
H600   H     0.01717   0.88071   0.08202   0.00000  Uiso   1.00
H601   H     0.32747   0.93441   0.09591   0.00000  Uiso   1.00
H602   H     0.31040   0.88351   0.12381   0.00000  Uiso   1.00
C603   C     0.41995   0.83333   0.25010   0.00000  Uiso   1.00
C604   C     0.58005   0.83333   0.24990   0.00000  Uiso   1.00
C605   C     0.42359   0.83710   0.02023   0.00000  Uiso   1.00
C606   C     0.57641   0.83706   0.47977   0.00000  Uiso   1.00
C607   C     0.35462   0.79197   0.25024   0.00000  Uiso   1.00
C608   C     0.64538   0.87461   0.24990   0.00000  Uiso   1.00
C609   C     0.64537   0.79197   0.24969   0.00000  Uiso   1.00
C610   C     0.35462   0.87461   0.25016   0.00000  Uiso   1.00
C611   C     0.62419   0.83330   0.24970   0.00000  Uiso   1.00
C612   C     0.37581   0.83330   0.25030   0.00000  Uiso   1.00
C613   C     0.52828   0.69065   0.27551   0.00000  Uiso   1.00
C614   C     0.47173   0.97601   0.22447   0.00000  Uiso   1.00
C615   C     0.47172   0.69064   0.22449   0.00000  Uiso   1.00
C616   C     0.52827   0.97602   0.27553   0.00000  Uiso   1.00
C617   C     0.49870   0.83334   0.16357   0.00000  Uiso   1.00
C618   C     0.50130   0.83334   0.33643   0.00000  Uiso   1.00
C619   C     0.53973   0.83258   0.40782   0.00000  Uiso   1.00
C620   C     0.46026   0.83259   0.09218   0.00000  Uiso   1.00
C621   C     0.50185   0.83342   0.38403   0.00000  Uiso   1.00
C622   C     0.49815   0.83342   0.11597   0.00000  Uiso   1.00
C623   C     0.46385   0.83565   0.40525   0.00000  Uiso   1.00
C624   C     0.53615   0.83565   0.09475   0.00000  Uiso   1.00
C625   C     0.46263   0.83680   0.45169   0.00000  Uiso   1.00
C626   C     0.53737   0.83678   0.04831   0.00000  Uiso   1.00
C627   C     0.50045   0.83580   0.47659   0.00000  Uiso   1.00
C628   C     0.49955   0.83579   0.02341   0.00000  Uiso   1.00
C629   C     0.53917   0.83497   0.45464   0.00000  Uiso   1.00
C630   C     0.46083   0.83498   0.04536   0.00000  Uiso   1.00
C631   C     0.42434   0.83963   0.47361   0.00000  Uiso   1.00
C632   C     0.57566   0.83959   0.02640   0.00000  Uiso   1.00
H633   H     0.43535   0.83644   0.38519   0.00000  Uiso   1.00
H634   H     0.56464   0.83643   0.11481   0.00000  Uiso   1.00
H635   H     0.39375   0.83733   0.03644   0.00000  Uiso   1.00
H636   H     0.60624   0.83728   0.46357   0.00000  Uiso   1.00
H637   H     0.37077   0.75976   0.25028   0.00000  Uiso   1.00
H638   H     0.62924   0.90683   0.24991   0.00000  Uiso   1.00
H639   H     0.62922   0.75976   0.24960   0.00000  Uiso   1.00
H640   H     0.37076   0.90683   0.25021   0.00000  Uiso   1.00
H641   H     0.55091   0.70880   0.29589   0.00000  Uiso   1.00
H642   H     0.44913   0.95784   0.20406   0.00000  Uiso   1.00
H643   H     0.44909   0.70880   0.20411   0.00000  Uiso   1.00
H644   H     0.55087   0.95784   0.29594   0.00000  Uiso   1.00
N645   N     0.50000   0.95240   0.25000   0.00000  Uiso   1.00
N646   N     0.50000   0.71427   0.25000   0.00000  Uiso   1.00
O647   O     0.43892   0.87154   0.25000   0.00000  Uiso   1.00
O648   O     0.56108   0.79513   0.25001   0.00000  Uiso   1.00
O649   O     0.56108   0.87154   0.25001   0.00000  Uiso   1.00
O650   O     0.43892   0.79513   0.25000   0.00000  Uiso   1.00
O651   O     0.49999   0.87156   0.18393   0.00000  Uiso   1.00
O652   O     0.50001   0.79511   0.31608   0.00000  Uiso   1.00
O653   O     0.50001   0.87156   0.31608   0.00000  Uiso   1.00
O654   O     0.49999   0.79511   0.18393   0.00000  Uiso   1.00
Zn655  Zn    0.50000   0.88437   0.25000   0.00000  Uiso   1.00
Zn656  Zn    0.50000   0.78229   0.25000   0.00000  Uiso   1.00
O657   O     0.57710   0.83307   0.38532   0.00000  Uiso   1.00
C658   C     0.59021   0.78800   0.37796   0.00000  Uiso   1.00
H659   H     0.57442   0.77430   0.34742   0.00000  Uiso   1.00
H660   H     0.58381   0.76513   0.40691   0.00000  Uiso   1.00
C661   C     0.63690   0.78753   0.37050   0.00000  Uiso   1.00
H662   H     0.65370   0.79620   0.40222   0.00000  Uiso   1.00
H663   H     0.64681   0.75330   0.35954   0.00000  Uiso   1.00
H664   H     0.64520   0.81255   0.34434   0.00000  Uiso   1.00
O665   O     0.42289   0.83307   0.11468   0.00000  Uiso   1.00
C666   C     0.40979   0.78800   0.12205   0.00000  Uiso   1.00
H667   H     0.42557   0.77432   0.15260   0.00000  Uiso   1.00
H668   H     0.41622   0.76512   0.09312   0.00000  Uiso   1.00
C669   C     0.36310   0.78752   0.12949   0.00000  Uiso   1.00
H670   H     0.34631   0.79612   0.09774   0.00000  Uiso   1.00
H671   H     0.35321   0.75329   0.14049   0.00000  Uiso   1.00
H672   H     0.35478   0.81258   0.15560   0.00000  Uiso   1.00
O673   O     0.38742   0.84416   0.44948   0.00000  Uiso   1.00
C674   C     0.37869   0.89089   0.44480   0.00000  Uiso   1.00
H675   H     0.40661   0.91065   0.43460   0.00000  Uiso   1.00
H676   H     0.36710   0.90471   0.47703   0.00000  Uiso   1.00
C677   C     0.34544   0.89768   0.40848   0.00000  Uiso   1.00
H678   H     0.64947   0.88087   0.41818   0.00000  Uiso   1.00
H679   H     0.33928   0.93442   0.40390   0.00000  Uiso   1.00
H680   H     0.35607   0.88330   0.37616   0.00000  Uiso   1.00
O681   O     0.61257   0.84410   0.05053   0.00000  Uiso   1.00
C682   C     0.62142   0.89083   0.05503   0.00000  Uiso   1.00
H683   H     0.59353   0.91075   0.06499   0.00000  Uiso   1.00
H684   H     0.63321   0.90443   0.02280   0.00000  Uiso   1.00
C685   C     0.65455   0.89768   0.09148   0.00000  Uiso   1.00
H686   H     0.35050   0.88071   0.08202   0.00000  Uiso   1.00
H687   H     0.66080   0.93441   0.09591   0.00000  Uiso   1.00
H688   H     0.64373   0.88351   0.12381   0.00000  Uiso   1.00
C689   C     0.75329   0.83333   0.25010   0.00000  Uiso   1.00
C690   C     0.91338   0.83333   0.24990   0.00000  Uiso   1.00
C691   C     0.75692   0.83710   0.02023   0.00000  Uiso   1.00
C692   C     0.90974   0.83706   0.47977   0.00000  Uiso   1.00
C693   C     0.68796   0.79197   0.25024   0.00000  Uiso   1.00
C694   C     0.97872   0.87461   0.24990   0.00000  Uiso   1.00
C695   C     0.97871   0.79197   0.24969   0.00000  Uiso   1.00
C696   C     0.68795   0.87461   0.25016   0.00000  Uiso   1.00
C697   C     0.95752   0.83330   0.24970   0.00000  Uiso   1.00
C698   C     0.70914   0.83330   0.25030   0.00000  Uiso   1.00
C699   C     0.86161   0.69065   0.27551   0.00000  Uiso   1.00
C700   C     0.80506   0.97601   0.22447   0.00000  Uiso   1.00
C701   C     0.80505   0.69064   0.22449   0.00000  Uiso   1.00
C702   C     0.86160   0.97602   0.27553   0.00000  Uiso   1.00
C703   C     0.83203   0.83334   0.16357   0.00000  Uiso   1.00
C704   C     0.83463   0.83334   0.33643   0.00000  Uiso   1.00
C705   C     0.87307   0.83258   0.40782   0.00000  Uiso   1.00
C706   C     0.79360   0.83259   0.09218   0.00000  Uiso   1.00
C707   C     0.83518   0.83342   0.38403   0.00000  Uiso   1.00
C708   C     0.83149   0.83342   0.11597   0.00000  Uiso   1.00
C709   C     0.79719   0.83565   0.40525   0.00000  Uiso   1.00
C710   C     0.86948   0.83565   0.09475   0.00000  Uiso   1.00
C711   C     0.79596   0.83680   0.45169   0.00000  Uiso   1.00
C712   C     0.87070   0.83678   0.04831   0.00000  Uiso   1.00
C713   C     0.83378   0.83580   0.47659   0.00000  Uiso   1.00
C714   C     0.83288   0.83579   0.02341   0.00000  Uiso   1.00
C715   C     0.87250   0.83497   0.45464   0.00000  Uiso   1.00
C716   C     0.79416   0.83498   0.04536   0.00000  Uiso   1.00
C717   C     0.75767   0.83963   0.47361   0.00000  Uiso   1.00
C718   C     0.90899   0.83959   0.02640   0.00000  Uiso   1.00
H719   H     0.76869   0.83644   0.38519   0.00000  Uiso   1.00
H720   H     0.89798   0.83643   0.11481   0.00000  Uiso   1.00
H721   H     0.72709   0.83733   0.03644   0.00000  Uiso   1.00
H722   H     0.93958   0.83728   0.46357   0.00000  Uiso   1.00
H723   H     0.70411   0.75976   0.25028   0.00000  Uiso   1.00
H724   H     0.96257   0.90683   0.24991   0.00000  Uiso   1.00
H725   H     0.96256   0.75976   0.24960   0.00000  Uiso   1.00
H726   H     0.70410   0.90683   0.25021   0.00000  Uiso   1.00
H727   H     0.88424   0.70880   0.29589   0.00000  Uiso   1.00
H728   H     0.78246   0.95784   0.20406   0.00000  Uiso   1.00
H729   H     0.78242   0.70880   0.20411   0.00000  Uiso   1.00
H730   H     0.88420   0.95784   0.29594   0.00000  Uiso   1.00
N731   N     0.83333   0.95240   0.25000   0.00000  Uiso   1.00
N732   N     0.83333   0.71427   0.25000   0.00000  Uiso   1.00
O733   O     0.77226   0.87154   0.25000   0.00000  Uiso   1.00
O734   O     0.89441   0.79513   0.25001   0.00000  Uiso   1.00
O735   O     0.89441   0.87154   0.25001   0.00000  Uiso   1.00
O736   O     0.77226   0.79513   0.25000   0.00000  Uiso   1.00
O737   O     0.83333   0.87156   0.18393   0.00000  Uiso   1.00
O738   O     0.83334   0.79511   0.31608   0.00000  Uiso   1.00
O739   O     0.83334   0.87156   0.31608   0.00000  Uiso   1.00
O740   O     0.83333   0.79511   0.18393   0.00000  Uiso   1.00
Zn741  Zn    0.83333   0.88437   0.25000   0.00000  Uiso   1.00
Zn742  Zn    0.83333   0.78229   0.25000   0.00000  Uiso   1.00
O743   O     0.91044   0.83307   0.38532   0.00000  Uiso   1.00
C744   C     0.92355   0.78800   0.37796   0.00000  Uiso   1.00
H745   H     0.90776   0.77430   0.34742   0.00000  Uiso   1.00
H746   H     0.91714   0.76513   0.40691   0.00000  Uiso   1.00
C747   C     0.97024   0.78753   0.37050   0.00000  Uiso   1.00
H748   H     0.98704   0.79620   0.40222   0.00000  Uiso   1.00
H749   H     0.98014   0.75330   0.35954   0.00000  Uiso   1.00
H750   H     0.97853   0.81255   0.34434   0.00000  Uiso   1.00
O751   O     0.75623   0.83307   0.11468   0.00000  Uiso   1.00
C752   C     0.74313   0.78800   0.12205   0.00000  Uiso   1.00
H753   H     0.75891   0.77432   0.15260   0.00000  Uiso   1.00
H754   H     0.74955   0.76512   0.09312   0.00000  Uiso   1.00
C755   C     0.69643   0.78752   0.12949   0.00000  Uiso   1.00
H756   H     0.67965   0.79612   0.09774   0.00000  Uiso   1.00
H757   H     0.68654   0.75329   0.14049   0.00000  Uiso   1.00
H758   H     0.68811   0.81258   0.15560   0.00000  Uiso   1.00
O759   O     0.72076   0.84416   0.44948   0.00000  Uiso   1.00
C760   C     0.71203   0.89089   0.44480   0.00000  Uiso   1.00
H761   H     0.73994   0.91065   0.43460   0.00000  Uiso   1.00
H762   H     0.70043   0.90471   0.47703   0.00000  Uiso   1.00
C763   C     0.67877   0.89768   0.40848   0.00000  Uiso   1.00
H764   H     0.98280   0.88087   0.41818   0.00000  Uiso   1.00
H765   H     0.67261   0.93442   0.40390   0.00000  Uiso   1.00
H766   H     0.68940   0.88330   0.37616   0.00000  Uiso   1.00
O767   O     0.94591   0.84410   0.05053   0.00000  Uiso   1.00
C768   C     0.95476   0.89083   0.05503   0.00000  Uiso   1.00
H769   H     0.92687   0.91075   0.06499   0.00000  Uiso   1.00
H770   H     0.96654   0.90443   0.02280   0.00000  Uiso   1.00
C771   C     0.98788   0.89768   0.09148   0.00000  Uiso   1.00
H772   H     0.68384   0.88071   0.08202   0.00000  Uiso   1.00
H773   H     0.99413   0.93441   0.09591   0.00000  Uiso   1.00
H774   H     0.97706   0.88351   0.12381   0.00000  Uiso   1.00
C775   C     0.08662   0.16666   0.75010   0.00000  Uiso   1.00
C776   C     0.24671   0.16666   0.74990   0.00000  Uiso   1.00
C777   C     0.09026   0.17043   0.52023   0.00000  Uiso   1.00
C778   C     0.24308   0.17039   0.97977   0.00000  Uiso   1.00
C779   C     0.02129   0.12531   0.75024   0.00000  Uiso   1.00
C780   C     0.31205   0.20795   0.74990   0.00000  Uiso   1.00
C781   C     0.31204   0.12531   0.74969   0.00000  Uiso   1.00
C782   C     0.02129   0.20795   0.75016   0.00000  Uiso   1.00
C783   C     0.29086   0.16664   0.74970   0.00000  Uiso   1.00
C784   C     0.04247   0.16664   0.75030   0.00000  Uiso   1.00
C785   C     0.19495   0.02398   0.77551   0.00000  Uiso   1.00
C786   C     0.13840   0.30935   0.72447   0.00000  Uiso   1.00
C787   C     0.13839   0.02398   0.72449   0.00000  Uiso   1.00
C788   C     0.19494   0.30935   0.77553   0.00000  Uiso   1.00
C789   C     0.16536   0.16667   0.66357   0.00000  Uiso   1.00
C790   C     0.16797   0.16667   0.83643   0.00000  Uiso   1.00
C791   C     0.20640   0.16592   0.90782   0.00000  Uiso   1.00
C792   C     0.12693   0.16592   0.59218   0.00000  Uiso   1.00
C793   C     0.16851   0.16675   0.88403   0.00000  Uiso   1.00
C794   C     0.16482   0.16675   0.61597   0.00000  Uiso   1.00
C795   C     0.13052   0.16899   0.90525   0.00000  Uiso   1.00
C796   C     0.20281   0.16898   0.59475   0.00000  Uiso   1.00
C797   C     0.12930   0.17013   0.95169   0.00000  Uiso   1.00
C798   C     0.20404   0.17011   0.54831   0.00000  Uiso   1.00
C799   C     0.16712   0.16913   0.97659   0.00000  Uiso   1.00
C800   C     0.16622   0.16913   0.52341   0.00000  Uiso   1.00
C801   C     0.20584   0.16830   0.95464   0.00000  Uiso   1.00
C802   C     0.12750   0.16831   0.54536   0.00000  Uiso   1.00
C803   C     0.09101   0.17297   0.97361   0.00000  Uiso   1.00
C804   C     0.24233   0.17292   0.52640   0.00000  Uiso   1.00
H805   H     0.10202   0.16977   0.88519   0.00000  Uiso   1.00
H806   H     0.23131   0.16976   0.61481   0.00000  Uiso   1.00
H807   H     0.06042   0.17067   0.53644   0.00000  Uiso   1.00
H808   H     0.27291   0.17061   0.96357   0.00000  Uiso   1.00
H809   H     0.03744   0.09310   0.75028   0.00000  Uiso   1.00
H810   H     0.29591   0.24016   0.74991   0.00000  Uiso   1.00
H811   H     0.29589   0.09310   0.74960   0.00000  Uiso   1.00
H812   H     0.03743   0.24016   0.75021   0.00000  Uiso   1.00
H813   H     0.21758   0.04213   0.79589   0.00000  Uiso   1.00
H814   H     0.11580   0.29117   0.70406   0.00000  Uiso   1.00
H815   H     0.11576   0.04213   0.70411   0.00000  Uiso   1.00
H816   H     0.21754   0.29117   0.79594   0.00000  Uiso   1.00
N817   N     0.16667   0.28573   0.75000   0.00000  Uiso   1.00
N818   N     0.16667   0.04760   0.75000   0.00000  Uiso   1.00
O819   O     0.10559   0.20487   0.75000   0.00000  Uiso   1.00
O820   O     0.22774   0.12846   0.75001   0.00000  Uiso   1.00
O821   O     0.22774   0.20487   0.75001   0.00000  Uiso   1.00
O822   O     0.10559   0.12846   0.75000   0.00000  Uiso   1.00
O823   O     0.16666   0.20489   0.68393   0.00000  Uiso   1.00
O824   O     0.16667   0.12844   0.81608   0.00000  Uiso   1.00
O825   O     0.16667   0.20489   0.81608   0.00000  Uiso   1.00
O826   O     0.16666   0.12844   0.68393   0.00000  Uiso   1.00
Zn827  Zn    0.16667   0.21771   0.75000   0.00000  Uiso   1.00
Zn828  Zn    0.16667   0.11563   0.75000   0.00000  Uiso   1.00
O829   O     0.24377   0.16640   0.88532   0.00000  Uiso   1.00
C830   C     0.25688   0.12133   0.87796   0.00000  Uiso   1.00
H831   H     0.24109   0.10763   0.84742   0.00000  Uiso   1.00
H832   H     0.25048   0.09847   0.90691   0.00000  Uiso   1.00
C833   C     0.30357   0.12086   0.87050   0.00000  Uiso   1.00
H834   H     0.32037   0.12953   0.90222   0.00000  Uiso   1.00
H835   H     0.31348   0.08663   0.85954   0.00000  Uiso   1.00
H836   H     0.31186   0.14589   0.84434   0.00000  Uiso   1.00
O837   O     0.08956   0.16641   0.61468   0.00000  Uiso   1.00
C838   C     0.07646   0.12133   0.62205   0.00000  Uiso   1.00
H839   H     0.09224   0.10765   0.65260   0.00000  Uiso   1.00
H840   H     0.08289   0.09845   0.59312   0.00000  Uiso   1.00
C841   C     0.02977   0.12085   0.62949   0.00000  Uiso   1.00
H842   H     0.01298   0.12946   0.59774   0.00000  Uiso   1.00
H843   H     0.01987   0.08663   0.64049   0.00000  Uiso   1.00
H844   H     0.02145   0.14591   0.65560   0.00000  Uiso   1.00
O845   O     0.05409   0.17749   0.94948   0.00000  Uiso   1.00
C846   C     0.04536   0.22422   0.94480   0.00000  Uiso   1.00
H847   H     0.07327   0.24398   0.93460   0.00000  Uiso   1.00
H848   H     0.03376   0.23804   0.97703   0.00000  Uiso   1.00
C849   C     0.01210   0.23102   0.90848   0.00000  Uiso   1.00
H850   H     0.31613   0.21421   0.91818   0.00000  Uiso   1.00
H851   H     0.00594   0.26775   0.90390   0.00000  Uiso   1.00
H852   H     0.02273   0.21664   0.87616   0.00000  Uiso   1.00
O853   O     0.27924   0.17744   0.55053   0.00000  Uiso   1.00
C854   C     0.28809   0.22416   0.55503   0.00000  Uiso   1.00
H855   H     0.26020   0.24408   0.56499   0.00000  Uiso   1.00
H856   H     0.29987   0.23776   0.52280   0.00000  Uiso   1.00
C857   C     0.32121   0.23101   0.59148   0.00000  Uiso   1.00
H858   H     0.01717   0.21404   0.58202   0.00000  Uiso   1.00
H859   H     0.32747   0.26774   0.59591   0.00000  Uiso   1.00
H860   H     0.31040   0.21684   0.62381   0.00000  Uiso   1.00
C861   C     0.41995   0.16666   0.75010   0.00000  Uiso   1.00
C862   C     0.58005   0.16666   0.74990   0.00000  Uiso   1.00
C863   C     0.42359   0.17043   0.52023   0.00000  Uiso   1.00
C864   C     0.57641   0.17039   0.97977   0.00000  Uiso   1.00
C865   C     0.35462   0.12531   0.75024   0.00000  Uiso   1.00
C866   C     0.64538   0.20795   0.74990   0.00000  Uiso   1.00
C867   C     0.64537   0.12531   0.74969   0.00000  Uiso   1.00
C868   C     0.35462   0.20795   0.75016   0.00000  Uiso   1.00
C869   C     0.62419   0.16664   0.74970   0.00000  Uiso   1.00
C870   C     0.37581   0.16664   0.75030   0.00000  Uiso   1.00
C871   C     0.52828   0.02398   0.77551   0.00000  Uiso   1.00
C872   C     0.47173   0.30935   0.72447   0.00000  Uiso   1.00
C873   C     0.47172   0.02398   0.72449   0.00000  Uiso   1.00
C874   C     0.52827   0.30935   0.77553   0.00000  Uiso   1.00
C875   C     0.49870   0.16667   0.66357   0.00000  Uiso   1.00
C876   C     0.50130   0.16667   0.83643   0.00000  Uiso   1.00
C877   C     0.53973   0.16592   0.90782   0.00000  Uiso   1.00
C878   C     0.46026   0.16592   0.59218   0.00000  Uiso   1.00
C879   C     0.50185   0.16675   0.88403   0.00000  Uiso   1.00
C880   C     0.49815   0.16675   0.61597   0.00000  Uiso   1.00
C881   C     0.46385   0.16899   0.90525   0.00000  Uiso   1.00
C882   C     0.53615   0.16898   0.59475   0.00000  Uiso   1.00
C883   C     0.46263   0.17013   0.95169   0.00000  Uiso   1.00
C884   C     0.53737   0.17011   0.54831   0.00000  Uiso   1.00
C885   C     0.50045   0.16913   0.97659   0.00000  Uiso   1.00
C886   C     0.49955   0.16913   0.52341   0.00000  Uiso   1.00
C887   C     0.53917   0.16830   0.95464   0.00000  Uiso   1.00
C888   C     0.46083   0.16831   0.54536   0.00000  Uiso   1.00
C889   C     0.42434   0.17297   0.97361   0.00000  Uiso   1.00
C890   C     0.57566   0.17292   0.52640   0.00000  Uiso   1.00
H891   H     0.43535   0.16977   0.88519   0.00000  Uiso   1.00
H892   H     0.56464   0.16976   0.61481   0.00000  Uiso   1.00
H893   H     0.39375   0.17067   0.53644   0.00000  Uiso   1.00
H894   H     0.60624   0.17061   0.96357   0.00000  Uiso   1.00
H895   H     0.37077   0.09310   0.75028   0.00000  Uiso   1.00
H896   H     0.62924   0.24016   0.74991   0.00000  Uiso   1.00
H897   H     0.62922   0.09310   0.74960   0.00000  Uiso   1.00
H898   H     0.37076   0.24016   0.75021   0.00000  Uiso   1.00
H899   H     0.55091   0.04213   0.79589   0.00000  Uiso   1.00
H900   H     0.44913   0.29117   0.70406   0.00000  Uiso   1.00
H901   H     0.44909   0.04213   0.70411   0.00000  Uiso   1.00
H902   H     0.55087   0.29117   0.79594   0.00000  Uiso   1.00
N903   N     0.50000   0.28573   0.75000   0.00000  Uiso   1.00
N904   N     0.50000   0.04760   0.75000   0.00000  Uiso   1.00
O905   O     0.43892   0.20487   0.75000   0.00000  Uiso   1.00
O906   O     0.56108   0.12846   0.75001   0.00000  Uiso   1.00
O907   O     0.56108   0.20487   0.75001   0.00000  Uiso   1.00
O908   O     0.43892   0.12846   0.75000   0.00000  Uiso   1.00
O909   O     0.49999   0.20489   0.68393   0.00000  Uiso   1.00
O910   O     0.50001   0.12844   0.81608   0.00000  Uiso   1.00
O911   O     0.50001   0.20489   0.81608   0.00000  Uiso   1.00
O912   O     0.49999   0.12844   0.68393   0.00000  Uiso   1.00
Zn913  Zn    0.50000   0.21771   0.75000   0.00000  Uiso   1.00
Zn914  Zn    0.50000   0.11563   0.75000   0.00000  Uiso   1.00
O915   O     0.57710   0.16640   0.88532   0.00000  Uiso   1.00
C916   C     0.59021   0.12133   0.87796   0.00000  Uiso   1.00
H917   H     0.57442   0.10763   0.84742   0.00000  Uiso   1.00
H918   H     0.58381   0.09847   0.90691   0.00000  Uiso   1.00
C919   C     0.63690   0.12086   0.87050   0.00000  Uiso   1.00
H920   H     0.65370   0.12953   0.90222   0.00000  Uiso   1.00
H921   H     0.64681   0.08663   0.85954   0.00000  Uiso   1.00
H922   H     0.64520   0.14589   0.84434   0.00000  Uiso   1.00
O923   O     0.42289   0.16641   0.61468   0.00000  Uiso   1.00
C924   C     0.40979   0.12133   0.62205   0.00000  Uiso   1.00
H925   H     0.42557   0.10765   0.65260   0.00000  Uiso   1.00
H926   H     0.41622   0.09845   0.59312   0.00000  Uiso   1.00
C927   C     0.36310   0.12085   0.62949   0.00000  Uiso   1.00
H928   H     0.34631   0.12946   0.59774   0.00000  Uiso   1.00
H929   H     0.35321   0.08663   0.64049   0.00000  Uiso   1.00
H930   H     0.35478   0.14591   0.65560   0.00000  Uiso   1.00
O931   O     0.38742   0.17749   0.94948   0.00000  Uiso   1.00
C932   C     0.37869   0.22422   0.94480   0.00000  Uiso   1.00
H933   H     0.40661   0.24398   0.93460   0.00000  Uiso   1.00
H934   H     0.36710   0.23804   0.97703   0.00000  Uiso   1.00
C935   C     0.34544   0.23102   0.90848   0.00000  Uiso   1.00
H936   H     0.64947   0.21421   0.91818   0.00000  Uiso   1.00
H937   H     0.33928   0.26775   0.90390   0.00000  Uiso   1.00
H938   H     0.35607   0.21664   0.87616   0.00000  Uiso   1.00
O939   O     0.61257   0.17744   0.55053   0.00000  Uiso   1.00
C940   C     0.62142   0.22416   0.55503   0.00000  Uiso   1.00
H941   H     0.59353   0.24408   0.56499   0.00000  Uiso   1.00
H942   H     0.63321   0.23776   0.52280   0.00000  Uiso   1.00
C943   C     0.65455   0.23101   0.59148   0.00000  Uiso   1.00
H944   H     0.35050   0.21404   0.58202   0.00000  Uiso   1.00
H945   H     0.66080   0.26774   0.59591   0.00000  Uiso   1.00
H946   H     0.64373   0.21684   0.62381   0.00000  Uiso   1.00
C947   C     0.75329   0.16666   0.75010   0.00000  Uiso   1.00
C948   C     0.91338   0.16666   0.74990   0.00000  Uiso   1.00
C949   C     0.75692   0.17043   0.52023   0.00000  Uiso   1.00
C950   C     0.90974   0.17039   0.97977   0.00000  Uiso   1.00
C951   C     0.68796   0.12531   0.75024   0.00000  Uiso   1.00
C952   C     0.97872   0.20795   0.74990   0.00000  Uiso   1.00
C953   C     0.97871   0.12531   0.74969   0.00000  Uiso   1.00
C954   C     0.68795   0.20795   0.75016   0.00000  Uiso   1.00
C955   C     0.95752   0.16664   0.74970   0.00000  Uiso   1.00
C956   C     0.70914   0.16664   0.75030   0.00000  Uiso   1.00
C957   C     0.86161   0.02398   0.77551   0.00000  Uiso   1.00
C958   C     0.80506   0.30935   0.72447   0.00000  Uiso   1.00
C959   C     0.80505   0.02398   0.72449   0.00000  Uiso   1.00
C960   C     0.86160   0.30935   0.77553   0.00000  Uiso   1.00
C961   C     0.83203   0.16667   0.66357   0.00000  Uiso   1.00
C962   C     0.83463   0.16667   0.83643   0.00000  Uiso   1.00
C963   C     0.87307   0.16592   0.90782   0.00000  Uiso   1.00
C964   C     0.79360   0.16592   0.59218   0.00000  Uiso   1.00
C965   C     0.83518   0.16675   0.88403   0.00000  Uiso   1.00
C966   C     0.83149   0.16675   0.61597   0.00000  Uiso   1.00
C967   C     0.79719   0.16899   0.90525   0.00000  Uiso   1.00
C968   C     0.86948   0.16898   0.59475   0.00000  Uiso   1.00
C969   C     0.79596   0.17013   0.95169   0.00000  Uiso   1.00
C970   C     0.87070   0.17011   0.54831   0.00000  Uiso   1.00
C971   C     0.83378   0.16913   0.97659   0.00000  Uiso   1.00
C972   C     0.83288   0.16913   0.52341   0.00000  Uiso   1.00
C973   C     0.87250   0.16830   0.95464   0.00000  Uiso   1.00
C974   C     0.79416   0.16831   0.54536   0.00000  Uiso   1.00
C975   C     0.75767   0.17297   0.97361   0.00000  Uiso   1.00
C976   C     0.90899   0.17292   0.52640   0.00000  Uiso   1.00
H977   H     0.76869   0.16977   0.88519   0.00000  Uiso   1.00
H978   H     0.89798   0.16976   0.61481   0.00000  Uiso   1.00
H979   H     0.72709   0.17067   0.53644   0.00000  Uiso   1.00
H980   H     0.93958   0.17061   0.96357   0.00000  Uiso   1.00
H981   H     0.70411   0.09310   0.75028   0.00000  Uiso   1.00
H982   H     0.96257   0.24016   0.74991   0.00000  Uiso   1.00
H983   H     0.96256   0.09310   0.74960   0.00000  Uiso   1.00
H984   H     0.70410   0.24016   0.75021   0.00000  Uiso   1.00
H985   H     0.88424   0.04213   0.79589   0.00000  Uiso   1.00
H986   H     0.78246   0.29117   0.70406   0.00000  Uiso   1.00
H987   H     0.78242   0.04213   0.70411   0.00000  Uiso   1.00
H988   H     0.88420   0.29117   0.79594   0.00000  Uiso   1.00
N989   N     0.83333   0.28573   0.75000   0.00000  Uiso   1.00
N990   N     0.83333   0.04760   0.75000   0.00000  Uiso   1.00
O991   O     0.77226   0.20487   0.75000   0.00000  Uiso   1.00
O992   O     0.89441   0.12846   0.75001   0.00000  Uiso   1.00
O993   O     0.89441   0.20487   0.75001   0.00000  Uiso   1.00
O994   O     0.77226   0.12846   0.75000   0.00000  Uiso   1.00
O995   O     0.83333   0.20489   0.68393   0.00000  Uiso   1.00
O996   O     0.83334   0.12844   0.81608   0.00000  Uiso   1.00
O997   O     0.83334   0.20489   0.81608   0.00000  Uiso   1.00
O998   O     0.83333   0.12844   0.68393   0.00000  Uiso   1.00
Zn999  Zn    0.83333   0.21771   0.75000   0.00000  Uiso   1.00
Zn1000 Zn    0.83333   0.11563   0.75000   0.00000  Uiso   1.00
O1001  O     0.91044   0.16640   0.88532   0.00000  Uiso   1.00
C1002  C     0.92355   0.12133   0.87796   0.00000  Uiso   1.00
H1003  H     0.90776   0.10763   0.84742   0.00000  Uiso   1.00
H1004  H     0.91714   0.09847   0.90691   0.00000  Uiso   1.00
C1005  C     0.97024   0.12086   0.87050   0.00000  Uiso   1.00
H1006  H     0.98704   0.12953   0.90222   0.00000  Uiso   1.00
H1007  H     0.98014   0.08663   0.85954   0.00000  Uiso   1.00
H1008  H     0.97853   0.14589   0.84434   0.00000  Uiso   1.00
O1009  O     0.75623   0.16641   0.61468   0.00000  Uiso   1.00
C1010  C     0.74313   0.12133   0.62205   0.00000  Uiso   1.00
H1011  H     0.75891   0.10765   0.65260   0.00000  Uiso   1.00
H1012  H     0.74955   0.09845   0.59312   0.00000  Uiso   1.00
C1013  C     0.69643   0.12085   0.62949   0.00000  Uiso   1.00
H1014  H     0.67965   0.12946   0.59774   0.00000  Uiso   1.00
H1015  H     0.68654   0.08663   0.64049   0.00000  Uiso   1.00
H1016  H     0.68811   0.14591   0.65560   0.00000  Uiso   1.00
O1017  O     0.72076   0.17749   0.94948   0.00000  Uiso   1.00
C1018  C     0.71203   0.22422   0.94480   0.00000  Uiso   1.00
H1019  H     0.73994   0.24398   0.93460   0.00000  Uiso   1.00
H1020  H     0.70043   0.23804   0.97703   0.00000  Uiso   1.00
C1021  C     0.67877   0.23102   0.90848   0.00000  Uiso   1.00
H1022  H     0.98280   0.21421   0.91818   0.00000  Uiso   1.00
H1023  H     0.67261   0.26775   0.90390   0.00000  Uiso   1.00
H1024  H     0.68940   0.21664   0.87616   0.00000  Uiso   1.00
O1025  O     0.94591   0.17744   0.55053   0.00000  Uiso   1.00
C1026  C     0.95476   0.22416   0.55503   0.00000  Uiso   1.00
H1027  H     0.92687   0.24408   0.56499   0.00000  Uiso   1.00
H1028  H     0.96654   0.23776   0.52280   0.00000  Uiso   1.00
C1029  C     0.98788   0.23101   0.59148   0.00000  Uiso   1.00
H1030  H     0.68384   0.21404   0.58202   0.00000  Uiso   1.00
H1031  H     0.99413   0.26774   0.59591   0.00000  Uiso   1.00
H1032  H     0.97706   0.21684   0.62381   0.00000  Uiso   1.00
C1033  C     0.08662   0.49999   0.75010   0.00000  Uiso   1.00
C1034  C     0.24671   0.49999   0.74990   0.00000  Uiso   1.00
C1035  C     0.09026   0.50376   0.52023   0.00000  Uiso   1.00
C1036  C     0.24308   0.50373   0.97977   0.00000  Uiso   1.00
C1037  C     0.02129   0.45864   0.75024   0.00000  Uiso   1.00
C1038  C     0.31205   0.54128   0.74990   0.00000  Uiso   1.00
C1039  C     0.31204   0.45864   0.74969   0.00000  Uiso   1.00
C1040  C     0.02129   0.54128   0.75016   0.00000  Uiso   1.00
C1041  C     0.29086   0.49997   0.74970   0.00000  Uiso   1.00
C1042  C     0.04247   0.49997   0.75030   0.00000  Uiso   1.00
C1043  C     0.19495   0.35731   0.77551   0.00000  Uiso   1.00
C1044  C     0.13840   0.64268   0.72447   0.00000  Uiso   1.00
C1045  C     0.13839   0.35731   0.72449   0.00000  Uiso   1.00
C1046  C     0.19494   0.64268   0.77553   0.00000  Uiso   1.00
C1047  C     0.16536   0.50001   0.66357   0.00000  Uiso   1.00
C1048  C     0.16797   0.50001   0.83643   0.00000  Uiso   1.00
C1049  C     0.20640   0.49925   0.90782   0.00000  Uiso   1.00
C1050  C     0.12693   0.49926   0.59218   0.00000  Uiso   1.00
C1051  C     0.16851   0.50009   0.88403   0.00000  Uiso   1.00
C1052  C     0.16482   0.50009   0.61597   0.00000  Uiso   1.00
C1053  C     0.13052   0.50232   0.90525   0.00000  Uiso   1.00
C1054  C     0.20281   0.50231   0.59475   0.00000  Uiso   1.00
C1055  C     0.12930   0.50347   0.95169   0.00000  Uiso   1.00
C1056  C     0.20404   0.50345   0.54831   0.00000  Uiso   1.00
C1057  C     0.16712   0.50246   0.97659   0.00000  Uiso   1.00
C1058  C     0.16622   0.50246   0.52341   0.00000  Uiso   1.00
C1059  C     0.20584   0.50163   0.95464   0.00000  Uiso   1.00
C1060  C     0.12750   0.50165   0.54536   0.00000  Uiso   1.00
C1061  C     0.09101   0.50630   0.97361   0.00000  Uiso   1.00
C1062  C     0.24233   0.50626   0.52640   0.00000  Uiso   1.00
H1063  H     0.10202   0.50310   0.88519   0.00000  Uiso   1.00
H1064  H     0.23131   0.50310   0.61481   0.00000  Uiso   1.00
H1065  H     0.06042   0.50400   0.53644   0.00000  Uiso   1.00
H1066  H     0.27291   0.50395   0.96357   0.00000  Uiso   1.00
H1067  H     0.03744   0.42643   0.75028   0.00000  Uiso   1.00
H1068  H     0.29591   0.57349   0.74991   0.00000  Uiso   1.00
H1069  H     0.29589   0.42643   0.74960   0.00000  Uiso   1.00
H1070  H     0.03743   0.57349   0.75021   0.00000  Uiso   1.00
H1071  H     0.21758   0.37547   0.79589   0.00000  Uiso   1.00
H1072  H     0.11580   0.62450   0.70406   0.00000  Uiso   1.00
H1073  H     0.11576   0.37546   0.70411   0.00000  Uiso   1.00
H1074  H     0.21754   0.62451   0.79594   0.00000  Uiso   1.00
N1075  N     0.16667   0.61907   0.75000   0.00000  Uiso   1.00
N1076  N     0.16667   0.38093   0.75000   0.00000  Uiso   1.00
O1077  O     0.10559   0.53821   0.75000   0.00000  Uiso   1.00
O1078  O     0.22774   0.46179   0.75001   0.00000  Uiso   1.00
O1079  O     0.22774   0.53821   0.75001   0.00000  Uiso   1.00
O1080  O     0.10559   0.46179   0.75000   0.00000  Uiso   1.00
O1081  O     0.16666   0.53823   0.68393   0.00000  Uiso   1.00
O1082  O     0.16667   0.46177   0.81608   0.00000  Uiso   1.00
O1083  O     0.16667   0.53823   0.81608   0.00000  Uiso   1.00
O1084  O     0.16666   0.46177   0.68393   0.00000  Uiso   1.00
Zn1085 Zn    0.16667   0.55104   0.75000   0.00000  Uiso   1.00
Zn1086 Zn    0.16667   0.44896   0.75000   0.00000  Uiso   1.00
O1087  O     0.24377   0.49974   0.88532   0.00000  Uiso   1.00
C1088  C     0.25688   0.45466   0.87796   0.00000  Uiso   1.00
H1089  H     0.24109   0.44096   0.84742   0.00000  Uiso   1.00
H1090  H     0.25048   0.43180   0.90691   0.00000  Uiso   1.00
C1091  C     0.30357   0.45420   0.87050   0.00000  Uiso   1.00
H1092  H     0.32037   0.46287   0.90222   0.00000  Uiso   1.00
H1093  H     0.31348   0.41996   0.85954   0.00000  Uiso   1.00
H1094  H     0.31186   0.47922   0.84434   0.00000  Uiso   1.00
O1095  O     0.08956   0.49974   0.61468   0.00000  Uiso   1.00
C1096  C     0.07646   0.45467   0.62205   0.00000  Uiso   1.00
H1097  H     0.09224   0.44099   0.65260   0.00000  Uiso   1.00
H1098  H     0.08289   0.43179   0.59312   0.00000  Uiso   1.00
C1099  C     0.02977   0.45418   0.62949   0.00000  Uiso   1.00
H1100  H     0.01298   0.46279   0.59774   0.00000  Uiso   1.00
H1101  H     0.01987   0.41996   0.64049   0.00000  Uiso   1.00
H1102  H     0.02145   0.47924   0.65560   0.00000  Uiso   1.00
O1103  O     0.05409   0.51083   0.94948   0.00000  Uiso   1.00
C1104  C     0.04536   0.55756   0.94480   0.00000  Uiso   1.00
H1105  H     0.07327   0.57732   0.93460   0.00000  Uiso   1.00
H1106  H     0.03376   0.57138   0.97703   0.00000  Uiso   1.00
C1107  C     0.01210   0.56435   0.90848   0.00000  Uiso   1.00
H1108  H     0.31613   0.54754   0.91818   0.00000  Uiso   1.00
H1109  H     0.00594   0.60108   0.90390   0.00000  Uiso   1.00
H1110  H     0.02273   0.54997   0.87616   0.00000  Uiso   1.00
O1111  O     0.27924   0.51077   0.55053   0.00000  Uiso   1.00
C1112  C     0.28809   0.55749   0.55503   0.00000  Uiso   1.00
H1113  H     0.26020   0.57741   0.56499   0.00000  Uiso   1.00
H1114  H     0.29987   0.57110   0.52280   0.00000  Uiso   1.00
C1115  C     0.32121   0.56435   0.59148   0.00000  Uiso   1.00
H1116  H     0.01717   0.54738   0.58202   0.00000  Uiso   1.00
H1117  H     0.32747   0.60108   0.59591   0.00000  Uiso   1.00
H1118  H     0.31040   0.55018   0.62381   0.00000  Uiso   1.00
C1119  C     0.41995   0.49999   0.75010   0.00000  Uiso   1.00
C1120  C     0.58005   0.49999   0.74990   0.00000  Uiso   1.00
C1121  C     0.42359   0.50376   0.52023   0.00000  Uiso   1.00
C1122  C     0.57641   0.50373   0.97977   0.00000  Uiso   1.00
C1123  C     0.35462   0.45864   0.75024   0.00000  Uiso   1.00
C1124  C     0.64538   0.54128   0.74990   0.00000  Uiso   1.00
C1125  C     0.64537   0.45864   0.74969   0.00000  Uiso   1.00
C1126  C     0.35462   0.54128   0.75016   0.00000  Uiso   1.00
C1127  C     0.62419   0.49997   0.74970   0.00000  Uiso   1.00
C1128  C     0.37581   0.49997   0.75030   0.00000  Uiso   1.00
C1129  C     0.52828   0.35731   0.77551   0.00000  Uiso   1.00
C1130  C     0.47173   0.64268   0.72447   0.00000  Uiso   1.00
C1131  C     0.47172   0.35731   0.72449   0.00000  Uiso   1.00
C1132  C     0.52827   0.64268   0.77553   0.00000  Uiso   1.00
C1133  C     0.49870   0.50001   0.66357   0.00000  Uiso   1.00
C1134  C     0.50130   0.50001   0.83643   0.00000  Uiso   1.00
C1135  C     0.53973   0.49925   0.90782   0.00000  Uiso   1.00
C1136  C     0.46026   0.49926   0.59218   0.00000  Uiso   1.00
C1137  C     0.50185   0.50009   0.88403   0.00000  Uiso   1.00
C1138  C     0.49815   0.50009   0.61597   0.00000  Uiso   1.00
C1139  C     0.46385   0.50232   0.90525   0.00000  Uiso   1.00
C1140  C     0.53615   0.50231   0.59475   0.00000  Uiso   1.00
C1141  C     0.46263   0.50347   0.95169   0.00000  Uiso   1.00
C1142  C     0.53737   0.50345   0.54831   0.00000  Uiso   1.00
C1143  C     0.50045   0.50246   0.97659   0.00000  Uiso   1.00
C1144  C     0.49955   0.50246   0.52341   0.00000  Uiso   1.00
C1145  C     0.53917   0.50163   0.95464   0.00000  Uiso   1.00
C1146  C     0.46083   0.50165   0.54536   0.00000  Uiso   1.00
C1147  C     0.42434   0.50630   0.97361   0.00000  Uiso   1.00
C1148  C     0.57566   0.50626   0.52640   0.00000  Uiso   1.00
H1149  H     0.43535   0.50310   0.88519   0.00000  Uiso   1.00
H1150  H     0.56464   0.50310   0.61481   0.00000  Uiso   1.00
H1151  H     0.39375   0.50400   0.53644   0.00000  Uiso   1.00
H1152  H     0.60624   0.50395   0.96357   0.00000  Uiso   1.00
H1153  H     0.37077   0.42643   0.75028   0.00000  Uiso   1.00
H1154  H     0.62924   0.57349   0.74991   0.00000  Uiso   1.00
H1155  H     0.62922   0.42643   0.74960   0.00000  Uiso   1.00
H1156  H     0.37076   0.57349   0.75021   0.00000  Uiso   1.00
H1157  H     0.55091   0.37547   0.79589   0.00000  Uiso   1.00
H1158  H     0.44913   0.62450   0.70406   0.00000  Uiso   1.00
H1159  H     0.44909   0.37546   0.70411   0.00000  Uiso   1.00
H1160  H     0.55087   0.62451   0.79594   0.00000  Uiso   1.00
N1161  N     0.50000   0.61907   0.75000   0.00000  Uiso   1.00
N1162  N     0.50000   0.38093   0.75000   0.00000  Uiso   1.00
O1163  O     0.43892   0.53821   0.75000   0.00000  Uiso   1.00
O1164  O     0.56108   0.46179   0.75001   0.00000  Uiso   1.00
O1165  O     0.56108   0.53821   0.75001   0.00000  Uiso   1.00
O1166  O     0.43892   0.46179   0.75000   0.00000  Uiso   1.00
O1167  O     0.49999   0.53823   0.68393   0.00000  Uiso   1.00
O1168  O     0.50001   0.46177   0.81608   0.00000  Uiso   1.00
O1169  O     0.50001   0.53823   0.81608   0.00000  Uiso   1.00
O1170  O     0.49999   0.46177   0.68393   0.00000  Uiso   1.00
Zn1171 Zn    0.50000   0.55104   0.75000   0.00000  Uiso   1.00
Zn1172 Zn    0.50000   0.44896   0.75000   0.00000  Uiso   1.00
O1173  O     0.57710   0.49974   0.88532   0.00000  Uiso   1.00
C1174  C     0.59021   0.45466   0.87796   0.00000  Uiso   1.00
H1175  H     0.57442   0.44096   0.84742   0.00000  Uiso   1.00
H1176  H     0.58381   0.43180   0.90691   0.00000  Uiso   1.00
C1177  C     0.63690   0.45420   0.87050   0.00000  Uiso   1.00
H1178  H     0.65370   0.46287   0.90222   0.00000  Uiso   1.00
H1179  H     0.64681   0.41996   0.85954   0.00000  Uiso   1.00
H1180  H     0.64520   0.47922   0.84434   0.00000  Uiso   1.00
O1181  O     0.42289   0.49974   0.61468   0.00000  Uiso   1.00
C1182  C     0.40979   0.45467   0.62205   0.00000  Uiso   1.00
H1183  H     0.42557   0.44099   0.65260   0.00000  Uiso   1.00
H1184  H     0.41622   0.43179   0.59312   0.00000  Uiso   1.00
C1185  C     0.36310   0.45418   0.62949   0.00000  Uiso   1.00
H1186  H     0.34631   0.46279   0.59774   0.00000  Uiso   1.00
H1187  H     0.35321   0.41996   0.64049   0.00000  Uiso   1.00
H1188  H     0.35478   0.47924   0.65560   0.00000  Uiso   1.00
O1189  O     0.38742   0.51083   0.94948   0.00000  Uiso   1.00
C1190  C     0.37869   0.55756   0.94480   0.00000  Uiso   1.00
H1191  H     0.40661   0.57732   0.93460   0.00000  Uiso   1.00
H1192  H     0.36710   0.57138   0.97703   0.00000  Uiso   1.00
C1193  C     0.34544   0.56435   0.90848   0.00000  Uiso   1.00
H1194  H     0.64947   0.54754   0.91818   0.00000  Uiso   1.00
H1195  H     0.33928   0.60108   0.90390   0.00000  Uiso   1.00
H1196  H     0.35607   0.54997   0.87616   0.00000  Uiso   1.00
O1197  O     0.61257   0.51077   0.55053   0.00000  Uiso   1.00
C1198  C     0.62142   0.55749   0.55503   0.00000  Uiso   1.00
H1199  H     0.59353   0.57741   0.56499   0.00000  Uiso   1.00
H1200  H     0.63321   0.57110   0.52280   0.00000  Uiso   1.00
C1201  C     0.65455   0.56435   0.59148   0.00000  Uiso   1.00
H1202  H     0.35050   0.54738   0.58202   0.00000  Uiso   1.00
H1203  H     0.66080   0.60108   0.59591   0.00000  Uiso   1.00
H1204  H     0.64373   0.55018   0.62381   0.00000  Uiso   1.00
C1205  C     0.75329   0.49999   0.75010   0.00000  Uiso   1.00
C1206  C     0.91338   0.49999   0.74990   0.00000  Uiso   1.00
C1207  C     0.75692   0.50376   0.52023   0.00000  Uiso   1.00
C1208  C     0.90974   0.50373   0.97977   0.00000  Uiso   1.00
C1209  C     0.68796   0.45864   0.75024   0.00000  Uiso   1.00
C1210  C     0.97872   0.54128   0.74990   0.00000  Uiso   1.00
C1211  C     0.97871   0.45864   0.74969   0.00000  Uiso   1.00
C1212  C     0.68795   0.54128   0.75016   0.00000  Uiso   1.00
C1213  C     0.95752   0.49997   0.74970   0.00000  Uiso   1.00
C1214  C     0.70914   0.49997   0.75030   0.00000  Uiso   1.00
C1215  C     0.86161   0.35731   0.77551   0.00000  Uiso   1.00
C1216  C     0.80506   0.64268   0.72447   0.00000  Uiso   1.00
C1217  C     0.80505   0.35731   0.72449   0.00000  Uiso   1.00
C1218  C     0.86160   0.64268   0.77553   0.00000  Uiso   1.00
C1219  C     0.83203   0.50001   0.66357   0.00000  Uiso   1.00
C1220  C     0.83463   0.50001   0.83643   0.00000  Uiso   1.00
C1221  C     0.87307   0.49925   0.90782   0.00000  Uiso   1.00
C1222  C     0.79360   0.49926   0.59218   0.00000  Uiso   1.00
C1223  C     0.83518   0.50009   0.88403   0.00000  Uiso   1.00
C1224  C     0.83149   0.50009   0.61597   0.00000  Uiso   1.00
C1225  C     0.79719   0.50232   0.90525   0.00000  Uiso   1.00
C1226  C     0.86948   0.50231   0.59475   0.00000  Uiso   1.00
C1227  C     0.79596   0.50347   0.95169   0.00000  Uiso   1.00
C1228  C     0.87070   0.50345   0.54831   0.00000  Uiso   1.00
C1229  C     0.83378   0.50246   0.97659   0.00000  Uiso   1.00
C1230  C     0.83288   0.50246   0.52341   0.00000  Uiso   1.00
C1231  C     0.87250   0.50163   0.95464   0.00000  Uiso   1.00
C1232  C     0.79416   0.50165   0.54536   0.00000  Uiso   1.00
C1233  C     0.75767   0.50630   0.97361   0.00000  Uiso   1.00
C1234  C     0.90899   0.50626   0.52640   0.00000  Uiso   1.00
H1235  H     0.76869   0.50310   0.88519   0.00000  Uiso   1.00
H1236  H     0.89798   0.50310   0.61481   0.00000  Uiso   1.00
H1237  H     0.72709   0.50400   0.53644   0.00000  Uiso   1.00
H1238  H     0.93958   0.50395   0.96357   0.00000  Uiso   1.00
H1239  H     0.70411   0.42643   0.75028   0.00000  Uiso   1.00
H1240  H     0.96257   0.57349   0.74991   0.00000  Uiso   1.00
H1241  H     0.96256   0.42643   0.74960   0.00000  Uiso   1.00
H1242  H     0.70410   0.57349   0.75021   0.00000  Uiso   1.00
H1243  H     0.88424   0.37547   0.79589   0.00000  Uiso   1.00
H1244  H     0.78246   0.62450   0.70406   0.00000  Uiso   1.00
H1245  H     0.78242   0.37546   0.70411   0.00000  Uiso   1.00
H1246  H     0.88420   0.62451   0.79594   0.00000  Uiso   1.00
N1247  N     0.83333   0.61907   0.75000   0.00000  Uiso   1.00
N1248  N     0.83333   0.38093   0.75000   0.00000  Uiso   1.00
O1249  O     0.77226   0.53821   0.75000   0.00000  Uiso   1.00
O1250  O     0.89441   0.46179   0.75001   0.00000  Uiso   1.00
O1251  O     0.89441   0.53821   0.75001   0.00000  Uiso   1.00
O1252  O     0.77226   0.46179   0.75000   0.00000  Uiso   1.00
O1253  O     0.83333   0.53823   0.68393   0.00000  Uiso   1.00
O1254  O     0.83334   0.46177   0.81608   0.00000  Uiso   1.00
O1255  O     0.83334   0.53823   0.81608   0.00000  Uiso   1.00
O1256  O     0.83333   0.46177   0.68393   0.00000  Uiso   1.00
Zn1257 Zn    0.83333   0.55104   0.75000   0.00000  Uiso   1.00
Zn1258 Zn    0.83333   0.44896   0.75000   0.00000  Uiso   1.00
O1259  O     0.91044   0.49974   0.88532   0.00000  Uiso   1.00
C1260  C     0.92355   0.45466   0.87796   0.00000  Uiso   1.00
H1261  H     0.90776   0.44096   0.84742   0.00000  Uiso   1.00
H1262  H     0.91714   0.43180   0.90691   0.00000  Uiso   1.00
C1263  C     0.97024   0.45420   0.87050   0.00000  Uiso   1.00
H1264  H     0.98704   0.46287   0.90222   0.00000  Uiso   1.00
H1265  H     0.98014   0.41996   0.85954   0.00000  Uiso   1.00
H1266  H     0.97853   0.47922   0.84434   0.00000  Uiso   1.00
O1267  O     0.75623   0.49974   0.61468   0.00000  Uiso   1.00
C1268  C     0.74313   0.45467   0.62205   0.00000  Uiso   1.00
H1269  H     0.75891   0.44099   0.65260   0.00000  Uiso   1.00
H1270  H     0.74955   0.43179   0.59312   0.00000  Uiso   1.00
C1271  C     0.69643   0.45418   0.62949   0.00000  Uiso   1.00
H1272  H     0.67965   0.46279   0.59774   0.00000  Uiso   1.00
H1273  H     0.68654   0.41996   0.64049   0.00000  Uiso   1.00
H1274  H     0.68811   0.47924   0.65560   0.00000  Uiso   1.00
O1275  O     0.72076   0.51083   0.94948   0.00000  Uiso   1.00
C1276  C     0.71203   0.55756   0.94480   0.00000  Uiso   1.00
H1277  H     0.73994   0.57732   0.93460   0.00000  Uiso   1.00
H1278  H     0.70043   0.57138   0.97703   0.00000  Uiso   1.00
C1279  C     0.67877   0.56435   0.90848   0.00000  Uiso   1.00
H1280  H     0.98280   0.54754   0.91818   0.00000  Uiso   1.00
H1281  H     0.67261   0.60108   0.90390   0.00000  Uiso   1.00
H1282  H     0.68940   0.54997   0.87616   0.00000  Uiso   1.00
O1283  O     0.94591   0.51077   0.55053   0.00000  Uiso   1.00
C1284  C     0.95476   0.55749   0.55503   0.00000  Uiso   1.00
H1285  H     0.92687   0.57741   0.56499   0.00000  Uiso   1.00
H1286  H     0.96654   0.57110   0.52280   0.00000  Uiso   1.00
C1287  C     0.98788   0.56435   0.59148   0.00000  Uiso   1.00
H1288  H     0.68384   0.54738   0.58202   0.00000  Uiso   1.00
H1289  H     0.99413   0.60108   0.59591   0.00000  Uiso   1.00
H1290  H     0.97706   0.55018   0.62381   0.00000  Uiso   1.00
C1291  C     0.08662   0.83333   0.75010   0.00000  Uiso   1.00
C1292  C     0.24671   0.83333   0.74990   0.00000  Uiso   1.00
C1293  C     0.09026   0.83710   0.52023   0.00000  Uiso   1.00
C1294  C     0.24308   0.83706   0.97977   0.00000  Uiso   1.00
C1295  C     0.02129   0.79197   0.75024   0.00000  Uiso   1.00
C1296  C     0.31205   0.87461   0.74990   0.00000  Uiso   1.00
C1297  C     0.31204   0.79197   0.74969   0.00000  Uiso   1.00
C1298  C     0.02129   0.87461   0.75016   0.00000  Uiso   1.00
C1299  C     0.29086   0.83330   0.74970   0.00000  Uiso   1.00
C1300  C     0.04247   0.83330   0.75030   0.00000  Uiso   1.00
C1301  C     0.19495   0.69065   0.77551   0.00000  Uiso   1.00
C1302  C     0.13840   0.97601   0.72447   0.00000  Uiso   1.00
C1303  C     0.13839   0.69064   0.72449   0.00000  Uiso   1.00
C1304  C     0.19494   0.97602   0.77553   0.00000  Uiso   1.00
C1305  C     0.16536   0.83334   0.66357   0.00000  Uiso   1.00
C1306  C     0.16797   0.83334   0.83643   0.00000  Uiso   1.00
C1307  C     0.20640   0.83258   0.90782   0.00000  Uiso   1.00
C1308  C     0.12693   0.83259   0.59218   0.00000  Uiso   1.00
C1309  C     0.16851   0.83342   0.88403   0.00000  Uiso   1.00
C1310  C     0.16482   0.83342   0.61597   0.00000  Uiso   1.00
C1311  C     0.13052   0.83565   0.90525   0.00000  Uiso   1.00
C1312  C     0.20281   0.83565   0.59475   0.00000  Uiso   1.00
C1313  C     0.12930   0.83680   0.95169   0.00000  Uiso   1.00
C1314  C     0.20404   0.83678   0.54831   0.00000  Uiso   1.00
C1315  C     0.16712   0.83580   0.97659   0.00000  Uiso   1.00
C1316  C     0.16622   0.83579   0.52341   0.00000  Uiso   1.00
C1317  C     0.20584   0.83497   0.95464   0.00000  Uiso   1.00
C1318  C     0.12750   0.83498   0.54536   0.00000  Uiso   1.00
C1319  C     0.09101   0.83963   0.97361   0.00000  Uiso   1.00
C1320  C     0.24233   0.83959   0.52640   0.00000  Uiso   1.00
H1321  H     0.10202   0.83644   0.88519   0.00000  Uiso   1.00
H1322  H     0.23131   0.83643   0.61481   0.00000  Uiso   1.00
H1323  H     0.06042   0.83733   0.53644   0.00000  Uiso   1.00
H1324  H     0.27291   0.83728   0.96357   0.00000  Uiso   1.00
H1325  H     0.03744   0.75976   0.75028   0.00000  Uiso   1.00
H1326  H     0.29591   0.90683   0.74991   0.00000  Uiso   1.00
H1327  H     0.29589   0.75976   0.74960   0.00000  Uiso   1.00
H1328  H     0.03743   0.90683   0.75021   0.00000  Uiso   1.00
H1329  H     0.21758   0.70880   0.79589   0.00000  Uiso   1.00
H1330  H     0.11580   0.95784   0.70406   0.00000  Uiso   1.00
H1331  H     0.11576   0.70880   0.70411   0.00000  Uiso   1.00
H1332  H     0.21754   0.95784   0.79594   0.00000  Uiso   1.00
N1333  N     0.16667   0.95240   0.75000   0.00000  Uiso   1.00
N1334  N     0.16667   0.71427   0.75000   0.00000  Uiso   1.00
O1335  O     0.10559   0.87154   0.75000   0.00000  Uiso   1.00
O1336  O     0.22774   0.79513   0.75001   0.00000  Uiso   1.00
O1337  O     0.22774   0.87154   0.75001   0.00000  Uiso   1.00
O1338  O     0.10559   0.79513   0.75000   0.00000  Uiso   1.00
O1339  O     0.16666   0.87156   0.68393   0.00000  Uiso   1.00
O1340  O     0.16667   0.79511   0.81608   0.00000  Uiso   1.00
O1341  O     0.16667   0.87156   0.81608   0.00000  Uiso   1.00
O1342  O     0.16666   0.79511   0.68393   0.00000  Uiso   1.00
Zn1343 Zn    0.16667   0.88437   0.75000   0.00000  Uiso   1.00
Zn1344 Zn    0.16667   0.78229   0.75000   0.00000  Uiso   1.00
O1345  O     0.24377   0.83307   0.88532   0.00000  Uiso   1.00
C1346  C     0.25688   0.78800   0.87796   0.00000  Uiso   1.00
H1347  H     0.24109   0.77430   0.84742   0.00000  Uiso   1.00
H1348  H     0.25048   0.76513   0.90691   0.00000  Uiso   1.00
C1349  C     0.30357   0.78753   0.87050   0.00000  Uiso   1.00
H1350  H     0.32037   0.79620   0.90222   0.00000  Uiso   1.00
H1351  H     0.31348   0.75330   0.85954   0.00000  Uiso   1.00
H1352  H     0.31186   0.81255   0.84434   0.00000  Uiso   1.00
O1353  O     0.08956   0.83307   0.61468   0.00000  Uiso   1.00
C1354  C     0.07646   0.78800   0.62205   0.00000  Uiso   1.00
H1355  H     0.09224   0.77432   0.65260   0.00000  Uiso   1.00
H1356  H     0.08289   0.76512   0.59312   0.00000  Uiso   1.00
C1357  C     0.02977   0.78752   0.62949   0.00000  Uiso   1.00
H1358  H     0.01298   0.79612   0.59774   0.00000  Uiso   1.00
H1359  H     0.01987   0.75329   0.64049   0.00000  Uiso   1.00
H1360  H     0.02145   0.81258   0.65560   0.00000  Uiso   1.00
O1361  O     0.05409   0.84416   0.94948   0.00000  Uiso   1.00
C1362  C     0.04536   0.89089   0.94480   0.00000  Uiso   1.00
H1363  H     0.07327   0.91065   0.93460   0.00000  Uiso   1.00
H1364  H     0.03376   0.90471   0.97703   0.00000  Uiso   1.00
C1365  C     0.01210   0.89768   0.90848   0.00000  Uiso   1.00
H1366  H     0.31613   0.88087   0.91818   0.00000  Uiso   1.00
H1367  H     0.00594   0.93442   0.90390   0.00000  Uiso   1.00
H1368  H     0.02273   0.88330   0.87616   0.00000  Uiso   1.00
O1369  O     0.27924   0.84410   0.55053   0.00000  Uiso   1.00
C1370  C     0.28809   0.89083   0.55503   0.00000  Uiso   1.00
H1371  H     0.26020   0.91075   0.56499   0.00000  Uiso   1.00
H1372  H     0.29987   0.90443   0.52280   0.00000  Uiso   1.00
C1373  C     0.32121   0.89768   0.59148   0.00000  Uiso   1.00
H1374  H     0.01717   0.88071   0.58202   0.00000  Uiso   1.00
H1375  H     0.32747   0.93441   0.59591   0.00000  Uiso   1.00
H1376  H     0.31040   0.88351   0.62381   0.00000  Uiso   1.00
C1377  C     0.41995   0.83333   0.75010   0.00000  Uiso   1.00
C1378  C     0.58005   0.83333   0.74990   0.00000  Uiso   1.00
C1379  C     0.42359   0.83710   0.52023   0.00000  Uiso   1.00
C1380  C     0.57641   0.83706   0.97977   0.00000  Uiso   1.00
C1381  C     0.35462   0.79197   0.75024   0.00000  Uiso   1.00
C1382  C     0.64538   0.87461   0.74990   0.00000  Uiso   1.00
C1383  C     0.64537   0.79197   0.74969   0.00000  Uiso   1.00
C1384  C     0.35462   0.87461   0.75016   0.00000  Uiso   1.00
C1385  C     0.62419   0.83330   0.74970   0.00000  Uiso   1.00
C1386  C     0.37581   0.83330   0.75030   0.00000  Uiso   1.00
C1387  C     0.52828   0.69065   0.77551   0.00000  Uiso   1.00
C1388  C     0.47173   0.97601   0.72447   0.00000  Uiso   1.00
C1389  C     0.47172   0.69064   0.72449   0.00000  Uiso   1.00
C1390  C     0.52827   0.97602   0.77553   0.00000  Uiso   1.00
C1391  C     0.49870   0.83334   0.66357   0.00000  Uiso   1.00
C1392  C     0.50130   0.83334   0.83643   0.00000  Uiso   1.00
C1393  C     0.53973   0.83258   0.90782   0.00000  Uiso   1.00
C1394  C     0.46026   0.83259   0.59218   0.00000  Uiso   1.00
C1395  C     0.50185   0.83342   0.88403   0.00000  Uiso   1.00
C1396  C     0.49815   0.83342   0.61597   0.00000  Uiso   1.00
C1397  C     0.46385   0.83565   0.90525   0.00000  Uiso   1.00
C1398  C     0.53615   0.83565   0.59475   0.00000  Uiso   1.00
C1399  C     0.46263   0.83680   0.95169   0.00000  Uiso   1.00
C1400  C     0.53737   0.83678   0.54831   0.00000  Uiso   1.00
C1401  C     0.50045   0.83580   0.97659   0.00000  Uiso   1.00
C1402  C     0.49955   0.83579   0.52341   0.00000  Uiso   1.00
C1403  C     0.53917   0.83497   0.95464   0.00000  Uiso   1.00
C1404  C     0.46083   0.83498   0.54536   0.00000  Uiso   1.00
C1405  C     0.42434   0.83963   0.97361   0.00000  Uiso   1.00
C1406  C     0.57566   0.83959   0.52640   0.00000  Uiso   1.00
H1407  H     0.43535   0.83644   0.88519   0.00000  Uiso   1.00
H1408  H     0.56464   0.83643   0.61481   0.00000  Uiso   1.00
H1409  H     0.39375   0.83733   0.53644   0.00000  Uiso   1.00
H1410  H     0.60624   0.83728   0.96357   0.00000  Uiso   1.00
H1411  H     0.37077   0.75976   0.75028   0.00000  Uiso   1.00
H1412  H     0.62924   0.90683   0.74991   0.00000  Uiso   1.00
H1413  H     0.62922   0.75976   0.74960   0.00000  Uiso   1.00
H1414  H     0.37076   0.90683   0.75021   0.00000  Uiso   1.00
H1415  H     0.55091   0.70880   0.79589   0.00000  Uiso   1.00
H1416  H     0.44913   0.95784   0.70406   0.00000  Uiso   1.00
H1417  H     0.44909   0.70880   0.70411   0.00000  Uiso   1.00
H1418  H     0.55087   0.95784   0.79594   0.00000  Uiso   1.00
N1419  N     0.50000   0.95240   0.75000   0.00000  Uiso   1.00
N1420  N     0.50000   0.71427   0.75000   0.00000  Uiso   1.00
O1421  O     0.43892   0.87154   0.75000   0.00000  Uiso   1.00
O1422  O     0.56108   0.79513   0.75001   0.00000  Uiso   1.00
O1423  O     0.56108   0.87154   0.75001   0.00000  Uiso   1.00
O1424  O     0.43892   0.79513   0.75000   0.00000  Uiso   1.00
O1425  O     0.49999   0.87156   0.68393   0.00000  Uiso   1.00
O1426  O     0.50001   0.79511   0.81608   0.00000  Uiso   1.00
O1427  O     0.50001   0.87156   0.81608   0.00000  Uiso   1.00
O1428  O     0.49999   0.79511   0.68393   0.00000  Uiso   1.00
Zn1429 Zn    0.50000   0.88437   0.75000   0.00000  Uiso   1.00
Zn1430 Zn    0.50000   0.78229   0.75000   0.00000  Uiso   1.00
O1431  O     0.57710   0.83307   0.88532   0.00000  Uiso   1.00
C1432  C     0.59021   0.78800   0.87796   0.00000  Uiso   1.00
H1433  H     0.57442   0.77430   0.84742   0.00000  Uiso   1.00
H1434  H     0.58381   0.76513   0.90691   0.00000  Uiso   1.00
C1435  C     0.63690   0.78753   0.87050   0.00000  Uiso   1.00
H1436  H     0.65370   0.79620   0.90222   0.00000  Uiso   1.00
H1437  H     0.64681   0.75330   0.85954   0.00000  Uiso   1.00
H1438  H     0.64520   0.81255   0.84434   0.00000  Uiso   1.00
O1439  O     0.42289   0.83307   0.61468   0.00000  Uiso   1.00
C1440  C     0.40979   0.78800   0.62205   0.00000  Uiso   1.00
H1441  H     0.42557   0.77432   0.65260   0.00000  Uiso   1.00
H1442  H     0.41622   0.76512   0.59312   0.00000  Uiso   1.00
C1443  C     0.36310   0.78752   0.62949   0.00000  Uiso   1.00
H1444  H     0.34631   0.79612   0.59774   0.00000  Uiso   1.00
H1445  H     0.35321   0.75329   0.64049   0.00000  Uiso   1.00
H1446  H     0.35478   0.81258   0.65560   0.00000  Uiso   1.00
O1447  O     0.38742   0.84416   0.94948   0.00000  Uiso   1.00
C1448  C     0.37869   0.89089   0.94480   0.00000  Uiso   1.00
H1449  H     0.40661   0.91065   0.93460   0.00000  Uiso   1.00
H1450  H     0.36710   0.90471   0.97703   0.00000  Uiso   1.00
C1451  C     0.34544   0.89768   0.90848   0.00000  Uiso   1.00
H1452  H     0.64947   0.88087   0.91818   0.00000  Uiso   1.00
H1453  H     0.33928   0.93442   0.90390   0.00000  Uiso   1.00
H1454  H     0.35607   0.88330   0.87616   0.00000  Uiso   1.00
O1455  O     0.61257   0.84410   0.55053   0.00000  Uiso   1.00
C1456  C     0.62142   0.89083   0.55503   0.00000  Uiso   1.00
H1457  H     0.59353   0.91075   0.56499   0.00000  Uiso   1.00
H1458  H     0.63321   0.90443   0.52280   0.00000  Uiso   1.00
C1459  C     0.65455   0.89768   0.59148   0.00000  Uiso   1.00
H1460  H     0.35050   0.88071   0.58202   0.00000  Uiso   1.00
H1461  H     0.66080   0.93441   0.59591   0.00000  Uiso   1.00
H1462  H     0.64373   0.88351   0.62381   0.00000  Uiso   1.00
C1463  C     0.75329   0.83333   0.75010   0.00000  Uiso   1.00
C1464  C     0.91338   0.83333   0.74990   0.00000  Uiso   1.00
C1465  C     0.75692   0.83710   0.52023   0.00000  Uiso   1.00
C1466  C     0.90974   0.83706   0.97977   0.00000  Uiso   1.00
C1467  C     0.68796   0.79197   0.75024   0.00000  Uiso   1.00
C1468  C     0.97872   0.87461   0.74990   0.00000  Uiso   1.00
C1469  C     0.97871   0.79197   0.74969   0.00000  Uiso   1.00
C1470  C     0.68795   0.87461   0.75016   0.00000  Uiso   1.00
C1471  C     0.95752   0.83330   0.74970   0.00000  Uiso   1.00
C1472  C     0.70914   0.83330   0.75030   0.00000  Uiso   1.00
C1473  C     0.86161   0.69065   0.77551   0.00000  Uiso   1.00
C1474  C     0.80506   0.97601   0.72447   0.00000  Uiso   1.00
C1475  C     0.80505   0.69064   0.72449   0.00000  Uiso   1.00
C1476  C     0.86160   0.97602   0.77553   0.00000  Uiso   1.00
C1477  C     0.83203   0.83334   0.66357   0.00000  Uiso   1.00
C1478  C     0.83463   0.83334   0.83643   0.00000  Uiso   1.00
C1479  C     0.87307   0.83258   0.90782   0.00000  Uiso   1.00
C1480  C     0.79360   0.83259   0.59218   0.00000  Uiso   1.00
C1481  C     0.83518   0.83342   0.88403   0.00000  Uiso   1.00
C1482  C     0.83149   0.83342   0.61597   0.00000  Uiso   1.00
C1483  C     0.79719   0.83565   0.90525   0.00000  Uiso   1.00
C1484  C     0.86948   0.83565   0.59475   0.00000  Uiso   1.00
C1485  C     0.79596   0.83680   0.95169   0.00000  Uiso   1.00
C1486  C     0.87070   0.83678   0.54831   0.00000  Uiso   1.00
C1487  C     0.83378   0.83580   0.97659   0.00000  Uiso   1.00
C1488  C     0.83288   0.83579   0.52341   0.00000  Uiso   1.00
C1489  C     0.87250   0.83497   0.95464   0.00000  Uiso   1.00
C1490  C     0.79416   0.83498   0.54536   0.00000  Uiso   1.00
C1491  C     0.75767   0.83963   0.97361   0.00000  Uiso   1.00
C1492  C     0.90899   0.83959   0.52640   0.00000  Uiso   1.00
H1493  H     0.76869   0.83644   0.88519   0.00000  Uiso   1.00
H1494  H     0.89798   0.83643   0.61481   0.00000  Uiso   1.00
H1495  H     0.72709   0.83733   0.53644   0.00000  Uiso   1.00
H1496  H     0.93958   0.83728   0.96357   0.00000  Uiso   1.00
H1497  H     0.70411   0.75976   0.75028   0.00000  Uiso   1.00
H1498  H     0.96257   0.90683   0.74991   0.00000  Uiso   1.00
H1499  H     0.96256   0.75976   0.74960   0.00000  Uiso   1.00
H1500  H     0.70410   0.90683   0.75021   0.00000  Uiso   1.00
H1501  H     0.88424   0.70880   0.79589   0.00000  Uiso   1.00
H1502  H     0.78246   0.95784   0.70406   0.00000  Uiso   1.00
H1503  H     0.78242   0.70880   0.70411   0.00000  Uiso   1.00
H1504  H     0.88420   0.95784   0.79594   0.00000  Uiso   1.00
N1505  N     0.83333   0.95240   0.75000   0.00000  Uiso   1.00
N1506  N     0.83333   0.71427   0.75000   0.00000  Uiso   1.00
O1507  O     0.77226   0.87154   0.75000   0.00000  Uiso   1.00
O1508  O     0.89441   0.79513   0.75001   0.00000  Uiso   1.00
O1509  O     0.89441   0.87154   0.75001   0.00000  Uiso   1.00
O1510  O     0.77226   0.79513   0.75000   0.00000  Uiso   1.00
O1511  O     0.83333   0.87156   0.68393   0.00000  Uiso   1.00
O1512  O     0.83334   0.79511   0.81608   0.00000  Uiso   1.00
O1513  O     0.83334   0.87156   0.81608   0.00000  Uiso   1.00
O1514  O     0.83333   0.79511   0.68393   0.00000  Uiso   1.00
Zn1515 Zn    0.83333   0.88437   0.75000   0.00000  Uiso   1.00
Zn1516 Zn    0.83333   0.78229   0.75000   0.00000  Uiso   1.00
O1517  O     0.91044   0.83307   0.88532   0.00000  Uiso   1.00
C1518  C     0.92355   0.78800   0.87796   0.00000  Uiso   1.00
H1519  H     0.90776   0.77430   0.84742   0.00000  Uiso   1.00
H1520  H     0.91714   0.76513   0.90691   0.00000  Uiso   1.00
C1521  C     0.97024   0.78753   0.87050   0.00000  Uiso   1.00
H1522  H     0.98704   0.79620   0.90222   0.00000  Uiso   1.00
H1523  H     0.98014   0.75330   0.85954   0.00000  Uiso   1.00
H1524  H     0.97853   0.81255   0.84434   0.00000  Uiso   1.00
O1525  O     0.75623   0.83307   0.61468   0.00000  Uiso   1.00
C1526  C     0.74313   0.78800   0.62205   0.00000  Uiso   1.00
H1527  H     0.75891   0.77432   0.65260   0.00000  Uiso   1.00
H1528  H     0.74955   0.76512   0.59312   0.00000  Uiso   1.00
C1529  C     0.69643   0.78752   0.62949   0.00000  Uiso   1.00
H1530  H     0.67965   0.79612   0.59774   0.00000  Uiso   1.00
H1531  H     0.68654   0.75329   0.64049   0.00000  Uiso   1.00
H1532  H     0.68811   0.81258   0.65560   0.00000  Uiso   1.00
O1533  O     0.72076   0.84416   0.94948   0.00000  Uiso   1.00
C1534  C     0.71203   0.89089   0.94480   0.00000  Uiso   1.00
H1535  H     0.73994   0.91065   0.93460   0.00000  Uiso   1.00
H1536  H     0.70043   0.90471   0.97703   0.00000  Uiso   1.00
C1537  C     0.67877   0.89768   0.90848   0.00000  Uiso   1.00
H1538  H     0.98280   0.88087   0.91818   0.00000  Uiso   1.00
H1539  H     0.67261   0.93442   0.90390   0.00000  Uiso   1.00
H1540  H     0.68940   0.88330   0.87616   0.00000  Uiso   1.00
O1541  O     0.94591   0.84410   0.55053   0.00000  Uiso   1.00
C1542  C     0.95476   0.89083   0.55503   0.00000  Uiso   1.00
H1543  H     0.92687   0.91075   0.56499   0.00000  Uiso   1.00
H1544  H     0.96654   0.90443   0.52280   0.00000  Uiso   1.00
C1545  C     0.98788   0.89768   0.59148   0.00000  Uiso   1.00
H1546  H     0.68384   0.88071   0.58202   0.00000  Uiso   1.00
H1547  H     0.99413   0.93441   0.59591   0.00000  Uiso   1.00
H1548  H     0.97706   0.88351   0.62381   0.00000  Uiso   1.00
loop_
_geom_bond_atom_site_label_1
_geom_bond_atom_site_label_2
_geom_bond_distance
_geom_bond_site_symmetry_2
_ccdc_geom_bond_type
C1     C10     1.420   .     S
C1     O48     1.282   .     A
C1     O45     1.283   .     A
C2     O46     1.282   .     A
C2     O47     1.283   .     A
C2     C9      1.420   .     S
C3     C28     1.403   .     A
C3     H33     1.081   .     S
C3     C803    1.391   1_554 S
C4     H34     1.081   .     S
C4     C27     1.403   .     A
C4     C804    1.391   .     S
C5     C10     1.397   .     A
C5     H35     1.084   .     S
C5     C179    1.369   1_455 S
C6     C9      1.397   .     A
C6     H36     1.084   .     S
C6     C94     1.369   .     S
C7     H37     1.084   .     S
C7     C9      1.397   .     A
C7     C91     1.369   .     S
C8     H38     1.084   .     S
C8     C10     1.397   .     A
C8     C178    1.369   1_455 S
C11    N44     1.366   .     A
C11    H39     1.081   .     S
C11    C530    1.416   1_545 S
C12    N43     1.366   .     A
C12    H40     1.082   .     S
C12    C271    1.416   .     S
C13    H41     1.081   .     S
C13    N44     1.366   .     A
C13    C528    1.416   1_545 S
C14    H42     1.082   .     S
C14    N43     1.366   .     A
C14    C269    1.416   .     S
C15    C20     1.417   .     S
C15    O52     1.282   .     A
C15    O49     1.281   .     A
C16    O51     1.281   .     A
C16    O50     1.282   .     A
C16    C19     1.417   .     S
C17    O55     1.386   .     S
C17    C27     1.396   .     A
C17    C19     1.399   .     A
C18    O63     1.386   .     S
C18    C28     1.396   .     A
C18    C20     1.399   .     A
C19    C21     1.386   .     A
C20    C22     1.386   .     A
C21    H31     1.085   .     S
C21    C23     1.385   .     A
C22    H32     1.085   .     S
C22    C24     1.385   .     A
C23    C29     1.406   .     A
C23    C25     1.414   .     A
C24    C26     1.414   .     A
C24    C30     1.406   .     A
C25    C27     1.416   .     A
C25    C800    1.395   .     S
C26    C28     1.416   .     A
C26    C799    1.395   1_554 S
C29    O71     1.383   .     S
C29    C777    1.391   .     S
C30    O79     1.383   .     S
C30    C778    1.391   1_554 S
N43    Zn53    2.008   .     S
N44    Zn54    2.008   .     S
O45    Zn53    2.000   .     S
O46    Zn54    2.000   .     S
O47    Zn53    2.000   .     S
O48    Zn54    2.000   .     S
O49    Zn53    2.004   .     S
O50    Zn54    2.004   .     S
O51    Zn53    2.004   .     S
O52    Zn54    2.004   .     S
O55    C56     1.414   .     S
C56    H57     1.110   .     S
C56    H58     1.117   .     S
C56    C59     1.521   .     S
C59    H60     1.110   .     S
C59    H61     1.110   .     S
C59    H62     1.109   .     S
O63    C64     1.414   .     S
C64    C67     1.521   .     S
C64    H66     1.117   .     S
C64    H65     1.110   .     S
C67    H68     1.110   .     S
C67    H70     1.109   .     S
C67    H69     1.110   .     S
O71    C72     1.414   .     S
C72    C75     1.521   .     S
C72    H74     1.113   .     S
C72    H73     1.117   .     S
C75    H77     1.110   .     S
C75    H78     1.111   .     S
C75    H248    1.108   1_455 S
H76    C161    1.108   .     S
O79    C80     1.414   .     S
C80    C83     1.521   .     S
C80    H82     1.113   .     S
C80    H81     1.117   .     S
C83    H85     1.110   .     S
C83    H86     1.111   .     S
C83    H170    1.107   .     S
H84    C255    1.107   1_455 S
C87    C96     1.420   .     S
C87    O134    1.282   .     A
C87    O131    1.283   .     A
C88    O132    1.282   .     A
C88    O133    1.283   .     A
C88    C95     1.420   .     S
C89    C114    1.403   .     A
C89    H119    1.081   .     S
C89    C889    1.391   1_554 S
C90    H120    1.081   .     S
C90    C113    1.403   .     A
C90    C890    1.391   .     S
C91    C96     1.397   .     A
C91    H121    1.084   .     S
C92    C95     1.397   .     A
C92    H122    1.084   .     S
C92    C180    1.369   .     S
C93    H123    1.084   .     S
C93    C95     1.397   .     A
C93    C177    1.369   .     S
C94    H124    1.084   .     S
C94    C96     1.397   .     A
C97    N130    1.366   .     A
C97    H125    1.081   .     S
C97    C616    1.416   1_545 S
C98    N129    1.366   .     A
C98    H126    1.082   .     S
C98    C357    1.416   .     S
C99    H127    1.081   .     S
C99    N130    1.366   .     A
C99    C614    1.416   1_545 S
C100   H128    1.082   .     S
C100   N129    1.366   .     A
C100   C355    1.416   .     S
C101   C106    1.417   .     S
C101   O138    1.282   .     A
C101   O135    1.281   .     A
C102   O137    1.281   .     A
C102   O136    1.282   .     A
C102   C105    1.417   .     S
C103   O141    1.386   .     S
C103   C113    1.396   .     A
C103   C105    1.399   .     A
C104   O149    1.386   .     S
C104   C114    1.396   .     A
C104   C106    1.399   .     A
C105   C107    1.386   .     A
C106   C108    1.386   .     A
C107   H117    1.085   .     S
C107   C109    1.385   .     A
C108   H118    1.085   .     S
C108   C110    1.385   .     A
C109   C115    1.406   .     A
C109   C111    1.414   .     A
C110   C112    1.414   .     A
C110   C116    1.406   .     A
C111   C113    1.416   .     A
C111   C886    1.395   .     S
C112   C114    1.416   .     A
C112   C885    1.395   1_554 S
C115   O157    1.383   .     S
C115   C863    1.391   .     S
C116   O165    1.383   .     S
C116   C864    1.391   1_554 S
N129   Zn139   2.008   .     S
N130   Zn140   2.008   .     S
O131   Zn139   2.000   .     S
O132   Zn140   2.000   .     S
O133   Zn139   2.000   .     S
O134   Zn140   2.000   .     S
O135   Zn139   2.004   .     S
O136   Zn140   2.004   .     S
O137   Zn139   2.004   .     S
O138   Zn140   2.004   .     S
O141   C142    1.414   .     S
C142   H143    1.110   .     S
C142   H144    1.117   .     S
C142   C145    1.521   .     S
C145   H146    1.110   .     S
C145   H147    1.110   .     S
C145   H148    1.109   .     S
O149   C150    1.414   .     S
C150   C153    1.521   .     S
C150   H152    1.117   .     S
C150   H151    1.110   .     S
C153   H154    1.110   .     S
C153   H156    1.109   .     S
C153   H155    1.110   .     S
O157   C158    1.414   .     S
C158   C161    1.521   .     S
C158   H160    1.113   .     S
C158   H159    1.117   .     S
C161   H163    1.110   .     S
C161   H164    1.111   .     S
H162   C247    1.108   .     S
O165   C166    1.414   .     S
C166   C169    1.521   .     S
C166   H168    1.113   .     S
C166   H167    1.117   .     S
C169   H171    1.110   .     S
C169   H172    1.111   .     S
C169   H256    1.107   .     S
C173   C182    1.420   .     S
C173   O220    1.282   .     A
C173   O217    1.283   .     A
C174   O218    1.282   .     A
C174   O219    1.283   .     A
C174   C181    1.420   .     S
C175   C200    1.403   .     A
C175   H205    1.081   .     S
C175   C975    1.391   1_554 S
C176   H206    1.081   .     S
C176   C199    1.403   .     A
C176   C976    1.391   .     S
C177   C182    1.397   .     A
C177   H207    1.084   .     S
C178   C181    1.397   .     A
C178   H208    1.084   .     S
C178   C8      1.369   1_655 S
C179   H209    1.084   .     S
C179   C181    1.397   .     A
C179   C5      1.369   1_655 S
C180   H210    1.084   .     S
C180   C182    1.397   .     A
C183   N216    1.366   .     A
C183   H211    1.081   .     S
C183   C702    1.416   1_545 S
C184   N215    1.366   .     A
C184   H212    1.082   .     S
C184   C443    1.416   .     S
C185   H213    1.081   .     S
C185   N216    1.366   .     A
C185   C700    1.416   1_545 S
C186   H214    1.082   .     S
C186   N215    1.366   .     A
C186   C441    1.416   .     S
C187   C192    1.417   .     S
C187   O224    1.282   .     A
C187   O221    1.281   .     A
C188   O223    1.281   .     A
C188   O222    1.282   .     A
C188   C191    1.417   .     S
C189   O227    1.386   .     S
C189   C199    1.396   .     A
C189   C191    1.399   .     A
C190   O235    1.386   .     S
C190   C200    1.396   .     A
C190   C192    1.399   .     A
C191   C193    1.386   .     A
C192   C194    1.386   .     A
C193   H203    1.085   .     S
C193   C195    1.385   .     A
C194   H204    1.085   .     S
C194   C196    1.385   .     A
C195   C201    1.406   .     A
C195   C197    1.414   .     A
C196   C198    1.414   .     A
C196   C202    1.406   .     A
C197   C199    1.416   .     A
C197   C972    1.395   .     S
C198   C200    1.416   .     A
C198   C971    1.395   1_554 S
C201   O243    1.383   .     S
C201   C949    1.391   .     S
C202   O251    1.383   .     S
C202   C950    1.391   1_554 S
N215   Zn225   2.008   .     S
N216   Zn226   2.008   .     S
O217   Zn225   2.000   .     S
O218   Zn226   2.000   .     S
O219   Zn225   2.000   .     S
O220   Zn226   2.000   .     S
O221   Zn225   2.004   .     S
O222   Zn226   2.004   .     S
O223   Zn225   2.004   .     S
O224   Zn226   2.004   .     S
O227   C228    1.414   .     S
C228   H229    1.110   .     S
C228   H230    1.117   .     S
C228   C231    1.521   .     S
C231   H232    1.110   .     S
C231   H233    1.110   .     S
C231   H234    1.109   .     S
O235   C236    1.414   .     S
C236   C239    1.521   .     S
C236   H238    1.117   .     S
C236   H237    1.110   .     S
C239   H240    1.110   .     S
C239   H242    1.109   .     S
C239   H241    1.110   .     S
O243   C244    1.414   .     S
C244   C247    1.521   .     S
C244   H246    1.113   .     S
C244   H245    1.117   .     S
C247   H249    1.110   .     S
C247   H250    1.111   .     S
H248   C75     1.108   1_655 S
O251   C252    1.414   .     S
C252   C255    1.521   .     S
C252   H254    1.113   .     S
C252   H253    1.117   .     S
C255   H257    1.110   .     S
C255   H258    1.111   .     S
C255   H84     1.107   1_655 S
C259   C268    1.420   .     S
C259   O306    1.282   .     A
C259   O303    1.283   .     A
C260   O304    1.282   .     A
C260   O305    1.283   .     A
C260   C267    1.420   .     S
C261   C286    1.403   .     A
C261   H291    1.081   .     S
C261   C1061   1.391   1_554 S
C262   H292    1.081   .     S
C262   C285    1.403   .     A
C262   C1062   1.391   .     S
C263   C268    1.397   .     A
C263   H293    1.084   .     S
C263   C437    1.369   1_455 S
C264   C267    1.397   .     A
C264   H294    1.084   .     S
C264   C352    1.369   .     S
C265   H295    1.084   .     S
C265   C267    1.397   .     A
C265   C349    1.369   .     S
C266   H296    1.084   .     S
C266   C268    1.397   .     A
C266   C436    1.369   1_455 S
C269   N302    1.366   .     A
C269   H297    1.081   .     S
C270   N301    1.366   .     A
C270   H298    1.082   .     S
C270   C529    1.416   .     S
C271   H299    1.081   .     S
C271   N302    1.366   .     A
C272   H300    1.082   .     S
C272   N301    1.366   .     A
C272   C527    1.416   .     S
C273   C278    1.417   .     S
C273   O310    1.282   .     A
C273   O307    1.281   .     A
C274   O309    1.281   .     A
C274   O308    1.282   .     A
C274   C277    1.417   .     S
C275   O313    1.386   .     S
C275   C285    1.396   .     A
C275   C277    1.399   .     A
C276   O321    1.386   .     S
C276   C286    1.396   .     A
C276   C278    1.399   .     A
C277   C279    1.386   .     A
C278   C280    1.386   .     A
C279   H289    1.085   .     S
C279   C281    1.385   .     A
C280   H290    1.085   .     S
C280   C282    1.385   .     A
C281   C287    1.406   .     A
C281   C283    1.414   .     A
C282   C284    1.414   .     A
C282   C288    1.406   .     A
C283   C285    1.416   .     A
C283   C1058   1.395   .     S
C284   C286    1.416   .     A
C284   C1057   1.395   1_554 S
C287   O329    1.383   .     S
C287   C1035   1.391   .     S
C288   O337    1.383   .     S
C288   C1036   1.391   1_554 S
N301   Zn311   2.008   .     S
N302   Zn312   2.008   .     S
O303   Zn311   2.000   .     S
O304   Zn312   2.000   .     S
O305   Zn311   2.000   .     S
O306   Zn312   2.000   .     S
O307   Zn311   2.004   .     S
O308   Zn312   2.004   .     S
O309   Zn311   2.004   .     S
O310   Zn312   2.004   .     S
O313   C314    1.414   .     S
C314   H315    1.110   .     S
C314   H316    1.117   .     S
C314   C317    1.521   .     S
C317   H318    1.110   .     S
C317   H319    1.110   .     S
C317   H320    1.109   .     S
O321   C322    1.414   .     S
C322   C325    1.521   .     S
C322   H324    1.117   .     S
C322   H323    1.110   .     S
C325   H326    1.110   .     S
C325   H328    1.109   .     S
C325   H327    1.110   .     S
O329   C330    1.414   .     S
C330   C333    1.521   .     S
C330   H332    1.113   .     S
C330   H331    1.117   .     S
C333   H335    1.110   .     S
C333   H336    1.111   .     S
C333   H506    1.108   1_455 S
H334   C419    1.108   .     S
O337   C338    1.414   .     S
C338   C341    1.521   .     S
C338   H340    1.113   .     S
C338   H339    1.117   .     S
C341   H343    1.110   .     S
C341   H344    1.111   .     S
C341   H428    1.107   .     S
H342   C513    1.107   1_455 S
C345   C354    1.420   .     S
C345   O392    1.282   .     A
C345   O389    1.283   .     A
C346   O390    1.282   .     A
C346   O391    1.283   .     A
C346   C353    1.420   .     S
C347   C372    1.403   .     A
C347   H377    1.081   .     S
C347   C1147   1.391   1_554 S
C348   H378    1.081   .     S
C348   C371    1.403   .     A
C348   C1148   1.391   .     S
C349   C354    1.397   .     A
C349   H379    1.084   .     S
C350   C353    1.397   .     A
C350   H380    1.084   .     S
C350   C438    1.369   .     S
C351   H381    1.084   .     S
C351   C353    1.397   .     A
C351   C435    1.369   .     S
C352   H382    1.084   .     S
C352   C354    1.397   .     A
C355   N388    1.366   .     A
C355   H383    1.081   .     S
C356   N387    1.366   .     A
C356   H384    1.082   .     S
C356   C615    1.416   .     S
C357   H385    1.081   .     S
C357   N388    1.366   .     A
C358   H386    1.082   .     S
C358   N387    1.366   .     A
C358   C613    1.416   .     S
C359   C364    1.417   .     S
C359   O396    1.282   .     A
C359   O393    1.281   .     A
C360   O395    1.281   .     A
C360   O394    1.282   .     A
C360   C363    1.417   .     S
C361   O399    1.386   .     S
C361   C371    1.396   .     A
C361   C363    1.399   .     A
C362   O407    1.386   .     S
C362   C372    1.396   .     A
C362   C364    1.399   .     A
C363   C365    1.386   .     A
C364   C366    1.386   .     A
C365   H375    1.085   .     S
C365   C367    1.385   .     A
C366   H376    1.085   .     S
C366   C368    1.385   .     A
C367   C373    1.406   .     A
C367   C369    1.414   .     A
C368   C370    1.414   .     A
C368   C374    1.406   .     A
C369   C371    1.416   .     A
C369   C1144   1.395   .     S
C370   C372    1.416   .     A
C370   C1143   1.395   1_554 S
C373   O415    1.383   .     S
C373   C1121   1.391   .     S
C374   O423    1.383   .     S
C374   C1122   1.391   1_554 S
N387   Zn397   2.008   .     S
N388   Zn398   2.008   .     S
O389   Zn397   2.000   .     S
O390   Zn398   2.000   .     S
O391   Zn397   2.000   .     S
O392   Zn398   2.000   .     S
O393   Zn397   2.004   .     S
O394   Zn398   2.004   .     S
O395   Zn397   2.004   .     S
O396   Zn398   2.004   .     S
O399   C400    1.414   .     S
C400   H401    1.110   .     S
C400   H402    1.117   .     S
C400   C403    1.521   .     S
C403   H404    1.110   .     S
C403   H405    1.110   .     S
C403   H406    1.109   .     S
O407   C408    1.414   .     S
C408   C411    1.521   .     S
C408   H410    1.117   .     S
C408   H409    1.110   .     S
C411   H412    1.110   .     S
C411   H414    1.109   .     S
C411   H413    1.110   .     S
O415   C416    1.414   .     S
C416   C419    1.521   .     S
C416   H418    1.113   .     S
C416   H417    1.117   .     S
C419   H421    1.110   .     S
C419   H422    1.111   .     S
H420   C505    1.108   .     S
O423   C424    1.414   .     S
C424   C427    1.521   .     S
C424   H426    1.113   .     S
C424   H425    1.117   .     S
C427   H429    1.110   .     S
C427   H430    1.111   .     S
C427   H514    1.107   .     S
C431   C440    1.420   .     S
C431   O478    1.282   .     A
C431   O475    1.283   .     A
C432   O476    1.282   .     A
C432   O477    1.283   .     A
C432   C439    1.420   .     S
C433   C458    1.403   .     A
C433   H463    1.081   .     S
C433   C1233   1.391   1_554 S
C434   H464    1.081   .     S
C434   C457    1.403   .     A
C434   C1234   1.391   .     S
C435   C440    1.397   .     A
C435   H465    1.084   .     S
C436   C439    1.397   .     A
C436   H466    1.084   .     S
C436   C266    1.369   1_655 S
C437   H467    1.084   .     S
C437   C439    1.397   .     A
C437   C263    1.369   1_655 S
C438   H468    1.084   .     S
C438   C440    1.397   .     A
C441   N474    1.366   .     A
C441   H469    1.081   .     S
C442   N473    1.366   .     A
C442   H470    1.082   .     S
C442   C701    1.416   .     S
C443   H471    1.081   .     S
C443   N474    1.366   .     A
C444   H472    1.082   .     S
C444   N473    1.366   .     A
C444   C699    1.416   .     S
C445   C450    1.417   .     S
C445   O482    1.282   .     A
C445   O479    1.281   .     A
C446   O481    1.281   .     A
C446   O480    1.282   .     A
C446   C449    1.417   .     S
C447   O485    1.386   .     S
C447   C457    1.396   .     A
C447   C449    1.399   .     A
C448   O493    1.386   .     S
C448   C458    1.396   .     A
C448   C450    1.399   .     A
C449   C451    1.386   .     A
C450   C452    1.386   .     A
C451   H461    1.085   .     S
C451   C453    1.385   .     A
C452   H462    1.085   .     S
C452   C454    1.385   .     A
C453   C459    1.406   .     A
C453   C455    1.414   .     A
C454   C456    1.414   .     A
C454   C460    1.406   .     A
C455   C457    1.416   .     A
C455   C1230   1.395   .     S
C456   C458    1.416   .     A
C456   C1229   1.395   1_554 S
C459   O501    1.383   .     S
C459   C1207   1.391   .     S
C460   O509    1.383   .     S
C460   C1208   1.391   1_554 S
N473   Zn483   2.008   .     S
N474   Zn484   2.008   .     S
O475   Zn483   2.000   .     S
O476   Zn484   2.000   .     S
O477   Zn483   2.000   .     S
O478   Zn484   2.000   .     S
O479   Zn483   2.004   .     S
O480   Zn484   2.004   .     S
O481   Zn483   2.004   .     S
O482   Zn484   2.004   .     S
O485   C486    1.414   .     S
C486   H487    1.110   .     S
C486   H488    1.117   .     S
C486   C489    1.521   .     S
C489   H490    1.110   .     S
C489   H491    1.110   .     S
C489   H492    1.109   .     S
O493   C494    1.414   .     S
C494   C497    1.521   .     S
C494   H496    1.117   .     S
C494   H495    1.110   .     S
C497   H498    1.110   .     S
C497   H500    1.109   .     S
C497   H499    1.110   .     S
O501   C502    1.414   .     S
C502   C505    1.521   .     S
C502   H504    1.113   .     S
C502   H503    1.117   .     S
C505   H507    1.110   .     S
C505   H508    1.111   .     S
H506   C333    1.108   1_655 S
O509   C510    1.414   .     S
C510   C513    1.521   .     S
C510   H512    1.113   .     S
C510   H511    1.117   .     S
C513   H515    1.110   .     S
C513   H516    1.111   .     S
C513   H342    1.107   1_655 S
C517   C526    1.420   .     S
C517   O564    1.282   .     A
C517   O561    1.283   .     A
C518   O562    1.282   .     A
C518   O563    1.283   .     A
C518   C525    1.420   .     S
C519   C544    1.403   .     A
C519   H549    1.081   .     S
C519   C1319   1.391   1_554 S
C520   H550    1.081   .     S
C520   C543    1.403   .     A
C520   C1320   1.391   .     S
C521   C526    1.397   .     A
C521   H551    1.084   .     S
C521   C695    1.369   1_455 S
C522   C525    1.397   .     A
C522   H552    1.084   .     S
C522   C610    1.369   .     S
C523   H553    1.084   .     S
C523   C525    1.397   .     A
C523   C607    1.369   .     S
C524   H554    1.084   .     S
C524   C526    1.397   .     A
C524   C694    1.369   1_455 S
C527   N560    1.366   .     A
C527   H555    1.081   .     S
C528   N559    1.366   .     A
C528   H556    1.082   .     S
C528   C13     1.416   1_565 S
C529   H557    1.081   .     S
C529   N560    1.366   .     A
C530   H558    1.082   .     S
C530   N559    1.366   .     A
C530   C11     1.416   1_565 S
C531   C536    1.417   .     S
C531   O568    1.282   .     A
C531   O565    1.281   .     A
C532   O567    1.281   .     A
C532   O566    1.282   .     A
C532   C535    1.417   .     S
C533   O571    1.386   .     S
C533   C543    1.396   .     A
C533   C535    1.399   .     A
C534   O579    1.386   .     S
C534   C544    1.396   .     A
C534   C536    1.399   .     A
C535   C537    1.386   .     A
C536   C538    1.386   .     A
C537   H547    1.085   .     S
C537   C539    1.385   .     A
C538   H548    1.085   .     S
C538   C540    1.385   .     A
C539   C545    1.406   .     A
C539   C541    1.414   .     A
C540   C542    1.414   .     A
C540   C546    1.406   .     A
C541   C543    1.416   .     A
C541   C1316   1.395   .     S
C542   C544    1.416   .     A
C542   C1315   1.395   1_554 S
C545   O587    1.383   .     S
C545   C1293   1.391   .     S
C546   O595    1.383   .     S
C546   C1294   1.391   1_554 S
N559   Zn569   2.008   .     S
N560   Zn570   2.008   .     S
O561   Zn569   2.000   .     S
O562   Zn570   2.000   .     S
O563   Zn569   2.000   .     S
O564   Zn570   2.000   .     S
O565   Zn569   2.004   .     S
O566   Zn570   2.004   .     S
O567   Zn569   2.004   .     S
O568   Zn570   2.004   .     S
O571   C572    1.414   .     S
C572   H573    1.110   .     S
C572   H574    1.117   .     S
C572   C575    1.521   .     S
C575   H576    1.110   .     S
C575   H577    1.110   .     S
C575   H578    1.109   .     S
O579   C580    1.414   .     S
C580   C583    1.521   .     S
C580   H582    1.117   .     S
C580   H581    1.110   .     S
C583   H584    1.110   .     S
C583   H586    1.109   .     S
C583   H585    1.110   .     S
O587   C588    1.414   .     S
C588   C591    1.521   .     S
C588   H590    1.113   .     S
C588   H589    1.117   .     S
C591   H593    1.110   .     S
C591   H594    1.111   .     S
C591   H764    1.108   1_455 S
H592   C677    1.108   .     S
O595   C596    1.414   .     S
C596   C599    1.521   .     S
C596   H598    1.113   .     S
C596   H597    1.117   .     S
C599   H601    1.110   .     S
C599   H602    1.111   .     S
C599   H686    1.107   .     S
H600   C771    1.107   1_455 S
C603   C612    1.420   .     S
C603   O650    1.282   .     A
C603   O647    1.283   .     A
C604   O648    1.282   .     A
C604   O649    1.283   .     A
C604   C611    1.420   .     S
C605   C630    1.403   .     A
C605   H635    1.081   .     S
C605   C1405   1.391   1_554 S
C606   H636    1.081   .     S
C606   C629    1.403   .     A
C606   C1406   1.391   .     S
C607   C612    1.397   .     A
C607   H637    1.084   .     S
C608   C611    1.397   .     A
C608   H638    1.084   .     S
C608   C696    1.369   .     S
C609   H639    1.084   .     S
C609   C611    1.397   .     A
C609   C693    1.369   .     S
C610   H640    1.084   .     S
C610   C612    1.397   .     A
C613   N646    1.366   .     A
C613   H641    1.081   .     S
C614   N645    1.366   .     A
C614   H642    1.082   .     S
C614   C99     1.416   1_565 S
C615   H643    1.081   .     S
C615   N646    1.366   .     A
C616   H644    1.082   .     S
C616   N645    1.366   .     A
C616   C97     1.416   1_565 S
C617   C622    1.417   .     S
C617   O654    1.282   .     A
C617   O651    1.281   .     A
C618   O653    1.281   .     A
C618   O652    1.282   .     A
C618   C621    1.417   .     S
C619   O657    1.386   .     S
C619   C629    1.396   .     A
C619   C621    1.399   .     A
C620   O665    1.386   .     S
C620   C630    1.396   .     A
C620   C622    1.399   .     A
C621   C623    1.386   .     A
C622   C624    1.386   .     A
C623   H633    1.085   .     S
C623   C625    1.385   .     A
C624   H634    1.085   .     S
C624   C626    1.385   .     A
C625   C631    1.406   .     A
C625   C627    1.414   .     A
C626   C628    1.414   .     A
C626   C632    1.406   .     A
C627   C629    1.416   .     A
C627   C1402   1.395   .     S
C628   C630    1.416   .     A
C628   C1401   1.395   1_554 S
C631   O673    1.383   .     S
C631   C1379   1.391   .     S
C632   O681    1.383   .     S
C632   C1380   1.391   1_554 S
N645   Zn655   2.008   .     S
N646   Zn656   2.008   .     S
O647   Zn655   2.000   .     S
O648   Zn656   2.000   .     S
O649   Zn655   2.000   .     S
O650   Zn656   2.000   .     S
O651   Zn655   2.004   .     S
O652   Zn656   2.004   .     S
O653   Zn655   2.004   .     S
O654   Zn656   2.004   .     S
O657   C658    1.414   .     S
C658   H659    1.110   .     S
C658   H660    1.117   .     S
C658   C661    1.521   .     S
C661   H662    1.110   .     S
C661   H663    1.110   .     S
C661   H664    1.109   .     S
O665   C666    1.414   .     S
C666   C669    1.521   .     S
C666   H668    1.117   .     S
C666   H667    1.110   .     S
C669   H670    1.110   .     S
C669   H672    1.109   .     S
C669   H671    1.110   .     S
O673   C674    1.414   .     S
C674   C677    1.521   .     S
C674   H676    1.113   .     S
C674   H675    1.117   .     S
C677   H679    1.110   .     S
C677   H680    1.111   .     S
H678   C763    1.108   .     S
O681   C682    1.414   .     S
C682   C685    1.521   .     S
C682   H684    1.113   .     S
C682   H683    1.117   .     S
C685   H687    1.110   .     S
C685   H688    1.111   .     S
C685   H772    1.107   .     S
C689   C698    1.420   .     S
C689   O736    1.282   .     A
C689   O733    1.283   .     A
C690   O734    1.282   .     A
C690   O735    1.283   .     A
C690   C697    1.420   .     S
C691   C716    1.403   .     A
C691   H721    1.081   .     S
C691   C1491   1.391   1_554 S
C692   H722    1.081   .     S
C692   C715    1.403   .     A
C692   C1492   1.391   .     S
C693   C698    1.397   .     A
C693   H723    1.084   .     S
C694   C697    1.397   .     A
C694   H724    1.084   .     S
C694   C524    1.369   1_655 S
C695   H725    1.084   .     S
C695   C697    1.397   .     A
C695   C521    1.369   1_655 S
C696   H726    1.084   .     S
C696   C698    1.397   .     A
C699   N732    1.366   .     A
C699   H727    1.081   .     S
C700   N731    1.366   .     A
C700   H728    1.082   .     S
C700   C185    1.416   1_565 S
C701   H729    1.081   .     S
C701   N732    1.366   .     A
C702   H730    1.082   .     S
C702   N731    1.366   .     A
C702   C183    1.416   1_565 S
C703   C708    1.417   .     S
C703   O740    1.282   .     A
C703   O737    1.281   .     A
C704   O739    1.281   .     A
C704   O738    1.282   .     A
C704   C707    1.417   .     S
C705   O743    1.386   .     S
C705   C715    1.396   .     A
C705   C707    1.399   .     A
C706   O751    1.386   .     S
C706   C716    1.396   .     A
C706   C708    1.399   .     A
C707   C709    1.386   .     A
C708   C710    1.386   .     A
C709   H719    1.085   .     S
C709   C711    1.385   .     A
C710   H720    1.085   .     S
C710   C712    1.385   .     A
C711   C717    1.406   .     A
C711   C713    1.414   .     A
C712   C714    1.414   .     A
C712   C718    1.406   .     A
C713   C715    1.416   .     A
C713   C1488   1.395   .     S
C714   C716    1.416   .     A
C714   C1487   1.395   1_554 S
C717   O759    1.383   .     S
C717   C1465   1.391   .     S
C718   O767    1.383   .     S
C718   C1466   1.391   1_554 S
N731   Zn741   2.008   .     S
N732   Zn742   2.008   .     S
O733   Zn741   2.000   .     S
O734   Zn742   2.000   .     S
O735   Zn741   2.000   .     S
O736   Zn742   2.000   .     S
O737   Zn741   2.004   .     S
O738   Zn742   2.004   .     S
O739   Zn741   2.004   .     S
O740   Zn742   2.004   .     S
O743   C744    1.414   .     S
C744   H745    1.110   .     S
C744   H746    1.117   .     S
C744   C747    1.521   .     S
C747   H748    1.110   .     S
C747   H749    1.110   .     S
C747   H750    1.109   .     S
O751   C752    1.414   .     S
C752   C755    1.521   .     S
C752   H754    1.117   .     S
C752   H753    1.110   .     S
C755   H756    1.110   .     S
C755   H758    1.109   .     S
C755   H757    1.110   .     S
O759   C760    1.414   .     S
C760   C763    1.521   .     S
C760   H762    1.113   .     S
C760   H761    1.117   .     S
C763   H765    1.110   .     S
C763   H766    1.111   .     S
H764   C591    1.108   1_655 S
O767   C768    1.414   .     S
C768   C771    1.521   .     S
C768   H770    1.113   .     S
C768   H769    1.117   .     S
C771   H773    1.110   .     S
C771   H774    1.111   .     S
C771   H600    1.107   1_655 S
C775   C784    1.420   .     S
C775   O822    1.282   .     A
C775   O819    1.283   .     A
C776   O820    1.282   .     A
C776   O821    1.283   .     A
C776   C783    1.420   .     S
C777   C802    1.403   .     A
C777   H807    1.081   .     S
C778   H808    1.081   .     S
C778   C801    1.403   .     A
C778   C30     1.391   1_556 S
C779   C784    1.397   .     A
C779   H809    1.084   .     S
C779   C953    1.369   1_455 S
C780   C783    1.397   .     A
C780   H810    1.084   .     S
C780   C868    1.369   .     S
C781   H811    1.084   .     S
C781   C783    1.397   .     A
C781   C865    1.369   .     S
C782   H812    1.084   .     S
C782   C784    1.397   .     A
C782   C952    1.369   1_455 S
C785   N818    1.366   .     A
C785   H813    1.081   .     S
C785   C1304   1.416   1_545 S
C786   N817    1.366   .     A
C786   H814    1.082   .     S
C786   C1045   1.416   .     S
C787   H815    1.081   .     S
C787   N818    1.366   .     A
C787   C1302   1.416   1_545 S
C788   H816    1.082   .     S
C788   N817    1.366   .     A
C788   C1043   1.416   .     S
C789   C794    1.417   .     S
C789   O826    1.282   .     A
C789   O823    1.281   .     A
C790   O825    1.281   .     A
C790   O824    1.282   .     A
C790   C793    1.417   .     S
C791   O829    1.386   .     S
C791   C801    1.396   .     A
C791   C793    1.399   .     A
C792   O837    1.386   .     S
C792   C802    1.396   .     A
C792   C794    1.399   .     A
C793   C795    1.386   .     A
C794   C796    1.386   .     A
C795   H805    1.085   .     S
C795   C797    1.385   .     A
C796   H806    1.085   .     S
C796   C798    1.385   .     A
C797   C803    1.406   .     A
C797   C799    1.414   .     A
C798   C800    1.414   .     A
C798   C804    1.406   .     A
C799   C801    1.416   .     A
C799   C26     1.395   1_556 S
C800   C802    1.416   .     A
C803   O845    1.383   .     S
C803   C3      1.391   1_556 S
C804   O853    1.383   .     S
N817   Zn827   2.008   .     S
N818   Zn828   2.008   .     S
O819   Zn827   2.000   .     S
O820   Zn828   2.000   .     S
O821   Zn827   2.000   .     S
O822   Zn828   2.000   .     S
O823   Zn827   2.004   .     S
O824   Zn828   2.004   .     S
O825   Zn827   2.004   .     S
O826   Zn828   2.004   .     S
O829   C830    1.414   .     S
C830   H831    1.110   .     S
C830   H832    1.117   .     S
C830   C833    1.521   .     S
C833   H834    1.110   .     S
C833   H835    1.110   .     S
C833   H836    1.109   .     S
O837   C838    1.414   .     S
C838   C841    1.521   .     S
C838   H840    1.117   .     S
C838   H839    1.110   .     S
C841   H842    1.110   .     S
C841   H844    1.109   .     S
C841   H843    1.110   .     S
O845   C846    1.414   .     S
C846   C849    1.521   .     S
C846   H848    1.113   .     S
C846   H847    1.117   .     S
C849   H851    1.110   .     S
C849   H852    1.111   .     S
C849   H1022   1.108   1_455 S
H850   C935    1.108   .     S
O853   C854    1.414   .     S
C854   C857    1.521   .     S
C854   H856    1.113   .     S
C854   H855    1.117   .     S
C857   H859    1.110   .     S
C857   H860    1.111   .     S
C857   H944    1.107   .     S
H858   C1029   1.107   1_455 S
C861   C870    1.420   .     S
C861   O908    1.282   .     A
C861   O905    1.283   .     A
C862   O906    1.282   .     A
C862   O907    1.283   .     A
C862   C869    1.420   .     S
C863   C888    1.403   .     A
C863   H893    1.081   .     S
C864   H894    1.081   .     S
C864   C887    1.403   .     A
C864   C116    1.391   1_556 S
C865   C870    1.397   .     A
C865   H895    1.084   .     S
C866   C869    1.397   .     A
C866   H896    1.084   .     S
C866   C954    1.369   .     S
C867   H897    1.084   .     S
C867   C869    1.397   .     A
C867   C951    1.369   .     S
C868   H898    1.084   .     S
C868   C870    1.397   .     A
C871   N904    1.366   .     A
C871   H899    1.081   .     S
C871   C1390   1.416   1_545 S
C872   N903    1.366   .     A
C872   H900    1.082   .     S
C872   C1131   1.416   .     S
C873   H901    1.081   .     S
C873   N904    1.366   .     A
C873   C1388   1.416   1_545 S
C874   H902    1.082   .     S
C874   N903    1.366   .     A
C874   C1129   1.416   .     S
C875   C880    1.417   .     S
C875   O912    1.282   .     A
C875   O909    1.281   .     A
C876   O911    1.281   .     A
C876   O910    1.282   .     A
C876   C879    1.417   .     S
C877   O915    1.386   .     S
C877   C887    1.396   .     A
C877   C879    1.399   .     A
C878   O923    1.386   .     S
C878   C888    1.396   .     A
C878   C880    1.399   .     A
C879   C881    1.386   .     A
C880   C882    1.386   .     A
C881   H891    1.085   .     S
C881   C883    1.385   .     A
C882   H892    1.085   .     S
C882   C884    1.385   .     A
C883   C889    1.406   .     A
C883   C885    1.414   .     A
C884   C886    1.414   .     A
C884   C890    1.406   .     A
C885   C887    1.416   .     A
C885   C112    1.395   1_556 S
C886   C888    1.416   .     A
C889   O931    1.383   .     S
C889   C89     1.391   1_556 S
C890   O939    1.383   .     S
N903   Zn913   2.008   .     S
N904   Zn914   2.008   .     S
O905   Zn913   2.000   .     S
O906   Zn914   2.000   .     S
O907   Zn913   2.000   .     S
O908   Zn914   2.000   .     S
O909   Zn913   2.004   .     S
O910   Zn914   2.004   .     S
O911   Zn913   2.004   .     S
O912   Zn914   2.004   .     S
O915   C916    1.414   .     S
C916   H917    1.110   .     S
C916   H918    1.117   .     S
C916   C919    1.521   .     S
C919   H920    1.110   .     S
C919   H921    1.110   .     S
C919   H922    1.109   .     S
O923   C924    1.414   .     S
C924   C927    1.521   .     S
C924   H926    1.117   .     S
C924   H925    1.110   .     S
C927   H928    1.110   .     S
C927   H930    1.109   .     S
C927   H929    1.110   .     S
O931   C932    1.414   .     S
C932   C935    1.521   .     S
C932   H934    1.113   .     S
C932   H933    1.117   .     S
C935   H937    1.110   .     S
C935   H938    1.111   .     S
H936   C1021   1.108   .     S
O939   C940    1.414   .     S
C940   C943    1.521   .     S
C940   H942    1.113   .     S
C940   H941    1.117   .     S
C943   H945    1.110   .     S
C943   H946    1.111   .     S
C943   H1030   1.107   .     S
C947   C956    1.420   .     S
C947   O994    1.282   .     A
C947   O991    1.283   .     A
C948   O992    1.282   .     A
C948   O993    1.283   .     A
C948   C955    1.420   .     S
C949   C974    1.403   .     A
C949   H979    1.081   .     S
C950   H980    1.081   .     S
C950   C973    1.403   .     A
C950   C202    1.391   1_556 S
C951   C956    1.397   .     A
C951   H981    1.084   .     S
C952   C955    1.397   .     A
C952   H982    1.084   .     S
C952   C782    1.369   1_655 S
C953   H983    1.084   .     S
C953   C955    1.397   .     A
C953   C779    1.369   1_655 S
C954   H984    1.084   .     S
C954   C956    1.397   .     A
C957   N990    1.366   .     A
C957   H985    1.081   .     S
C957   C1476   1.416   1_545 S
C958   N989    1.366   .     A
C958   H986    1.082   .     S
C958   C1217   1.416   .     S
C959   H987    1.081   .     S
C959   N990    1.366   .     A
C959   C1474   1.416   1_545 S
C960   H988    1.082   .     S
C960   N989    1.366   .     A
C960   C1215   1.416   .     S
C961   C966    1.417   .     S
C961   O998    1.282   .     A
C961   O995    1.281   .     A
C962   O997    1.281   .     A
C962   O996    1.282   .     A
C962   C965    1.417   .     S
C963   O1001   1.386   .     S
C963   C973    1.396   .     A
C963   C965    1.399   .     A
C964   O1009   1.386   .     S
C964   C974    1.396   .     A
C964   C966    1.399   .     A
C965   C967    1.386   .     A
C966   C968    1.386   .     A
C967   H977    1.085   .     S
C967   C969    1.385   .     A
C968   H978    1.085   .     S
C968   C970    1.385   .     A
C969   C975    1.406   .     A
C969   C971    1.414   .     A
C970   C972    1.414   .     A
C970   C976    1.406   .     A
C971   C973    1.416   .     A
C971   C198    1.395   1_556 S
C972   C974    1.416   .     A
C975   O1017   1.383   .     S
C975   C175    1.391   1_556 S
C976   O1025   1.383   .     S
N989   Zn999   2.008   .     S
N990   Zn1000  2.008   .     S
O991   Zn999   2.000   .     S
O992   Zn1000  2.000   .     S
O993   Zn999   2.000   .     S
O994   Zn1000  2.000   .     S
O995   Zn999   2.004   .     S
O996   Zn1000  2.004   .     S
O997   Zn999   2.004   .     S
O998   Zn1000  2.004   .     S
O1001  C1002   1.414   .     S
C1002  H1003   1.110   .     S
C1002  H1004   1.117   .     S
C1002  C1005   1.521   .     S
C1005  H1006   1.110   .     S
C1005  H1007   1.110   .     S
C1005  H1008   1.109   .     S
O1009  C1010   1.414   .     S
C1010  C1013   1.521   .     S
C1010  H1012   1.117   .     S
C1010  H1011   1.110   .     S
C1013  H1014   1.110   .     S
C1013  H1016   1.109   .     S
C1013  H1015   1.110   .     S
O1017  C1018   1.414   .     S
C1018  C1021   1.521   .     S
C1018  H1020   1.113   .     S
C1018  H1019   1.117   .     S
C1021  H1023   1.110   .     S
C1021  H1024   1.111   .     S
H1022  C849    1.108   1_655 S
O1025  C1026   1.414   .     S
C1026  C1029   1.521   .     S
C1026  H1028   1.113   .     S
C1026  H1027   1.117   .     S
C1029  H1031   1.110   .     S
C1029  H1032   1.111   .     S
C1029  H858    1.107   1_655 S
C1033  C1042   1.420   .     S
C1033  O1080   1.282   .     A
C1033  O1077   1.283   .     A
C1034  O1078   1.282   .     A
C1034  O1079   1.283   .     A
C1034  C1041   1.420   .     S
C1035  C1060   1.403   .     A
C1035  H1065   1.081   .     S
C1036  H1066   1.081   .     S
C1036  C1059   1.403   .     A
C1036  C288    1.391   1_556 S
C1037  C1042   1.397   .     A
C1037  H1067   1.084   .     S
C1037  C1211   1.369   1_455 S
C1038  C1041   1.397   .     A
C1038  H1068   1.084   .     S
C1038  C1126   1.369   .     S
C1039  H1069   1.084   .     S
C1039  C1041   1.397   .     A
C1039  C1123   1.369   .     S
C1040  H1070   1.084   .     S
C1040  C1042   1.397   .     A
C1040  C1210   1.369   1_455 S
C1043  N1076   1.366   .     A
C1043  H1071   1.081   .     S
C1044  N1075   1.366   .     A
C1044  H1072   1.082   .     S
C1044  C1303   1.416   .     S
C1045  H1073   1.081   .     S
C1045  N1076   1.366   .     A
C1046  H1074   1.082   .     S
C1046  N1075   1.366   .     A
C1046  C1301   1.416   .     S
C1047  C1052   1.417   .     S
C1047  O1084   1.282   .     A
C1047  O1081   1.281   .     A
C1048  O1083   1.281   .     A
C1048  O1082   1.282   .     A
C1048  C1051   1.417   .     S
C1049  O1087   1.386   .     S
C1049  C1059   1.396   .     A
C1049  C1051   1.399   .     A
C1050  O1095   1.386   .     S
C1050  C1060   1.396   .     A
C1050  C1052   1.399   .     A
C1051  C1053   1.386   .     A
C1052  C1054   1.386   .     A
C1053  H1063   1.085   .     S
C1053  C1055   1.385   .     A
C1054  H1064   1.085   .     S
C1054  C1056   1.385   .     A
C1055  C1061   1.406   .     A
C1055  C1057   1.414   .     A
C1056  C1058   1.414   .     A
C1056  C1062   1.406   .     A
C1057  C1059   1.416   .     A
C1057  C284    1.395   1_556 S
C1058  C1060   1.416   .     A
C1061  O1103   1.383   .     S
C1061  C261    1.391   1_556 S
C1062  O1111   1.383   .     S
N1075  Zn1085  2.008   .     S
N1076  Zn1086  2.008   .     S
O1077  Zn1085  2.000   .     S
O1078  Zn1086  2.000   .     S
O1079  Zn1085  2.000   .     S
O1080  Zn1086  2.000   .     S
O1081  Zn1085  2.004   .     S
O1082  Zn1086  2.004   .     S
O1083  Zn1085  2.004   .     S
O1084  Zn1086  2.004   .     S
O1087  C1088   1.414   .     S
C1088  H1089   1.110   .     S
C1088  H1090   1.117   .     S
C1088  C1091   1.521   .     S
C1091  H1092   1.110   .     S
C1091  H1093   1.110   .     S
C1091  H1094   1.109   .     S
O1095  C1096   1.414   .     S
C1096  C1099   1.521   .     S
C1096  H1098   1.117   .     S
C1096  H1097   1.110   .     S
C1099  H1100   1.110   .     S
C1099  H1102   1.109   .     S
C1099  H1101   1.110   .     S
O1103  C1104   1.414   .     S
C1104  C1107   1.521   .     S
C1104  H1106   1.113   .     S
C1104  H1105   1.117   .     S
C1107  H1109   1.110   .     S
C1107  H1110   1.111   .     S
C1107  H1280   1.108   1_455 S
H1108  C1193   1.108   .     S
O1111  C1112   1.414   .     S
C1112  C1115   1.521   .     S
C1112  H1114   1.113   .     S
C1112  H1113   1.117   .     S
C1115  H1117   1.110   .     S
C1115  H1118   1.111   .     S
C1115  H1202   1.107   .     S
H1116  C1287   1.107   1_455 S
C1119  C1128   1.420   .     S
C1119  O1166   1.282   .     A
C1119  O1163   1.283   .     A
C1120  O1164   1.282   .     A
C1120  O1165   1.283   .     A
C1120  C1127   1.420   .     S
C1121  C1146   1.403   .     A
C1121  H1151   1.081   .     S
C1122  H1152   1.081   .     S
C1122  C1145   1.403   .     A
C1122  C374    1.391   1_556 S
C1123  C1128   1.397   .     A
C1123  H1153   1.084   .     S
C1124  C1127   1.397   .     A
C1124  H1154   1.084   .     S
C1124  C1212   1.369   .     S
C1125  H1155   1.084   .     S
C1125  C1127   1.397   .     A
C1125  C1209   1.369   .     S
C1126  H1156   1.084   .     S
C1126  C1128   1.397   .     A
C1129  N1162   1.366   .     A
C1129  H1157   1.081   .     S
C1130  N1161   1.366   .     A
C1130  H1158   1.082   .     S
C1130  C1389   1.416   .     S
C1131  H1159   1.081   .     S
C1131  N1162   1.366   .     A
C1132  H1160   1.082   .     S
C1132  N1161   1.366   .     A
C1132  C1387   1.416   .     S
C1133  C1138   1.417   .     S
C1133  O1170   1.282   .     A
C1133  O1167   1.281   .     A
C1134  O1169   1.281   .     A
C1134  O1168   1.282   .     A
C1134  C1137   1.417   .     S
C1135  O1173   1.386   .     S
C1135  C1145   1.396   .     A
C1135  C1137   1.399   .     A
C1136  O1181   1.386   .     S
C1136  C1146   1.396   .     A
C1136  C1138   1.399   .     A
C1137  C1139   1.386   .     A
C1138  C1140   1.386   .     A
C1139  H1149   1.085   .     S
C1139  C1141   1.385   .     A
C1140  H1150   1.085   .     S
C1140  C1142   1.385   .     A
C1141  C1147   1.406   .     A
C1141  C1143   1.414   .     A
C1142  C1144   1.414   .     A
C1142  C1148   1.406   .     A
C1143  C1145   1.416   .     A
C1143  C370    1.395   1_556 S
C1144  C1146   1.416   .     A
C1147  O1189   1.383   .     S
C1147  C347    1.391   1_556 S
C1148  O1197   1.383   .     S
N1161  Zn1171  2.008   .     S
N1162  Zn1172  2.008   .     S
O1163  Zn1171  2.000   .     S
O1164  Zn1172  2.000   .     S
O1165  Zn1171  2.000   .     S
O1166  Zn1172  2.000   .     S
O1167  Zn1171  2.004   .     S
O1168  Zn1172  2.004   .     S
O1169  Zn1171  2.004   .     S
O1170  Zn1172  2.004   .     S
O1173  C1174   1.414   .     S
C1174  H1175   1.110   .     S
C1174  H1176   1.117   .     S
C1174  C1177   1.521   .     S
C1177  H1178   1.110   .     S
C1177  H1179   1.110   .     S
C1177  H1180   1.109   .     S
O1181  C1182   1.414   .     S
C1182  C1185   1.521   .     S
C1182  H1184   1.117   .     S
C1182  H1183   1.110   .     S
C1185  H1186   1.110   .     S
C1185  H1188   1.109   .     S
C1185  H1187   1.110   .     S
O1189  C1190   1.414   .     S
C1190  C1193   1.521   .     S
C1190  H1192   1.113   .     S
C1190  H1191   1.117   .     S
C1193  H1195   1.110   .     S
C1193  H1196   1.111   .     S
H1194  C1279   1.108   .     S
O1197  C1198   1.414   .     S
C1198  C1201   1.521   .     S
C1198  H1200   1.113   .     S
C1198  H1199   1.117   .     S
C1201  H1203   1.110   .     S
C1201  H1204   1.111   .     S
C1201  H1288   1.107   .     S
C1205  C1214   1.420   .     S
C1205  O1252   1.282   .     A
C1205  O1249   1.283   .     A
C1206  O1250   1.282   .     A
C1206  O1251   1.283   .     A
C1206  C1213   1.420   .     S
C1207  C1232   1.403   .     A
C1207  H1237   1.081   .     S
C1208  H1238   1.081   .     S
C1208  C1231   1.403   .     A
C1208  C460    1.391   1_556 S
C1209  C1214   1.397   .     A
C1209  H1239   1.084   .     S
C1210  C1213   1.397   .     A
C1210  H1240   1.084   .     S
C1210  C1040   1.369   1_655 S
C1211  H1241   1.084   .     S
C1211  C1213   1.397   .     A
C1211  C1037   1.369   1_655 S
C1212  H1242   1.084   .     S
C1212  C1214   1.397   .     A
C1215  N1248   1.366   .     A
C1215  H1243   1.081   .     S
C1216  N1247   1.366   .     A
C1216  H1244   1.082   .     S
C1216  C1475   1.416   .     S
C1217  H1245   1.081   .     S
C1217  N1248   1.366   .     A
C1218  H1246   1.082   .     S
C1218  N1247   1.366   .     A
C1218  C1473   1.416   .     S
C1219  C1224   1.417   .     S
C1219  O1256   1.282   .     A
C1219  O1253   1.281   .     A
C1220  O1255   1.281   .     A
C1220  O1254   1.282   .     A
C1220  C1223   1.417   .     S
C1221  O1259   1.386   .     S
C1221  C1231   1.396   .     A
C1221  C1223   1.399   .     A
C1222  O1267   1.386   .     S
C1222  C1232   1.396   .     A
C1222  C1224   1.399   .     A
C1223  C1225   1.386   .     A
C1224  C1226   1.386   .     A
C1225  H1235   1.085   .     S
C1225  C1227   1.385   .     A
C1226  H1236   1.085   .     S
C1226  C1228   1.385   .     A
C1227  C1233   1.406   .     A
C1227  C1229   1.414   .     A
C1228  C1230   1.414   .     A
C1228  C1234   1.406   .     A
C1229  C1231   1.416   .     A
C1229  C456    1.395   1_556 S
C1230  C1232   1.416   .     A
C1233  O1275   1.383   .     S
C1233  C433    1.391   1_556 S
C1234  O1283   1.383   .     S
N1247  Zn1257  2.008   .     S
N1248  Zn1258  2.008   .     S
O1249  Zn1257  2.000   .     S
O1250  Zn1258  2.000   .     S
O1251  Zn1257  2.000   .     S
O1252  Zn1258  2.000   .     S
O1253  Zn1257  2.004   .     S
O1254  Zn1258  2.004   .     S
O1255  Zn1257  2.004   .     S
O1256  Zn1258  2.004   .     S
O1259  C1260   1.414   .     S
C1260  H1261   1.110   .     S
C1260  H1262   1.117   .     S
C1260  C1263   1.521   .     S
C1263  H1264   1.110   .     S
C1263  H1265   1.110   .     S
C1263  H1266   1.109   .     S
O1267  C1268   1.414   .     S
C1268  C1271   1.521   .     S
C1268  H1270   1.117   .     S
C1268  H1269   1.110   .     S
C1271  H1272   1.110   .     S
C1271  H1274   1.109   .     S
C1271  H1273   1.110   .     S
O1275  C1276   1.414   .     S
C1276  C1279   1.521   .     S
C1276  H1278   1.113   .     S
C1276  H1277   1.117   .     S
C1279  H1281   1.110   .     S
C1279  H1282   1.111   .     S
H1280  C1107   1.108   1_655 S
O1283  C1284   1.414   .     S
C1284  C1287   1.521   .     S
C1284  H1286   1.113   .     S
C1284  H1285   1.117   .     S
C1287  H1289   1.110   .     S
C1287  H1290   1.111   .     S
C1287  H1116   1.107   1_655 S
C1291  C1300   1.420   .     S
C1291  O1338   1.282   .     A
C1291  O1335   1.283   .     A
C1292  O1336   1.282   .     A
C1292  O1337   1.283   .     A
C1292  C1299   1.420   .     S
C1293  C1318   1.403   .     A
C1293  H1323   1.081   .     S
C1294  H1324   1.081   .     S
C1294  C1317   1.403   .     A
C1294  C546    1.391   1_556 S
C1295  C1300   1.397   .     A
C1295  H1325   1.084   .     S
C1295  C1469   1.369   1_455 S
C1296  C1299   1.397   .     A
C1296  H1326   1.084   .     S
C1296  C1384   1.369   .     S
C1297  H1327   1.084   .     S
C1297  C1299   1.397   .     A
C1297  C1381   1.369   .     S
C1298  H1328   1.084   .     S
C1298  C1300   1.397   .     A
C1298  C1468   1.369   1_455 S
C1301  N1334   1.366   .     A
C1301  H1329   1.081   .     S
C1302  N1333   1.366   .     A
C1302  H1330   1.082   .     S
C1302  C787    1.416   1_565 S
C1303  H1331   1.081   .     S
C1303  N1334   1.366   .     A
C1304  H1332   1.082   .     S
C1304  N1333   1.366   .     A
C1304  C785    1.416   1_565 S
C1305  C1310   1.417   .     S
C1305  O1342   1.282   .     A
C1305  O1339   1.281   .     A
C1306  O1341   1.281   .     A
C1306  O1340   1.282   .     A
C1306  C1309   1.417   .     S
C1307  O1345   1.386   .     S
C1307  C1317   1.396   .     A
C1307  C1309   1.399   .     A
C1308  O1353   1.386   .     S
C1308  C1318   1.396   .     A
C1308  C1310   1.399   .     A
C1309  C1311   1.386   .     A
C1310  C1312   1.386   .     A
C1311  H1321   1.085   .     S
C1311  C1313   1.385   .     A
C1312  H1322   1.085   .     S
C1312  C1314   1.385   .     A
C1313  C1319   1.406   .     A
C1313  C1315   1.414   .     A
C1314  C1316   1.414   .     A
C1314  C1320   1.406   .     A
C1315  C1317   1.416   .     A
C1315  C542    1.395   1_556 S
C1316  C1318   1.416   .     A
C1319  O1361   1.383   .     S
C1319  C519    1.391   1_556 S
C1320  O1369   1.383   .     S
N1333  Zn1343  2.008   .     S
N1334  Zn1344  2.008   .     S
O1335  Zn1343  2.000   .     S
O1336  Zn1344  2.000   .     S
O1337  Zn1343  2.000   .     S
O1338  Zn1344  2.000   .     S
O1339  Zn1343  2.004   .     S
O1340  Zn1344  2.004   .     S
O1341  Zn1343  2.004   .     S
O1342  Zn1344  2.004   .     S
O1345  C1346   1.414   .     S
C1346  H1347   1.110   .     S
C1346  H1348   1.117   .     S
C1346  C1349   1.521   .     S
C1349  H1350   1.110   .     S
C1349  H1351   1.110   .     S
C1349  H1352   1.109   .     S
O1353  C1354   1.414   .     S
C1354  C1357   1.521   .     S
C1354  H1356   1.117   .     S
C1354  H1355   1.110   .     S
C1357  H1358   1.110   .     S
C1357  H1360   1.109   .     S
C1357  H1359   1.110   .     S
O1361  C1362   1.414   .     S
C1362  C1365   1.521   .     S
C1362  H1364   1.113   .     S
C1362  H1363   1.117   .     S
C1365  H1367   1.110   .     S
C1365  H1368   1.111   .     S
C1365  H1538   1.108   1_455 S
H1366  C1451   1.108   .     S
O1369  C1370   1.414   .     S
C1370  C1373   1.521   .     S
C1370  H1372   1.113   .     S
C1370  H1371   1.117   .     S
C1373  H1375   1.110   .     S
C1373  H1376   1.111   .     S
C1373  H1460   1.107   .     S
H1374  C1545   1.107   1_455 S
C1377  C1386   1.420   .     S
C1377  O1424   1.282   .     A
C1377  O1421   1.283   .     A
C1378  O1422   1.282   .     A
C1378  O1423   1.283   .     A
C1378  C1385   1.420   .     S
C1379  C1404   1.403   .     A
C1379  H1409   1.081   .     S
C1380  H1410   1.081   .     S
C1380  C1403   1.403   .     A
C1380  C632    1.391   1_556 S
C1381  C1386   1.397   .     A
C1381  H1411   1.084   .     S
C1382  C1385   1.397   .     A
C1382  H1412   1.084   .     S
C1382  C1470   1.369   .     S
C1383  H1413   1.084   .     S
C1383  C1385   1.397   .     A
C1383  C1467   1.369   .     S
C1384  H1414   1.084   .     S
C1384  C1386   1.397   .     A
C1387  N1420   1.366   .     A
C1387  H1415   1.081   .     S
C1388  N1419   1.366   .     A
C1388  H1416   1.082   .     S
C1388  C873    1.416   1_565 S
C1389  H1417   1.081   .     S
C1389  N1420   1.366   .     A
C1390  H1418   1.082   .     S
C1390  N1419   1.366   .     A
C1390  C871    1.416   1_565 S
C1391  C1396   1.417   .     S
C1391  O1428   1.282   .     A
C1391  O1425   1.281   .     A
C1392  O1427   1.281   .     A
C1392  O1426   1.282   .     A
C1392  C1395   1.417   .     S
C1393  O1431   1.386   .     S
C1393  C1403   1.396   .     A
C1393  C1395   1.399   .     A
C1394  O1439   1.386   .     S
C1394  C1404   1.396   .     A
C1394  C1396   1.399   .     A
C1395  C1397   1.386   .     A
C1396  C1398   1.386   .     A
C1397  H1407   1.085   .     S
C1397  C1399   1.385   .     A
C1398  H1408   1.085   .     S
C1398  C1400   1.385   .     A
C1399  C1405   1.406   .     A
C1399  C1401   1.414   .     A
C1400  C1402   1.414   .     A
C1400  C1406   1.406   .     A
C1401  C1403   1.416   .     A
C1401  C628    1.395   1_556 S
C1402  C1404   1.416   .     A
C1405  O1447   1.383   .     S
C1405  C605    1.391   1_556 S
C1406  O1455   1.383   .     S
N1419  Zn1429  2.008   .     S
N1420  Zn1430  2.008   .     S
O1421  Zn1429  2.000   .     S
O1422  Zn1430  2.000   .     S
O1423  Zn1429  2.000   .     S
O1424  Zn1430  2.000   .     S
O1425  Zn1429  2.004   .     S
O1426  Zn1430  2.004   .     S
O1427  Zn1429  2.004   .     S
O1428  Zn1430  2.004   .     S
O1431  C1432   1.414   .     S
C1432  H1433   1.110   .     S
C1432  H1434   1.117   .     S
C1432  C1435   1.521   .     S
C1435  H1436   1.110   .     S
C1435  H1437   1.110   .     S
C1435  H1438   1.109   .     S
O1439  C1440   1.414   .     S
C1440  C1443   1.521   .     S
C1440  H1442   1.117   .     S
C1440  H1441   1.110   .     S
C1443  H1444   1.110   .     S
C1443  H1446   1.109   .     S
C1443  H1445   1.110   .     S
O1447  C1448   1.414   .     S
C1448  C1451   1.521   .     S
C1448  H1450   1.113   .     S
C1448  H1449   1.117   .     S
C1451  H1453   1.110   .     S
C1451  H1454   1.111   .     S
H1452  C1537   1.108   .     S
O1455  C1456   1.414   .     S
C1456  C1459   1.521   .     S
C1456  H1458   1.113   .     S
C1456  H1457   1.117   .     S
C1459  H1461   1.110   .     S
C1459  H1462   1.111   .     S
C1459  H1546   1.107   .     S
C1463  C1472   1.420   .     S
C1463  O1510   1.282   .     A
C1463  O1507   1.283   .     A
C1464  O1508   1.282   .     A
C1464  O1509   1.283   .     A
C1464  C1471   1.420   .     S
C1465  C1490   1.403   .     A
C1465  H1495   1.081   .     S
C1466  H1496   1.081   .     S
C1466  C1489   1.403   .     A
C1466  C718    1.391   1_556 S
C1467  C1472   1.397   .     A
C1467  H1497   1.084   .     S
C1468  C1471   1.397   .     A
C1468  H1498   1.084   .     S
C1468  C1298   1.369   1_655 S
C1469  H1499   1.084   .     S
C1469  C1471   1.397   .     A
C1469  C1295   1.369   1_655 S
C1470  H1500   1.084   .     S
C1470  C1472   1.397   .     A
C1473  N1506   1.366   .     A
C1473  H1501   1.081   .     S
C1474  N1505   1.366   .     A
C1474  H1502   1.082   .     S
C1474  C959    1.416   1_565 S
C1475  H1503   1.081   .     S
C1475  N1506   1.366   .     A
C1476  H1504   1.082   .     S
C1476  N1505   1.366   .     A
C1476  C957    1.416   1_565 S
C1477  C1482   1.417   .     S
C1477  O1514   1.282   .     A
C1477  O1511   1.281   .     A
C1478  O1513   1.281   .     A
C1478  O1512   1.282   .     A
C1478  C1481   1.417   .     S
C1479  O1517   1.386   .     S
C1479  C1489   1.396   .     A
C1479  C1481   1.399   .     A
C1480  O1525   1.386   .     S
C1480  C1490   1.396   .     A
C1480  C1482   1.399   .     A
C1481  C1483   1.386   .     A
C1482  C1484   1.386   .     A
C1483  H1493   1.085   .     S
C1483  C1485   1.385   .     A
C1484  H1494   1.085   .     S
C1484  C1486   1.385   .     A
C1485  C1491   1.406   .     A
C1485  C1487   1.414   .     A
C1486  C1488   1.414   .     A
C1486  C1492   1.406   .     A
C1487  C1489   1.416   .     A
C1487  C714    1.395   1_556 S
C1488  C1490   1.416   .     A
C1491  O1533   1.383   .     S
C1491  C691    1.391   1_556 S
C1492  O1541   1.383   .     S
N1505  Zn1515  2.008   .     S
N1506  Zn1516  2.008   .     S
O1507  Zn1515  2.000   .     S
O1508  Zn1516  2.000   .     S
O1509  Zn1515  2.000   .     S
O1510  Zn1516  2.000   .     S
O1511  Zn1515  2.004   .     S
O1512  Zn1516  2.004   .     S
O1513  Zn1515  2.004   .     S
O1514  Zn1516  2.004   .     S
O1517  C1518   1.414   .     S
C1518  H1519   1.110   .     S
C1518  H1520   1.117   .     S
C1518  C1521   1.521   .     S
C1521  H1522   1.110   .     S
C1521  H1523   1.110   .     S
C1521  H1524   1.109   .     S
O1525  C1526   1.414   .     S
C1526  C1529   1.521   .     S
C1526  H1528   1.117   .     S
C1526  H1527   1.110   .     S
C1529  H1530   1.110   .     S
C1529  H1532   1.109   .     S
C1529  H1531   1.110   .     S
O1533  C1534   1.414   .     S
C1534  C1537   1.521   .     S
C1534  H1536   1.113   .     S
C1534  H1535   1.117   .     S
C1537  H1539   1.110   .     S
C1537  H1540   1.111   .     S
H1538  C1365   1.108   1_655 S
O1541  C1542   1.414   .     S
C1542  C1545   1.521   .     S
C1542  H1544   1.113   .     S
C1542  H1543   1.117   .     S
C1545  H1547   1.110   .     S
C1545  H1548   1.111   .     S
C1545  H1374   1.107   1_655 S
