data_str_m3_o2_o10_pcu_sym.44
_audit_creation_date              2020-01-03
_audit_creation_method            'Materials Studio'
_symmetry_space_group_name_H-M    'P1'
_symmetry_Int_Tables_number       1
_symmetry_cell_setting            triclinic
loop_
_symmetry_equiv_pos_as_xyz
  x,y,z
_cell_length_a                    25.7612
_cell_length_b                    29.9578
_cell_length_c                    28.4535
_cell_angle_alpha                 90.1529
_cell_angle_beta                  98.6464
_cell_angle_gamma                 90.3351
loop_
_atom_site_label
_atom_site_type_symbol
_atom_site_fract_x
_atom_site_fract_y
_atom_site_fract_z
_atom_site_U_iso_or_equiv
_atom_site_adp_type
_atom_site_occupancy
C1     C     0.16638   0.16394   0.24988   0.00000  Uiso   1.00
C2     C     0.14646   0.21352   0.44451   0.00000  Uiso   1.00
C3     C     0.16653   0.24997   0.02657   0.00000  Uiso   1.00
C4     C     0.16643   0.24998   0.47330   0.00000  Uiso   1.00
C5     C     0.06706   0.24970   0.23757   0.00000  Uiso   1.00
C6     C     0.26629   0.24995   0.26245   0.00000  Uiso   1.00
C7     C     0.01204   0.24888   0.23094   0.00000  Uiso   1.00
C8     C     0.32135   0.25008   0.26917   0.00000  Uiso   1.00
C9     C     0.13912   0.04719   0.28242   0.00000  Uiso   1.00
C10    C     0.13905   0.45226   0.20926   0.00000  Uiso   1.00
C11    C     0.14065   0.09328   0.28299   0.00000  Uiso   1.00
C12    C     0.16653   0.33606   0.25001   0.00000  Uiso   1.00
C13    C     0.14057   0.40618   0.20949   0.00000  Uiso   1.00
C14    C     0.16516   0.11603   0.24943   0.00000  Uiso   1.00
C15    C     0.16537   0.38397   0.24982   0.00000  Uiso   1.00
C16    C     0.18806   0.09287   0.21515   0.00000  Uiso   1.00
C17    C     0.18891   0.40766   0.28987   0.00000  Uiso   1.00
C18    C     0.18735   0.04676   0.21497   0.00000  Uiso   1.00
C19    C     0.18821   0.45375   0.28947   0.00000  Uiso   1.00
C20    C     0.16287   0.02401   0.24864   0.00000  Uiso   1.00
C21    C     0.16314   0.47596   0.24919   0.00000  Uiso   1.00
C22    C     0.08042   0.17060   0.11177   0.00000  Uiso   1.00
C23    C     0.12243   0.23547   0.04639   0.00000  Uiso   1.00
C24    C     0.26622   0.31725   0.39096   0.00000  Uiso   1.00
C25    C     0.18641   0.28649   0.45035   0.00000  Uiso   1.00
C26    C     0.12417   0.23354   0.09630   0.00000  Uiso   1.00
C27    C     0.18880   0.28489   0.40101   0.00000  Uiso   1.00
C28    C     0.20911   0.26589   0.10773   0.00000  Uiso   1.00
C29    C     0.14546   0.21485   0.39491   0.00000  Uiso   1.00
C30    C     0.21059   0.26467   0.05849   0.00000  Uiso   1.00
F31    F     0.11432   0.02518   0.31441   0.00000  Uiso   1.00
F32    F     0.12879   0.17620   0.46412   0.00000  Uiso   1.00
F33    F     0.11383   0.47375   0.17053   0.00000  Uiso   1.00
F34    F     0.21138   0.02432   0.18280   0.00000  Uiso   1.00
F35    F     0.21270   0.47670   0.32782   0.00000  Uiso   1.00
F36    F     0.07708   0.22452   0.01776   0.00000  Uiso   1.00
F37    F     0.20218   0.32424   0.47509   0.00000  Uiso   1.00
F38    F     0.25063   0.28342   0.13682   0.00000  Uiso   1.00
F39    F     0.12329   0.18041   0.36806   0.00000  Uiso   1.00
F40    F     0.25548   0.27726   0.04244   0.00000  Uiso   1.00
H41    H     0.32484   0.24719   0.19471   0.00000  Uiso   1.00
H42    H     0.28409   0.34101   0.36809   0.00000  Uiso   1.00
H43    H     0.28113   0.28337   0.38412   0.00000  Uiso   1.00
H44    H     0.27952   0.32714   0.42853   0.00000  Uiso   1.00
H45    H     0.00863   0.25148   0.30545   0.00000  Uiso   1.00
H46    H     0.12208   0.11113   0.30906   0.00000  Uiso   1.00
H47    H     0.12179   0.38787   0.17859   0.00000  Uiso   1.00
H48    H     0.20730   0.11043   0.18925   0.00000  Uiso   1.00
H49    H     0.20864   0.39059   0.32092   0.00000  Uiso   1.00
H50    H     0.05072   0.15766   0.13285   0.00000  Uiso   1.00
H51    H     0.11887   0.15568   0.12670   0.00000  Uiso   1.00
H52    H     0.06862   0.15938   0.07442   0.00000  Uiso   1.00
N53    N     0.16667   0.24999   0.12623   0.00000  Uiso   1.00
N54    N     0.16667   0.25001   0.37376   0.00000  Uiso   1.00
O55    O     0.16667   0.18454   0.28974   0.00000  Uiso   1.00
O56    O     0.21109   0.31985   0.37955   0.00000  Uiso   1.00
O57    O     0.16666   0.31547   0.21026   0.00000  Uiso   1.00
O58    O     0.16667   0.18453   0.21026   0.00000  Uiso   1.00
O59    O     0.16666   0.31547   0.28974   0.00000  Uiso   1.00
O60    O     0.09058   0.25000   0.28044   0.00000  Uiso   1.00
O61    O     0.24275   0.25000   0.21955   0.00000  Uiso   1.00
O62    O     0.09058   0.25000   0.20096   0.00000  Uiso   1.00
O63    O     0.24275   0.25001   0.29903   0.00000  Uiso   1.00
O64    O     0.08131   0.21760   0.11499   0.00000  Uiso   1.00
Zn65   Zn    0.16667   0.25001   0.30307   0.00000  Uiso   1.00
Zn66   Zn    0.16667   0.25000   0.19693   0.00000  Uiso   1.00
C67    C     0.49972   0.16394   0.24988   0.00000  Uiso   1.00
C68    C     0.47979   0.21352   0.44451   0.00000  Uiso   1.00
C69    C     0.49986   0.24997   0.02657   0.00000  Uiso   1.00
C70    C     0.49976   0.24998   0.47330   0.00000  Uiso   1.00
C71    C     0.40040   0.24970   0.23757   0.00000  Uiso   1.00
C72    C     0.59962   0.24995   0.26245   0.00000  Uiso   1.00
C73    C     0.34538   0.24888   0.23094   0.00000  Uiso   1.00
C74    C     0.65468   0.25008   0.26917   0.00000  Uiso   1.00
C75    C     0.47245   0.04719   0.28242   0.00000  Uiso   1.00
C76    C     0.47239   0.45226   0.20926   0.00000  Uiso   1.00
C77    C     0.47398   0.09328   0.28299   0.00000  Uiso   1.00
C78    C     0.49986   0.33606   0.25001   0.00000  Uiso   1.00
C79    C     0.47391   0.40618   0.20949   0.00000  Uiso   1.00
C80    C     0.49849   0.11603   0.24943   0.00000  Uiso   1.00
C81    C     0.49871   0.38397   0.24982   0.00000  Uiso   1.00
C82    C     0.52140   0.09287   0.21515   0.00000  Uiso   1.00
C83    C     0.52224   0.40766   0.28987   0.00000  Uiso   1.00
C84    C     0.52069   0.04676   0.21497   0.00000  Uiso   1.00
C85    C     0.52155   0.45375   0.28947   0.00000  Uiso   1.00
C86    C     0.49621   0.02401   0.24864   0.00000  Uiso   1.00
C87    C     0.49648   0.47596   0.24919   0.00000  Uiso   1.00
C88    C     0.41375   0.17060   0.11177   0.00000  Uiso   1.00
C89    C     0.45577   0.23547   0.04639   0.00000  Uiso   1.00
C90    C     0.59955   0.31725   0.39096   0.00000  Uiso   1.00
C91    C     0.51974   0.28649   0.45035   0.00000  Uiso   1.00
C92    C     0.45750   0.23354   0.09630   0.00000  Uiso   1.00
C93    C     0.52214   0.28489   0.40101   0.00000  Uiso   1.00
C94    C     0.54244   0.26589   0.10773   0.00000  Uiso   1.00
C95    C     0.47880   0.21485   0.39491   0.00000  Uiso   1.00
C96    C     0.54392   0.26467   0.05849   0.00000  Uiso   1.00
F97    F     0.44765   0.02518   0.31441   0.00000  Uiso   1.00
F98    F     0.46213   0.17620   0.46412   0.00000  Uiso   1.00
F99    F     0.44716   0.47375   0.17053   0.00000  Uiso   1.00
F100   F     0.54471   0.02432   0.18280   0.00000  Uiso   1.00
F101   F     0.54603   0.47670   0.32782   0.00000  Uiso   1.00
F102   F     0.41041   0.22452   0.01776   0.00000  Uiso   1.00
F103   F     0.53552   0.32424   0.47509   0.00000  Uiso   1.00
F104   F     0.58397   0.28342   0.13682   0.00000  Uiso   1.00
F105   F     0.45662   0.18041   0.36806   0.00000  Uiso   1.00
F106   F     0.58881   0.27726   0.04244   0.00000  Uiso   1.00
H107   H     0.65818   0.24719   0.19471   0.00000  Uiso   1.00
H108   H     0.61742   0.34101   0.36809   0.00000  Uiso   1.00
H109   H     0.61446   0.28337   0.38412   0.00000  Uiso   1.00
H110   H     0.61285   0.32714   0.42853   0.00000  Uiso   1.00
H111   H     0.34196   0.25148   0.30545   0.00000  Uiso   1.00
H112   H     0.45542   0.11113   0.30906   0.00000  Uiso   1.00
H113   H     0.45513   0.38787   0.17859   0.00000  Uiso   1.00
H114   H     0.54063   0.11043   0.18925   0.00000  Uiso   1.00
H115   H     0.54198   0.39059   0.32092   0.00000  Uiso   1.00
H116   H     0.38406   0.15766   0.13285   0.00000  Uiso   1.00
H117   H     0.45220   0.15568   0.12670   0.00000  Uiso   1.00
H118   H     0.40196   0.15938   0.07442   0.00000  Uiso   1.00
N119   N     0.50000   0.24999   0.12623   0.00000  Uiso   1.00
N120   N     0.50000   0.25001   0.37376   0.00000  Uiso   1.00
O121   O     0.50000   0.18454   0.28974   0.00000  Uiso   1.00
O122   O     0.54442   0.31985   0.37955   0.00000  Uiso   1.00
O123   O     0.50000   0.31547   0.21026   0.00000  Uiso   1.00
O124   O     0.50000   0.18453   0.21026   0.00000  Uiso   1.00
O125   O     0.50000   0.31547   0.28974   0.00000  Uiso   1.00
O126   O     0.42392   0.25000   0.28044   0.00000  Uiso   1.00
O127   O     0.57608   0.25000   0.21955   0.00000  Uiso   1.00
O128   O     0.42392   0.25000   0.20096   0.00000  Uiso   1.00
O129   O     0.57608   0.25001   0.29903   0.00000  Uiso   1.00
O130   O     0.41464   0.21760   0.11499   0.00000  Uiso   1.00
Zn131  Zn    0.50000   0.25001   0.30307   0.00000  Uiso   1.00
Zn132  Zn    0.50000   0.25000   0.19693   0.00000  Uiso   1.00
C133   C     0.83305   0.16394   0.24988   0.00000  Uiso   1.00
C134   C     0.81313   0.21352   0.44451   0.00000  Uiso   1.00
C135   C     0.83319   0.24997   0.02657   0.00000  Uiso   1.00
C136   C     0.83310   0.24998   0.47330   0.00000  Uiso   1.00
C137   C     0.73373   0.24970   0.23757   0.00000  Uiso   1.00
C138   C     0.93295   0.24995   0.26245   0.00000  Uiso   1.00
C139   C     0.67871   0.24888   0.23094   0.00000  Uiso   1.00
C140   C     0.98802   0.25008   0.26917   0.00000  Uiso   1.00
C141   C     0.80578   0.04719   0.28242   0.00000  Uiso   1.00
C142   C     0.80572   0.45226   0.20926   0.00000  Uiso   1.00
C143   C     0.80732   0.09328   0.28299   0.00000  Uiso   1.00
C144   C     0.83319   0.33606   0.25001   0.00000  Uiso   1.00
C145   C     0.80724   0.40618   0.20949   0.00000  Uiso   1.00
C146   C     0.83183   0.11603   0.24943   0.00000  Uiso   1.00
C147   C     0.83204   0.38397   0.24982   0.00000  Uiso   1.00
C148   C     0.85473   0.09287   0.21515   0.00000  Uiso   1.00
C149   C     0.85558   0.40766   0.28987   0.00000  Uiso   1.00
C150   C     0.85402   0.04676   0.21497   0.00000  Uiso   1.00
C151   C     0.85488   0.45375   0.28947   0.00000  Uiso   1.00
C152   C     0.82954   0.02401   0.24864   0.00000  Uiso   1.00
C153   C     0.82981   0.47596   0.24919   0.00000  Uiso   1.00
C154   C     0.74709   0.17060   0.11177   0.00000  Uiso   1.00
C155   C     0.78910   0.23547   0.04639   0.00000  Uiso   1.00
C156   C     0.93288   0.31725   0.39096   0.00000  Uiso   1.00
C157   C     0.85308   0.28649   0.45035   0.00000  Uiso   1.00
C158   C     0.79084   0.23354   0.09630   0.00000  Uiso   1.00
C159   C     0.85547   0.28489   0.40101   0.00000  Uiso   1.00
C160   C     0.87577   0.26589   0.10773   0.00000  Uiso   1.00
C161   C     0.81213   0.21485   0.39491   0.00000  Uiso   1.00
C162   C     0.87726   0.26467   0.05849   0.00000  Uiso   1.00
F163   F     0.78098   0.02518   0.31441   0.00000  Uiso   1.00
F164   F     0.79546   0.17620   0.46412   0.00000  Uiso   1.00
F165   F     0.78049   0.47375   0.17053   0.00000  Uiso   1.00
F166   F     0.87804   0.02432   0.18280   0.00000  Uiso   1.00
F167   F     0.87937   0.47670   0.32782   0.00000  Uiso   1.00
F168   F     0.74375   0.22452   0.01776   0.00000  Uiso   1.00
F169   F     0.86885   0.32424   0.47509   0.00000  Uiso   1.00
F170   F     0.91730   0.28342   0.13682   0.00000  Uiso   1.00
F171   F     0.78996   0.18041   0.36806   0.00000  Uiso   1.00
F172   F     0.92215   0.27726   0.04244   0.00000  Uiso   1.00
H173   H     0.99151   0.24719   0.19471   0.00000  Uiso   1.00
H174   H     0.95075   0.34101   0.36809   0.00000  Uiso   1.00
H175   H     0.94779   0.28337   0.38412   0.00000  Uiso   1.00
H176   H     0.94619   0.32714   0.42853   0.00000  Uiso   1.00
H177   H     0.67530   0.25148   0.30545   0.00000  Uiso   1.00
H178   H     0.78875   0.11113   0.30906   0.00000  Uiso   1.00
H179   H     0.78846   0.38787   0.17859   0.00000  Uiso   1.00
H180   H     0.87397   0.11043   0.18925   0.00000  Uiso   1.00
H181   H     0.87531   0.39059   0.32092   0.00000  Uiso   1.00
H182   H     0.71739   0.15766   0.13285   0.00000  Uiso   1.00
H183   H     0.78553   0.15568   0.12670   0.00000  Uiso   1.00
H184   H     0.73529   0.15938   0.07442   0.00000  Uiso   1.00
N185   N     0.83333   0.24999   0.12623   0.00000  Uiso   1.00
N186   N     0.83333   0.25001   0.37376   0.00000  Uiso   1.00
O187   O     0.83334   0.18454   0.28974   0.00000  Uiso   1.00
O188   O     0.87776   0.31985   0.37955   0.00000  Uiso   1.00
O189   O     0.83333   0.31547   0.21026   0.00000  Uiso   1.00
O190   O     0.83334   0.18453   0.21026   0.00000  Uiso   1.00
O191   O     0.83333   0.31547   0.28974   0.00000  Uiso   1.00
O192   O     0.75725   0.25000   0.28044   0.00000  Uiso   1.00
O193   O     0.90942   0.25000   0.21955   0.00000  Uiso   1.00
O194   O     0.75725   0.25000   0.20096   0.00000  Uiso   1.00
O195   O     0.90942   0.25001   0.29903   0.00000  Uiso   1.00
O196   O     0.74797   0.21760   0.11499   0.00000  Uiso   1.00
Zn197  Zn    0.83333   0.25001   0.30307   0.00000  Uiso   1.00
Zn198  Zn    0.83333   0.25000   0.19693   0.00000  Uiso   1.00
C199   C     0.16638   0.66394   0.24988   0.00000  Uiso   1.00
C200   C     0.14646   0.71352   0.44451   0.00000  Uiso   1.00
C201   C     0.16653   0.74997   0.02657   0.00000  Uiso   1.00
C202   C     0.16643   0.74998   0.47330   0.00000  Uiso   1.00
C203   C     0.06706   0.74970   0.23757   0.00000  Uiso   1.00
C204   C     0.26629   0.74995   0.26245   0.00000  Uiso   1.00
C205   C     0.01204   0.74888   0.23094   0.00000  Uiso   1.00
C206   C     0.32135   0.75008   0.26917   0.00000  Uiso   1.00
C207   C     0.13912   0.54719   0.28242   0.00000  Uiso   1.00
C208   C     0.13905   0.95226   0.20926   0.00000  Uiso   1.00
C209   C     0.14065   0.59328   0.28299   0.00000  Uiso   1.00
C210   C     0.16653   0.83606   0.25001   0.00000  Uiso   1.00
C211   C     0.14057   0.90618   0.20949   0.00000  Uiso   1.00
C212   C     0.16516   0.61603   0.24943   0.00000  Uiso   1.00
C213   C     0.16537   0.88397   0.24982   0.00000  Uiso   1.00
C214   C     0.18806   0.59287   0.21515   0.00000  Uiso   1.00
C215   C     0.18891   0.90766   0.28987   0.00000  Uiso   1.00
C216   C     0.18735   0.54676   0.21497   0.00000  Uiso   1.00
C217   C     0.18821   0.95375   0.28947   0.00000  Uiso   1.00
C218   C     0.16287   0.52401   0.24864   0.00000  Uiso   1.00
C219   C     0.16314   0.97596   0.24919   0.00000  Uiso   1.00
C220   C     0.08042   0.67060   0.11177   0.00000  Uiso   1.00
C221   C     0.12243   0.73547   0.04639   0.00000  Uiso   1.00
C222   C     0.26622   0.81725   0.39096   0.00000  Uiso   1.00
C223   C     0.18641   0.78649   0.45035   0.00000  Uiso   1.00
C224   C     0.12417   0.73354   0.09630   0.00000  Uiso   1.00
C225   C     0.18880   0.78489   0.40101   0.00000  Uiso   1.00
C226   C     0.20911   0.76589   0.10773   0.00000  Uiso   1.00
C227   C     0.14546   0.71485   0.39491   0.00000  Uiso   1.00
C228   C     0.21059   0.76467   0.05849   0.00000  Uiso   1.00
F229   F     0.11432   0.52518   0.31441   0.00000  Uiso   1.00
F230   F     0.12879   0.67620   0.46412   0.00000  Uiso   1.00
F231   F     0.11383   0.97375   0.17053   0.00000  Uiso   1.00
F232   F     0.21138   0.52432   0.18280   0.00000  Uiso   1.00
F233   F     0.21270   0.97670   0.32782   0.00000  Uiso   1.00
F234   F     0.07708   0.72452   0.01776   0.00000  Uiso   1.00
F235   F     0.20218   0.82424   0.47509   0.00000  Uiso   1.00
F236   F     0.25063   0.78342   0.13682   0.00000  Uiso   1.00
F237   F     0.12329   0.68041   0.36806   0.00000  Uiso   1.00
F238   F     0.25548   0.77726   0.04244   0.00000  Uiso   1.00
H239   H     0.32484   0.74719   0.19471   0.00000  Uiso   1.00
H240   H     0.28409   0.84101   0.36809   0.00000  Uiso   1.00
H241   H     0.28113   0.78337   0.38412   0.00000  Uiso   1.00
H242   H     0.27952   0.82714   0.42853   0.00000  Uiso   1.00
H243   H     0.00863   0.75148   0.30545   0.00000  Uiso   1.00
H244   H     0.12208   0.61113   0.30906   0.00000  Uiso   1.00
H245   H     0.12179   0.88787   0.17859   0.00000  Uiso   1.00
H246   H     0.20730   0.61043   0.18925   0.00000  Uiso   1.00
H247   H     0.20864   0.89059   0.32092   0.00000  Uiso   1.00
H248   H     0.05072   0.65766   0.13285   0.00000  Uiso   1.00
H249   H     0.11887   0.65568   0.12670   0.00000  Uiso   1.00
H250   H     0.06862   0.65938   0.07442   0.00000  Uiso   1.00
N251   N     0.16667   0.74999   0.12623   0.00000  Uiso   1.00
N252   N     0.16667   0.75001   0.37376   0.00000  Uiso   1.00
O253   O     0.16667   0.68454   0.28974   0.00000  Uiso   1.00
O254   O     0.21109   0.81985   0.37955   0.00000  Uiso   1.00
O255   O     0.16666   0.81547   0.21026   0.00000  Uiso   1.00
O256   O     0.16667   0.68453   0.21026   0.00000  Uiso   1.00
O257   O     0.16666   0.81547   0.28974   0.00000  Uiso   1.00
O258   O     0.09058   0.75000   0.28044   0.00000  Uiso   1.00
O259   O     0.24275   0.75000   0.21955   0.00000  Uiso   1.00
O260   O     0.09058   0.75000   0.20096   0.00000  Uiso   1.00
O261   O     0.24275   0.75001   0.29903   0.00000  Uiso   1.00
O262   O     0.08131   0.71760   0.11499   0.00000  Uiso   1.00
Zn263  Zn    0.16667   0.75001   0.30307   0.00000  Uiso   1.00
Zn264  Zn    0.16667   0.75000   0.19693   0.00000  Uiso   1.00
C265   C     0.49972   0.66394   0.24988   0.00000  Uiso   1.00
C266   C     0.47979   0.71352   0.44451   0.00000  Uiso   1.00
C267   C     0.49986   0.74997   0.02657   0.00000  Uiso   1.00
C268   C     0.49976   0.74998   0.47330   0.00000  Uiso   1.00
C269   C     0.40040   0.74970   0.23757   0.00000  Uiso   1.00
C270   C     0.59962   0.74995   0.26245   0.00000  Uiso   1.00
C271   C     0.34538   0.74888   0.23094   0.00000  Uiso   1.00
C272   C     0.65468   0.75008   0.26917   0.00000  Uiso   1.00
C273   C     0.47245   0.54719   0.28242   0.00000  Uiso   1.00
C274   C     0.47239   0.95226   0.20926   0.00000  Uiso   1.00
C275   C     0.47398   0.59328   0.28299   0.00000  Uiso   1.00
C276   C     0.49986   0.83606   0.25001   0.00000  Uiso   1.00
C277   C     0.47391   0.90618   0.20949   0.00000  Uiso   1.00
C278   C     0.49849   0.61603   0.24943   0.00000  Uiso   1.00
C279   C     0.49871   0.88397   0.24982   0.00000  Uiso   1.00
C280   C     0.52140   0.59287   0.21515   0.00000  Uiso   1.00
C281   C     0.52224   0.90766   0.28987   0.00000  Uiso   1.00
C282   C     0.52069   0.54676   0.21497   0.00000  Uiso   1.00
C283   C     0.52155   0.95375   0.28947   0.00000  Uiso   1.00
C284   C     0.49621   0.52401   0.24864   0.00000  Uiso   1.00
C285   C     0.49648   0.97596   0.24919   0.00000  Uiso   1.00
C286   C     0.41375   0.67060   0.11177   0.00000  Uiso   1.00
C287   C     0.45577   0.73547   0.04639   0.00000  Uiso   1.00
C288   C     0.59955   0.81725   0.39096   0.00000  Uiso   1.00
C289   C     0.51974   0.78649   0.45035   0.00000  Uiso   1.00
C290   C     0.45750   0.73354   0.09630   0.00000  Uiso   1.00
C291   C     0.52214   0.78489   0.40101   0.00000  Uiso   1.00
C292   C     0.54244   0.76589   0.10773   0.00000  Uiso   1.00
C293   C     0.47880   0.71485   0.39491   0.00000  Uiso   1.00
C294   C     0.54392   0.76467   0.05849   0.00000  Uiso   1.00
F295   F     0.44765   0.52518   0.31441   0.00000  Uiso   1.00
F296   F     0.46213   0.67620   0.46412   0.00000  Uiso   1.00
F297   F     0.44716   0.97375   0.17053   0.00000  Uiso   1.00
F298   F     0.54471   0.52432   0.18280   0.00000  Uiso   1.00
F299   F     0.54603   0.97670   0.32782   0.00000  Uiso   1.00
F300   F     0.41041   0.72452   0.01776   0.00000  Uiso   1.00
F301   F     0.53552   0.82424   0.47509   0.00000  Uiso   1.00
F302   F     0.58397   0.78342   0.13682   0.00000  Uiso   1.00
F303   F     0.45662   0.68041   0.36806   0.00000  Uiso   1.00
F304   F     0.58881   0.77726   0.04244   0.00000  Uiso   1.00
H305   H     0.65818   0.74719   0.19471   0.00000  Uiso   1.00
H306   H     0.61742   0.84101   0.36809   0.00000  Uiso   1.00
H307   H     0.61446   0.78337   0.38412   0.00000  Uiso   1.00
H308   H     0.61285   0.82714   0.42853   0.00000  Uiso   1.00
H309   H     0.34196   0.75148   0.30545   0.00000  Uiso   1.00
H310   H     0.45542   0.61113   0.30906   0.00000  Uiso   1.00
H311   H     0.45513   0.88787   0.17859   0.00000  Uiso   1.00
H312   H     0.54063   0.61043   0.18925   0.00000  Uiso   1.00
H313   H     0.54198   0.89059   0.32092   0.00000  Uiso   1.00
H314   H     0.38406   0.65766   0.13285   0.00000  Uiso   1.00
H315   H     0.45220   0.65568   0.12670   0.00000  Uiso   1.00
H316   H     0.40196   0.65938   0.07442   0.00000  Uiso   1.00
N317   N     0.50000   0.74999   0.12623   0.00000  Uiso   1.00
N318   N     0.50000   0.75001   0.37376   0.00000  Uiso   1.00
O319   O     0.50000   0.68454   0.28974   0.00000  Uiso   1.00
O320   O     0.54442   0.81985   0.37955   0.00000  Uiso   1.00
O321   O     0.50000   0.81547   0.21026   0.00000  Uiso   1.00
O322   O     0.50000   0.68453   0.21026   0.00000  Uiso   1.00
O323   O     0.50000   0.81547   0.28974   0.00000  Uiso   1.00
O324   O     0.42392   0.75000   0.28044   0.00000  Uiso   1.00
O325   O     0.57608   0.75000   0.21955   0.00000  Uiso   1.00
O326   O     0.42392   0.75000   0.20096   0.00000  Uiso   1.00
O327   O     0.57608   0.75001   0.29903   0.00000  Uiso   1.00
O328   O     0.41464   0.71760   0.11499   0.00000  Uiso   1.00
Zn329  Zn    0.50000   0.75001   0.30307   0.00000  Uiso   1.00
Zn330  Zn    0.50000   0.75000   0.19693   0.00000  Uiso   1.00
C331   C     0.83305   0.66394   0.24988   0.00000  Uiso   1.00
C332   C     0.81313   0.71352   0.44451   0.00000  Uiso   1.00
C333   C     0.83319   0.74997   0.02657   0.00000  Uiso   1.00
C334   C     0.83310   0.74998   0.47330   0.00000  Uiso   1.00
C335   C     0.73373   0.74970   0.23757   0.00000  Uiso   1.00
C336   C     0.93295   0.74995   0.26245   0.00000  Uiso   1.00
C337   C     0.67871   0.74888   0.23094   0.00000  Uiso   1.00
C338   C     0.98802   0.75008   0.26917   0.00000  Uiso   1.00
C339   C     0.80578   0.54719   0.28242   0.00000  Uiso   1.00
C340   C     0.80572   0.95226   0.20926   0.00000  Uiso   1.00
C341   C     0.80732   0.59328   0.28299   0.00000  Uiso   1.00
C342   C     0.83319   0.83606   0.25001   0.00000  Uiso   1.00
C343   C     0.80724   0.90618   0.20949   0.00000  Uiso   1.00
C344   C     0.83183   0.61603   0.24943   0.00000  Uiso   1.00
C345   C     0.83204   0.88397   0.24982   0.00000  Uiso   1.00
C346   C     0.85473   0.59287   0.21515   0.00000  Uiso   1.00
C347   C     0.85558   0.90766   0.28987   0.00000  Uiso   1.00
C348   C     0.85402   0.54676   0.21497   0.00000  Uiso   1.00
C349   C     0.85488   0.95375   0.28947   0.00000  Uiso   1.00
C350   C     0.82954   0.52401   0.24864   0.00000  Uiso   1.00
C351   C     0.82981   0.97596   0.24919   0.00000  Uiso   1.00
C352   C     0.74709   0.67060   0.11177   0.00000  Uiso   1.00
C353   C     0.78910   0.73547   0.04639   0.00000  Uiso   1.00
C354   C     0.93288   0.81725   0.39096   0.00000  Uiso   1.00
C355   C     0.85308   0.78649   0.45035   0.00000  Uiso   1.00
C356   C     0.79084   0.73354   0.09630   0.00000  Uiso   1.00
C357   C     0.85547   0.78489   0.40101   0.00000  Uiso   1.00
C358   C     0.87577   0.76589   0.10773   0.00000  Uiso   1.00
C359   C     0.81213   0.71485   0.39491   0.00000  Uiso   1.00
C360   C     0.87726   0.76467   0.05849   0.00000  Uiso   1.00
F361   F     0.78098   0.52518   0.31441   0.00000  Uiso   1.00
F362   F     0.79546   0.67620   0.46412   0.00000  Uiso   1.00
F363   F     0.78049   0.97375   0.17053   0.00000  Uiso   1.00
F364   F     0.87804   0.52432   0.18280   0.00000  Uiso   1.00
F365   F     0.87937   0.97670   0.32782   0.00000  Uiso   1.00
F366   F     0.74375   0.72452   0.01776   0.00000  Uiso   1.00
F367   F     0.86885   0.82424   0.47509   0.00000  Uiso   1.00
F368   F     0.91730   0.78342   0.13682   0.00000  Uiso   1.00
F369   F     0.78996   0.68041   0.36806   0.00000  Uiso   1.00
F370   F     0.92215   0.77726   0.04244   0.00000  Uiso   1.00
H371   H     0.99151   0.74719   0.19471   0.00000  Uiso   1.00
H372   H     0.95075   0.84101   0.36809   0.00000  Uiso   1.00
H373   H     0.94779   0.78337   0.38412   0.00000  Uiso   1.00
H374   H     0.94619   0.82714   0.42853   0.00000  Uiso   1.00
H375   H     0.67530   0.75148   0.30545   0.00000  Uiso   1.00
H376   H     0.78875   0.61113   0.30906   0.00000  Uiso   1.00
H377   H     0.78846   0.88787   0.17859   0.00000  Uiso   1.00
H378   H     0.87397   0.61043   0.18925   0.00000  Uiso   1.00
H379   H     0.87531   0.89059   0.32092   0.00000  Uiso   1.00
H380   H     0.71739   0.65766   0.13285   0.00000  Uiso   1.00
H381   H     0.78553   0.65568   0.12670   0.00000  Uiso   1.00
H382   H     0.73529   0.65938   0.07442   0.00000  Uiso   1.00
N383   N     0.83333   0.74999   0.12623   0.00000  Uiso   1.00
N384   N     0.83333   0.75001   0.37376   0.00000  Uiso   1.00
O385   O     0.83334   0.68454   0.28974   0.00000  Uiso   1.00
O386   O     0.87776   0.81985   0.37955   0.00000  Uiso   1.00
O387   O     0.83333   0.81547   0.21026   0.00000  Uiso   1.00
O388   O     0.83334   0.68453   0.21026   0.00000  Uiso   1.00
O389   O     0.83333   0.81547   0.28974   0.00000  Uiso   1.00
O390   O     0.75725   0.75000   0.28044   0.00000  Uiso   1.00
O391   O     0.90942   0.75000   0.21955   0.00000  Uiso   1.00
O392   O     0.75725   0.75000   0.20096   0.00000  Uiso   1.00
O393   O     0.90942   0.75001   0.29903   0.00000  Uiso   1.00
O394   O     0.74797   0.71760   0.11499   0.00000  Uiso   1.00
Zn395  Zn    0.83333   0.75001   0.30307   0.00000  Uiso   1.00
Zn396  Zn    0.83333   0.75000   0.19693   0.00000  Uiso   1.00
C397   C     0.16638   0.16394   0.74988   0.00000  Uiso   1.00
C398   C     0.14646   0.21352   0.94451   0.00000  Uiso   1.00
C399   C     0.16653   0.24997   0.52657   0.00000  Uiso   1.00
C400   C     0.16643   0.24998   0.97330   0.00000  Uiso   1.00
C401   C     0.06706   0.24970   0.73757   0.00000  Uiso   1.00
C402   C     0.26629   0.24995   0.76245   0.00000  Uiso   1.00
C403   C     0.01204   0.24888   0.73094   0.00000  Uiso   1.00
C404   C     0.32135   0.25008   0.76917   0.00000  Uiso   1.00
C405   C     0.13912   0.04719   0.78242   0.00000  Uiso   1.00
C406   C     0.13905   0.45226   0.70926   0.00000  Uiso   1.00
C407   C     0.14065   0.09328   0.78299   0.00000  Uiso   1.00
C408   C     0.16653   0.33606   0.75001   0.00000  Uiso   1.00
C409   C     0.14057   0.40618   0.70949   0.00000  Uiso   1.00
C410   C     0.16516   0.11603   0.74943   0.00000  Uiso   1.00
C411   C     0.16537   0.38397   0.74982   0.00000  Uiso   1.00
C412   C     0.18806   0.09287   0.71515   0.00000  Uiso   1.00
C413   C     0.18891   0.40766   0.78987   0.00000  Uiso   1.00
C414   C     0.18735   0.04676   0.71497   0.00000  Uiso   1.00
C415   C     0.18821   0.45375   0.78947   0.00000  Uiso   1.00
C416   C     0.16287   0.02401   0.74864   0.00000  Uiso   1.00
C417   C     0.16314   0.47596   0.74919   0.00000  Uiso   1.00
C418   C     0.08042   0.17060   0.61177   0.00000  Uiso   1.00
C419   C     0.12243   0.23547   0.54639   0.00000  Uiso   1.00
C420   C     0.26622   0.31725   0.89096   0.00000  Uiso   1.00
C421   C     0.18641   0.28649   0.95035   0.00000  Uiso   1.00
C422   C     0.12417   0.23354   0.59630   0.00000  Uiso   1.00
C423   C     0.18880   0.28489   0.90101   0.00000  Uiso   1.00
C424   C     0.20911   0.26589   0.60773   0.00000  Uiso   1.00
C425   C     0.14546   0.21485   0.89491   0.00000  Uiso   1.00
C426   C     0.21059   0.26467   0.55849   0.00000  Uiso   1.00
F427   F     0.11432   0.02518   0.81441   0.00000  Uiso   1.00
F428   F     0.12879   0.17620   0.96412   0.00000  Uiso   1.00
F429   F     0.11383   0.47375   0.67053   0.00000  Uiso   1.00
F430   F     0.21138   0.02432   0.68280   0.00000  Uiso   1.00
F431   F     0.21270   0.47670   0.82782   0.00000  Uiso   1.00
F432   F     0.07708   0.22452   0.51776   0.00000  Uiso   1.00
F433   F     0.20218   0.32424   0.97509   0.00000  Uiso   1.00
F434   F     0.25063   0.28342   0.63682   0.00000  Uiso   1.00
F435   F     0.12329   0.18041   0.86806   0.00000  Uiso   1.00
F436   F     0.25548   0.27726   0.54244   0.00000  Uiso   1.00
H437   H     0.32484   0.24719   0.69471   0.00000  Uiso   1.00
H438   H     0.28409   0.34101   0.86809   0.00000  Uiso   1.00
H439   H     0.28113   0.28337   0.88412   0.00000  Uiso   1.00
H440   H     0.27952   0.32714   0.92853   0.00000  Uiso   1.00
H441   H     0.00863   0.25148   0.80545   0.00000  Uiso   1.00
H442   H     0.12208   0.11113   0.80906   0.00000  Uiso   1.00
H443   H     0.12179   0.38787   0.67859   0.00000  Uiso   1.00
H444   H     0.20730   0.11043   0.68925   0.00000  Uiso   1.00
H445   H     0.20864   0.39059   0.82092   0.00000  Uiso   1.00
H446   H     0.05072   0.15766   0.63285   0.00000  Uiso   1.00
H447   H     0.11887   0.15568   0.62670   0.00000  Uiso   1.00
H448   H     0.06862   0.15938   0.57442   0.00000  Uiso   1.00
N449   N     0.16667   0.24999   0.62623   0.00000  Uiso   1.00
N450   N     0.16667   0.25001   0.87376   0.00000  Uiso   1.00
O451   O     0.16667   0.18454   0.78974   0.00000  Uiso   1.00
O452   O     0.21109   0.31985   0.87955   0.00000  Uiso   1.00
O453   O     0.16666   0.31547   0.71026   0.00000  Uiso   1.00
O454   O     0.16667   0.18453   0.71026   0.00000  Uiso   1.00
O455   O     0.16666   0.31547   0.78974   0.00000  Uiso   1.00
O456   O     0.09058   0.25000   0.78044   0.00000  Uiso   1.00
O457   O     0.24275   0.25000   0.71955   0.00000  Uiso   1.00
O458   O     0.09058   0.25000   0.70096   0.00000  Uiso   1.00
O459   O     0.24275   0.25001   0.79903   0.00000  Uiso   1.00
O460   O     0.08131   0.21760   0.61499   0.00000  Uiso   1.00
Zn461  Zn    0.16667   0.25001   0.80307   0.00000  Uiso   1.00
Zn462  Zn    0.16667   0.25000   0.69693   0.00000  Uiso   1.00
C463   C     0.49972   0.16394   0.74988   0.00000  Uiso   1.00
C464   C     0.47979   0.21352   0.94451   0.00000  Uiso   1.00
C465   C     0.49986   0.24997   0.52657   0.00000  Uiso   1.00
C466   C     0.49976   0.24998   0.97330   0.00000  Uiso   1.00
C467   C     0.40040   0.24970   0.73757   0.00000  Uiso   1.00
C468   C     0.59962   0.24995   0.76245   0.00000  Uiso   1.00
C469   C     0.34538   0.24888   0.73094   0.00000  Uiso   1.00
C470   C     0.65468   0.25008   0.76917   0.00000  Uiso   1.00
C471   C     0.47245   0.04719   0.78242   0.00000  Uiso   1.00
C472   C     0.47239   0.45226   0.70926   0.00000  Uiso   1.00
C473   C     0.47398   0.09328   0.78299   0.00000  Uiso   1.00
C474   C     0.49986   0.33606   0.75001   0.00000  Uiso   1.00
C475   C     0.47391   0.40618   0.70949   0.00000  Uiso   1.00
C476   C     0.49849   0.11603   0.74943   0.00000  Uiso   1.00
C477   C     0.49871   0.38397   0.74982   0.00000  Uiso   1.00
C478   C     0.52140   0.09287   0.71515   0.00000  Uiso   1.00
C479   C     0.52224   0.40766   0.78987   0.00000  Uiso   1.00
C480   C     0.52069   0.04676   0.71497   0.00000  Uiso   1.00
C481   C     0.52155   0.45375   0.78947   0.00000  Uiso   1.00
C482   C     0.49621   0.02401   0.74864   0.00000  Uiso   1.00
C483   C     0.49648   0.47596   0.74919   0.00000  Uiso   1.00
C484   C     0.41375   0.17060   0.61177   0.00000  Uiso   1.00
C485   C     0.45577   0.23547   0.54639   0.00000  Uiso   1.00
C486   C     0.59955   0.31725   0.89096   0.00000  Uiso   1.00
C487   C     0.51974   0.28649   0.95035   0.00000  Uiso   1.00
C488   C     0.45750   0.23354   0.59630   0.00000  Uiso   1.00
C489   C     0.52214   0.28489   0.90101   0.00000  Uiso   1.00
C490   C     0.54244   0.26589   0.60773   0.00000  Uiso   1.00
C491   C     0.47880   0.21485   0.89491   0.00000  Uiso   1.00
C492   C     0.54392   0.26467   0.55849   0.00000  Uiso   1.00
F493   F     0.44765   0.02518   0.81441   0.00000  Uiso   1.00
F494   F     0.46213   0.17620   0.96412   0.00000  Uiso   1.00
F495   F     0.44716   0.47375   0.67053   0.00000  Uiso   1.00
F496   F     0.54471   0.02432   0.68280   0.00000  Uiso   1.00
F497   F     0.54603   0.47670   0.82782   0.00000  Uiso   1.00
F498   F     0.41041   0.22452   0.51776   0.00000  Uiso   1.00
F499   F     0.53552   0.32424   0.97509   0.00000  Uiso   1.00
F500   F     0.58397   0.28342   0.63682   0.00000  Uiso   1.00
F501   F     0.45662   0.18041   0.86806   0.00000  Uiso   1.00
F502   F     0.58881   0.27726   0.54244   0.00000  Uiso   1.00
H503   H     0.65818   0.24719   0.69471   0.00000  Uiso   1.00
H504   H     0.61742   0.34101   0.86809   0.00000  Uiso   1.00
H505   H     0.61446   0.28337   0.88412   0.00000  Uiso   1.00
H506   H     0.61285   0.32714   0.92853   0.00000  Uiso   1.00
H507   H     0.34196   0.25148   0.80545   0.00000  Uiso   1.00
H508   H     0.45542   0.11113   0.80906   0.00000  Uiso   1.00
H509   H     0.45513   0.38787   0.67859   0.00000  Uiso   1.00
H510   H     0.54063   0.11043   0.68925   0.00000  Uiso   1.00
H511   H     0.54198   0.39059   0.82092   0.00000  Uiso   1.00
H512   H     0.38406   0.15766   0.63285   0.00000  Uiso   1.00
H513   H     0.45220   0.15568   0.62670   0.00000  Uiso   1.00
H514   H     0.40196   0.15938   0.57442   0.00000  Uiso   1.00
N515   N     0.50000   0.24999   0.62623   0.00000  Uiso   1.00
N516   N     0.50000   0.25001   0.87376   0.00000  Uiso   1.00
O517   O     0.50000   0.18454   0.78974   0.00000  Uiso   1.00
O518   O     0.54442   0.31985   0.87955   0.00000  Uiso   1.00
O519   O     0.50000   0.31547   0.71026   0.00000  Uiso   1.00
O520   O     0.50000   0.18453   0.71026   0.00000  Uiso   1.00
O521   O     0.50000   0.31547   0.78974   0.00000  Uiso   1.00
O522   O     0.42392   0.25000   0.78044   0.00000  Uiso   1.00
O523   O     0.57608   0.25000   0.71955   0.00000  Uiso   1.00
O524   O     0.42392   0.25000   0.70096   0.00000  Uiso   1.00
O525   O     0.57608   0.25001   0.79903   0.00000  Uiso   1.00
O526   O     0.41464   0.21760   0.61499   0.00000  Uiso   1.00
Zn527  Zn    0.50000   0.25001   0.80307   0.00000  Uiso   1.00
Zn528  Zn    0.50000   0.25000   0.69693   0.00000  Uiso   1.00
C529   C     0.83305   0.16394   0.74988   0.00000  Uiso   1.00
C530   C     0.81313   0.21352   0.94451   0.00000  Uiso   1.00
C531   C     0.83319   0.24997   0.52657   0.00000  Uiso   1.00
C532   C     0.83310   0.24998   0.97330   0.00000  Uiso   1.00
C533   C     0.73373   0.24970   0.73757   0.00000  Uiso   1.00
C534   C     0.93295   0.24995   0.76245   0.00000  Uiso   1.00
C535   C     0.67871   0.24888   0.73094   0.00000  Uiso   1.00
C536   C     0.98802   0.25008   0.76917   0.00000  Uiso   1.00
C537   C     0.80578   0.04719   0.78242   0.00000  Uiso   1.00
C538   C     0.80572   0.45226   0.70926   0.00000  Uiso   1.00
C539   C     0.80732   0.09328   0.78299   0.00000  Uiso   1.00
C540   C     0.83319   0.33606   0.75001   0.00000  Uiso   1.00
C541   C     0.80724   0.40618   0.70949   0.00000  Uiso   1.00
C542   C     0.83183   0.11603   0.74943   0.00000  Uiso   1.00
C543   C     0.83204   0.38397   0.74982   0.00000  Uiso   1.00
C544   C     0.85473   0.09287   0.71515   0.00000  Uiso   1.00
C545   C     0.85558   0.40766   0.78987   0.00000  Uiso   1.00
C546   C     0.85402   0.04676   0.71497   0.00000  Uiso   1.00
C547   C     0.85488   0.45375   0.78947   0.00000  Uiso   1.00
C548   C     0.82954   0.02401   0.74864   0.00000  Uiso   1.00
C549   C     0.82981   0.47596   0.74919   0.00000  Uiso   1.00
C550   C     0.74709   0.17060   0.61177   0.00000  Uiso   1.00
C551   C     0.78910   0.23547   0.54639   0.00000  Uiso   1.00
C552   C     0.93288   0.31725   0.89096   0.00000  Uiso   1.00
C553   C     0.85308   0.28649   0.95035   0.00000  Uiso   1.00
C554   C     0.79084   0.23354   0.59630   0.00000  Uiso   1.00
C555   C     0.85547   0.28489   0.90101   0.00000  Uiso   1.00
C556   C     0.87577   0.26589   0.60773   0.00000  Uiso   1.00
C557   C     0.81213   0.21485   0.89491   0.00000  Uiso   1.00
C558   C     0.87726   0.26467   0.55849   0.00000  Uiso   1.00
F559   F     0.78098   0.02518   0.81441   0.00000  Uiso   1.00
F560   F     0.79546   0.17620   0.96412   0.00000  Uiso   1.00
F561   F     0.78049   0.47375   0.67053   0.00000  Uiso   1.00
F562   F     0.87804   0.02432   0.68280   0.00000  Uiso   1.00
F563   F     0.87937   0.47670   0.82782   0.00000  Uiso   1.00
F564   F     0.74375   0.22452   0.51776   0.00000  Uiso   1.00
F565   F     0.86885   0.32424   0.97509   0.00000  Uiso   1.00
F566   F     0.91730   0.28342   0.63682   0.00000  Uiso   1.00
F567   F     0.78996   0.18041   0.86806   0.00000  Uiso   1.00
F568   F     0.92215   0.27726   0.54244   0.00000  Uiso   1.00
H569   H     0.99151   0.24719   0.69471   0.00000  Uiso   1.00
H570   H     0.95075   0.34101   0.86809   0.00000  Uiso   1.00
H571   H     0.94779   0.28337   0.88412   0.00000  Uiso   1.00
H572   H     0.94619   0.32714   0.92853   0.00000  Uiso   1.00
H573   H     0.67530   0.25148   0.80545   0.00000  Uiso   1.00
H574   H     0.78875   0.11113   0.80906   0.00000  Uiso   1.00
H575   H     0.78846   0.38787   0.67859   0.00000  Uiso   1.00
H576   H     0.87397   0.11043   0.68925   0.00000  Uiso   1.00
H577   H     0.87531   0.39059   0.82092   0.00000  Uiso   1.00
H578   H     0.71739   0.15766   0.63285   0.00000  Uiso   1.00
H579   H     0.78553   0.15568   0.62670   0.00000  Uiso   1.00
H580   H     0.73529   0.15938   0.57442   0.00000  Uiso   1.00
N581   N     0.83333   0.24999   0.62623   0.00000  Uiso   1.00
N582   N     0.83333   0.25001   0.87376   0.00000  Uiso   1.00
O583   O     0.83334   0.18454   0.78974   0.00000  Uiso   1.00
O584   O     0.87776   0.31985   0.87955   0.00000  Uiso   1.00
O585   O     0.83333   0.31547   0.71026   0.00000  Uiso   1.00
O586   O     0.83334   0.18453   0.71026   0.00000  Uiso   1.00
O587   O     0.83333   0.31547   0.78974   0.00000  Uiso   1.00
O588   O     0.75725   0.25000   0.78044   0.00000  Uiso   1.00
O589   O     0.90942   0.25000   0.71955   0.00000  Uiso   1.00
O590   O     0.75725   0.25000   0.70096   0.00000  Uiso   1.00
O591   O     0.90942   0.25001   0.79903   0.00000  Uiso   1.00
O592   O     0.74797   0.21760   0.61499   0.00000  Uiso   1.00
Zn593  Zn    0.83333   0.25001   0.80307   0.00000  Uiso   1.00
Zn594  Zn    0.83333   0.25000   0.69693   0.00000  Uiso   1.00
C595   C     0.16638   0.66394   0.74988   0.00000  Uiso   1.00
C596   C     0.14646   0.71352   0.94451   0.00000  Uiso   1.00
C597   C     0.16653   0.74997   0.52657   0.00000  Uiso   1.00
C598   C     0.16643   0.74998   0.97330   0.00000  Uiso   1.00
C599   C     0.06706   0.74970   0.73757   0.00000  Uiso   1.00
C600   C     0.26629   0.74995   0.76245   0.00000  Uiso   1.00
C601   C     0.01204   0.74888   0.73094   0.00000  Uiso   1.00
C602   C     0.32135   0.75008   0.76917   0.00000  Uiso   1.00
C603   C     0.13912   0.54719   0.78242   0.00000  Uiso   1.00
C604   C     0.13905   0.95226   0.70926   0.00000  Uiso   1.00
C605   C     0.14065   0.59328   0.78299   0.00000  Uiso   1.00
C606   C     0.16653   0.83606   0.75001   0.00000  Uiso   1.00
C607   C     0.14057   0.90618   0.70949   0.00000  Uiso   1.00
C608   C     0.16516   0.61603   0.74943   0.00000  Uiso   1.00
C609   C     0.16537   0.88397   0.74982   0.00000  Uiso   1.00
C610   C     0.18806   0.59287   0.71515   0.00000  Uiso   1.00
C611   C     0.18891   0.90766   0.78987   0.00000  Uiso   1.00
C612   C     0.18735   0.54676   0.71497   0.00000  Uiso   1.00
C613   C     0.18821   0.95375   0.78947   0.00000  Uiso   1.00
C614   C     0.16287   0.52401   0.74864   0.00000  Uiso   1.00
C615   C     0.16314   0.97596   0.74919   0.00000  Uiso   1.00
C616   C     0.08042   0.67060   0.61177   0.00000  Uiso   1.00
C617   C     0.12243   0.73547   0.54639   0.00000  Uiso   1.00
C618   C     0.26622   0.81725   0.89096   0.00000  Uiso   1.00
C619   C     0.18641   0.78649   0.95035   0.00000  Uiso   1.00
C620   C     0.12417   0.73354   0.59630   0.00000  Uiso   1.00
C621   C     0.18880   0.78489   0.90101   0.00000  Uiso   1.00
C622   C     0.20911   0.76589   0.60773   0.00000  Uiso   1.00
C623   C     0.14546   0.71485   0.89491   0.00000  Uiso   1.00
C624   C     0.21059   0.76467   0.55849   0.00000  Uiso   1.00
F625   F     0.11432   0.52518   0.81441   0.00000  Uiso   1.00
F626   F     0.12879   0.67620   0.96412   0.00000  Uiso   1.00
F627   F     0.11383   0.97375   0.67053   0.00000  Uiso   1.00
F628   F     0.21138   0.52432   0.68280   0.00000  Uiso   1.00
F629   F     0.21270   0.97670   0.82782   0.00000  Uiso   1.00
F630   F     0.07708   0.72452   0.51776   0.00000  Uiso   1.00
F631   F     0.20218   0.82424   0.97509   0.00000  Uiso   1.00
F632   F     0.25063   0.78342   0.63682   0.00000  Uiso   1.00
F633   F     0.12329   0.68041   0.86806   0.00000  Uiso   1.00
F634   F     0.25548   0.77726   0.54244   0.00000  Uiso   1.00
H635   H     0.32484   0.74719   0.69471   0.00000  Uiso   1.00
H636   H     0.28409   0.84101   0.86809   0.00000  Uiso   1.00
H637   H     0.28113   0.78337   0.88412   0.00000  Uiso   1.00
H638   H     0.27952   0.82714   0.92853   0.00000  Uiso   1.00
H639   H     0.00863   0.75148   0.80545   0.00000  Uiso   1.00
H640   H     0.12208   0.61113   0.80906   0.00000  Uiso   1.00
H641   H     0.12179   0.88787   0.67859   0.00000  Uiso   1.00
H642   H     0.20730   0.61043   0.68925   0.00000  Uiso   1.00
H643   H     0.20864   0.89059   0.82092   0.00000  Uiso   1.00
H644   H     0.05072   0.65766   0.63285   0.00000  Uiso   1.00
H645   H     0.11887   0.65568   0.62670   0.00000  Uiso   1.00
H646   H     0.06862   0.65938   0.57442   0.00000  Uiso   1.00
N647   N     0.16667   0.74999   0.62623   0.00000  Uiso   1.00
N648   N     0.16667   0.75001   0.87376   0.00000  Uiso   1.00
O649   O     0.16667   0.68454   0.78974   0.00000  Uiso   1.00
O650   O     0.21109   0.81985   0.87955   0.00000  Uiso   1.00
O651   O     0.16666   0.81547   0.71026   0.00000  Uiso   1.00
O652   O     0.16667   0.68453   0.71026   0.00000  Uiso   1.00
O653   O     0.16666   0.81547   0.78974   0.00000  Uiso   1.00
O654   O     0.09058   0.75000   0.78044   0.00000  Uiso   1.00
O655   O     0.24275   0.75000   0.71955   0.00000  Uiso   1.00
O656   O     0.09058   0.75000   0.70096   0.00000  Uiso   1.00
O657   O     0.24275   0.75001   0.79903   0.00000  Uiso   1.00
O658   O     0.08131   0.71760   0.61499   0.00000  Uiso   1.00
Zn659  Zn    0.16667   0.75001   0.80307   0.00000  Uiso   1.00
Zn660  Zn    0.16667   0.75000   0.69693   0.00000  Uiso   1.00
C661   C     0.49972   0.66394   0.74988   0.00000  Uiso   1.00
C662   C     0.47979   0.71352   0.94451   0.00000  Uiso   1.00
C663   C     0.49986   0.74997   0.52657   0.00000  Uiso   1.00
C664   C     0.49976   0.74998   0.97330   0.00000  Uiso   1.00
C665   C     0.40040   0.74970   0.73757   0.00000  Uiso   1.00
C666   C     0.59962   0.74995   0.76245   0.00000  Uiso   1.00
C667   C     0.34538   0.74888   0.73094   0.00000  Uiso   1.00
C668   C     0.65468   0.75008   0.76917   0.00000  Uiso   1.00
C669   C     0.47245   0.54719   0.78242   0.00000  Uiso   1.00
C670   C     0.47239   0.95226   0.70926   0.00000  Uiso   1.00
C671   C     0.47398   0.59328   0.78299   0.00000  Uiso   1.00
C672   C     0.49986   0.83606   0.75001   0.00000  Uiso   1.00
C673   C     0.47391   0.90618   0.70949   0.00000  Uiso   1.00
C674   C     0.49849   0.61603   0.74943   0.00000  Uiso   1.00
C675   C     0.49871   0.88397   0.74982   0.00000  Uiso   1.00
C676   C     0.52140   0.59287   0.71515   0.00000  Uiso   1.00
C677   C     0.52224   0.90766   0.78987   0.00000  Uiso   1.00
C678   C     0.52069   0.54676   0.71497   0.00000  Uiso   1.00
C679   C     0.52155   0.95375   0.78947   0.00000  Uiso   1.00
C680   C     0.49621   0.52401   0.74864   0.00000  Uiso   1.00
C681   C     0.49648   0.97596   0.74919   0.00000  Uiso   1.00
C682   C     0.41375   0.67060   0.61177   0.00000  Uiso   1.00
C683   C     0.45577   0.73547   0.54639   0.00000  Uiso   1.00
C684   C     0.59955   0.81725   0.89096   0.00000  Uiso   1.00
C685   C     0.51974   0.78649   0.95035   0.00000  Uiso   1.00
C686   C     0.45750   0.73354   0.59630   0.00000  Uiso   1.00
C687   C     0.52214   0.78489   0.90101   0.00000  Uiso   1.00
C688   C     0.54244   0.76589   0.60773   0.00000  Uiso   1.00
C689   C     0.47880   0.71485   0.89491   0.00000  Uiso   1.00
C690   C     0.54392   0.76467   0.55849   0.00000  Uiso   1.00
F691   F     0.44765   0.52518   0.81441   0.00000  Uiso   1.00
F692   F     0.46213   0.67620   0.96412   0.00000  Uiso   1.00
F693   F     0.44716   0.97375   0.67053   0.00000  Uiso   1.00
F694   F     0.54471   0.52432   0.68280   0.00000  Uiso   1.00
F695   F     0.54603   0.97670   0.82782   0.00000  Uiso   1.00
F696   F     0.41041   0.72452   0.51776   0.00000  Uiso   1.00
F697   F     0.53552   0.82424   0.97509   0.00000  Uiso   1.00
F698   F     0.58397   0.78342   0.63682   0.00000  Uiso   1.00
F699   F     0.45662   0.68041   0.86806   0.00000  Uiso   1.00
F700   F     0.58881   0.77726   0.54244   0.00000  Uiso   1.00
H701   H     0.65818   0.74719   0.69471   0.00000  Uiso   1.00
H702   H     0.61742   0.84101   0.86809   0.00000  Uiso   1.00
H703   H     0.61446   0.78337   0.88412   0.00000  Uiso   1.00
H704   H     0.61285   0.82714   0.92853   0.00000  Uiso   1.00
H705   H     0.34196   0.75148   0.80545   0.00000  Uiso   1.00
H706   H     0.45542   0.61113   0.80906   0.00000  Uiso   1.00
H707   H     0.45513   0.88787   0.67859   0.00000  Uiso   1.00
H708   H     0.54063   0.61043   0.68925   0.00000  Uiso   1.00
H709   H     0.54198   0.89059   0.82092   0.00000  Uiso   1.00
H710   H     0.38406   0.65766   0.63285   0.00000  Uiso   1.00
H711   H     0.45220   0.65568   0.62670   0.00000  Uiso   1.00
H712   H     0.40196   0.65938   0.57442   0.00000  Uiso   1.00
N713   N     0.50000   0.74999   0.62623   0.00000  Uiso   1.00
N714   N     0.50000   0.75001   0.87376   0.00000  Uiso   1.00
O715   O     0.50000   0.68454   0.78974   0.00000  Uiso   1.00
O716   O     0.54442   0.81985   0.87955   0.00000  Uiso   1.00
O717   O     0.50000   0.81547   0.71026   0.00000  Uiso   1.00
O718   O     0.50000   0.68453   0.71026   0.00000  Uiso   1.00
O719   O     0.50000   0.81547   0.78974   0.00000  Uiso   1.00
O720   O     0.42392   0.75000   0.78044   0.00000  Uiso   1.00
O721   O     0.57608   0.75000   0.71955   0.00000  Uiso   1.00
O722   O     0.42392   0.75000   0.70096   0.00000  Uiso   1.00
O723   O     0.57608   0.75001   0.79903   0.00000  Uiso   1.00
O724   O     0.41464   0.71760   0.61499   0.00000  Uiso   1.00
Zn725  Zn    0.50000   0.75001   0.80307   0.00000  Uiso   1.00
Zn726  Zn    0.50000   0.75000   0.69693   0.00000  Uiso   1.00
C727   C     0.83305   0.66394   0.74988   0.00000  Uiso   1.00
C728   C     0.81313   0.71352   0.94451   0.00000  Uiso   1.00
C729   C     0.83319   0.74997   0.52657   0.00000  Uiso   1.00
C730   C     0.83310   0.74998   0.97330   0.00000  Uiso   1.00
C731   C     0.73373   0.74970   0.73757   0.00000  Uiso   1.00
C732   C     0.93295   0.74995   0.76245   0.00000  Uiso   1.00
C733   C     0.67871   0.74888   0.73094   0.00000  Uiso   1.00
C734   C     0.98802   0.75008   0.76917   0.00000  Uiso   1.00
C735   C     0.80578   0.54719   0.78242   0.00000  Uiso   1.00
C736   C     0.80572   0.95226   0.70926   0.00000  Uiso   1.00
C737   C     0.80732   0.59328   0.78299   0.00000  Uiso   1.00
C738   C     0.83319   0.83606   0.75001   0.00000  Uiso   1.00
C739   C     0.80724   0.90618   0.70949   0.00000  Uiso   1.00
C740   C     0.83183   0.61603   0.74943   0.00000  Uiso   1.00
C741   C     0.83204   0.88397   0.74982   0.00000  Uiso   1.00
C742   C     0.85473   0.59287   0.71515   0.00000  Uiso   1.00
C743   C     0.85558   0.90766   0.78987   0.00000  Uiso   1.00
C744   C     0.85402   0.54676   0.71497   0.00000  Uiso   1.00
C745   C     0.85488   0.95375   0.78947   0.00000  Uiso   1.00
C746   C     0.82954   0.52401   0.74864   0.00000  Uiso   1.00
C747   C     0.82981   0.97596   0.74919   0.00000  Uiso   1.00
C748   C     0.74709   0.67060   0.61177   0.00000  Uiso   1.00
C749   C     0.78910   0.73547   0.54639   0.00000  Uiso   1.00
C750   C     0.93288   0.81725   0.89096   0.00000  Uiso   1.00
C751   C     0.85308   0.78649   0.95035   0.00000  Uiso   1.00
C752   C     0.79084   0.73354   0.59630   0.00000  Uiso   1.00
C753   C     0.85547   0.78489   0.90101   0.00000  Uiso   1.00
C754   C     0.87577   0.76589   0.60773   0.00000  Uiso   1.00
C755   C     0.81213   0.71485   0.89491   0.00000  Uiso   1.00
C756   C     0.87726   0.76467   0.55849   0.00000  Uiso   1.00
F757   F     0.78098   0.52518   0.81441   0.00000  Uiso   1.00
F758   F     0.79546   0.67620   0.96412   0.00000  Uiso   1.00
F759   F     0.78049   0.97375   0.67053   0.00000  Uiso   1.00
F760   F     0.87804   0.52432   0.68280   0.00000  Uiso   1.00
F761   F     0.87937   0.97670   0.82782   0.00000  Uiso   1.00
F762   F     0.74375   0.72452   0.51776   0.00000  Uiso   1.00
F763   F     0.86885   0.82424   0.97509   0.00000  Uiso   1.00
F764   F     0.91730   0.78342   0.63682   0.00000  Uiso   1.00
F765   F     0.78996   0.68041   0.86806   0.00000  Uiso   1.00
F766   F     0.92215   0.77726   0.54244   0.00000  Uiso   1.00
H767   H     0.99151   0.74719   0.69471   0.00000  Uiso   1.00
H768   H     0.95075   0.84101   0.86809   0.00000  Uiso   1.00
H769   H     0.94779   0.78337   0.88412   0.00000  Uiso   1.00
H770   H     0.94619   0.82714   0.92853   0.00000  Uiso   1.00
H771   H     0.67530   0.75148   0.80545   0.00000  Uiso   1.00
H772   H     0.78875   0.61113   0.80906   0.00000  Uiso   1.00
H773   H     0.78846   0.88787   0.67859   0.00000  Uiso   1.00
H774   H     0.87397   0.61043   0.68925   0.00000  Uiso   1.00
H775   H     0.87531   0.89059   0.82092   0.00000  Uiso   1.00
H776   H     0.71739   0.65766   0.63285   0.00000  Uiso   1.00
H777   H     0.78553   0.65568   0.62670   0.00000  Uiso   1.00
H778   H     0.73529   0.65938   0.57442   0.00000  Uiso   1.00
N779   N     0.83333   0.74999   0.62623   0.00000  Uiso   1.00
N780   N     0.83333   0.75001   0.87376   0.00000  Uiso   1.00
O781   O     0.83334   0.68454   0.78974   0.00000  Uiso   1.00
O782   O     0.87776   0.81985   0.87955   0.00000  Uiso   1.00
O783   O     0.83333   0.81547   0.71026   0.00000  Uiso   1.00
O784   O     0.83334   0.68453   0.71026   0.00000  Uiso   1.00
O785   O     0.83333   0.81547   0.78974   0.00000  Uiso   1.00
O786   O     0.75725   0.75000   0.78044   0.00000  Uiso   1.00
O787   O     0.90942   0.75000   0.71955   0.00000  Uiso   1.00
O788   O     0.75725   0.75000   0.70096   0.00000  Uiso   1.00
O789   O     0.90942   0.75001   0.79903   0.00000  Uiso   1.00
O790   O     0.74797   0.71760   0.61499   0.00000  Uiso   1.00
Zn791  Zn    0.83333   0.75001   0.80307   0.00000  Uiso   1.00
Zn792  Zn    0.83333   0.75000   0.69693   0.00000  Uiso   1.00
loop_
_geom_bond_atom_site_label_1
_geom_bond_atom_site_label_2
_geom_bond_distance
_geom_bond_site_symmetry_2
_ccdc_geom_bond_type
C1     O55     1.289   .     A
C1     O58     1.288   .     A
C1     C14     1.435   .     S
C2     C4      1.411   .     A
C2     C29     1.408   .     A
C2     F32     1.357   .     S
C3     C30     1.410   .     A
C3     C23     1.409   .     A
C3     C400    1.515   1_554 S
C4     C25     1.409   .     A
C4     C399    1.515   .     S
C5     O62     1.281   .     A
C5     C7      1.402   .     S
C5     O60     1.278   .     A
C6     O63     1.281   .     A
C6     C8      1.403   .     S
C6     O61     1.279   .     A
C7     C140    1.330   1_455 S
C7     H173    1.087   1_455 S
C8     C73     1.330   .     S
C8     H111    1.088   .     S
C9     C20     1.400   .     A
C9     C11     1.381   .     A
C9     F31     1.358   .     S
C10    F33     1.358   .     S
C10    C21     1.399   .     A
C10    C13     1.381   .     A
C11    C14     1.398   .     A
C11    H46     1.083   .     S
C12    C15     1.435   .     S
C12    O57     1.288   .     A
C12    O59     1.289   .     A
C13    C15     1.399   .     A
C13    H47     1.084   .     S
C14    C16     1.398   .     A
C15    C17     1.397   .     A
C16    H48     1.084   .     S
C16    C18     1.381   .     A
C17    H49     1.082   .     S
C17    C19     1.381   .     A
C18    F34     1.358   .     S
C18    C20     1.400   .     A
C19    F35     1.358   .     S
C19    C21     1.400   .     A
C20    C219    1.440   1_545 S
C21    C218    1.440   .     S
C22    H50     1.109   .     S
C22    H52     1.111   .     S
C22    O64     1.411   .     S
C22    H51     1.114   .     S
C23    F36     1.358   .     S
C23    C26     1.416   .     A
C24    H42     1.109   .     S
C24    H44     1.111   .     S
C24    O56     1.411   .     S
C24    H43     1.114   .     S
C25    C27     1.415   .     A
C25    F37     1.358   .     S
C26    N53     1.370   .     A
C26    O64     1.379   .     S
C27    N54     1.369   .     A
C27    O56     1.379   .     S
C28    N53     1.367   .     A
C28    F38     1.353   .     S
C28    C30     1.408   .     A
C29    F39     1.354   .     S
C29    N54     1.366   .     A
C30    F40     1.357   .     S
H41    C73     1.087   .     S
H45    C140    1.088   1_455 S
N53    Zn66    2.012   .     S
N54    Zn65    2.012   .     S
O55    Zn65    1.997   .     S
O57    Zn66    1.997   .     S
O58    Zn66    1.999   .     S
O59    Zn65    1.999   .     S
O60    Zn65    1.969   .     S
O61    Zn66    1.969   .     S
O62    Zn66    1.981   .     S
O63    Zn65    1.981   .     S
C67    O121    1.289   .     A
C67    O124    1.288   .     A
C67    C80     1.435   .     S
C68    C70     1.411   .     A
C68    C95     1.408   .     A
C68    F98     1.357   .     S
C69    C96     1.410   .     A
C69    C89     1.409   .     A
C69    C466    1.515   1_554 S
C70    C91     1.409   .     A
C70    C465    1.515   .     S
C71    O128    1.281   .     A
C71    C73     1.402   .     S
C71    O126    1.278   .     A
C72    O129    1.281   .     A
C72    C74     1.403   .     S
C72    O127    1.279   .     A
C74    C139    1.330   .     S
C74    H177    1.088   .     S
C75    C86     1.400   .     A
C75    C77     1.381   .     A
C75    F97     1.358   .     S
C76    F99     1.358   .     S
C76    C87     1.399   .     A
C76    C79     1.381   .     A
C77    C80     1.398   .     A
C77    H112    1.083   .     S
C78    C81     1.435   .     S
C78    O123    1.288   .     A
C78    O125    1.289   .     A
C79    C81     1.399   .     A
C79    H113    1.084   .     S
C80    C82     1.398   .     A
C81    C83     1.397   .     A
C82    H114    1.084   .     S
C82    C84     1.381   .     A
C83    H115    1.082   .     S
C83    C85     1.381   .     A
C84    F100    1.358   .     S
C84    C86     1.400   .     A
C85    F101    1.358   .     S
C85    C87     1.400   .     A
C86    C285    1.440   1_545 S
C87    C284    1.440   .     S
C88    H116    1.109   .     S
C88    H118    1.111   .     S
C88    O130    1.411   .     S
C88    H117    1.114   .     S
C89    F102    1.358   .     S
C89    C92     1.416   .     A
C90    H108    1.109   .     S
C90    H110    1.111   .     S
C90    O122    1.411   .     S
C90    H109    1.114   .     S
C91    C93     1.415   .     A
C91    F103    1.358   .     S
C92    N119    1.370   .     A
C92    O130    1.379   .     S
C93    N120    1.369   .     A
C93    O122    1.379   .     S
C94    N119    1.367   .     A
C94    F104    1.353   .     S
C94    C96     1.408   .     A
C95    F105    1.354   .     S
C95    N120    1.366   .     A
C96    F106    1.357   .     S
H107   C139    1.087   .     S
N119   Zn132   2.012   .     S
N120   Zn131   2.012   .     S
O121   Zn131   1.997   .     S
O123   Zn132   1.997   .     S
O124   Zn132   1.999   .     S
O125   Zn131   1.999   .     S
O126   Zn131   1.969   .     S
O127   Zn132   1.969   .     S
O128   Zn132   1.981   .     S
O129   Zn131   1.981   .     S
C133   O187    1.289   .     A
C133   O190    1.288   .     A
C133   C146    1.435   .     S
C134   C136    1.411   .     A
C134   C161    1.408   .     A
C134   F164    1.357   .     S
C135   C162    1.410   .     A
C135   C155    1.409   .     A
C135   C532    1.515   1_554 S
C136   C157    1.409   .     A
C136   C531    1.515   .     S
C137   O194    1.281   .     A
C137   C139    1.402   .     S
C137   O192    1.278   .     A
C138   O195    1.281   .     A
C138   C140    1.403   .     S
C138   O193    1.279   .     A
C140   C7      1.330   1_655 S
C140   H45     1.088   1_655 S
C141   C152    1.400   .     A
C141   C143    1.381   .     A
C141   F163    1.358   .     S
C142   F165    1.358   .     S
C142   C153    1.399   .     A
C142   C145    1.381   .     A
C143   C146    1.398   .     A
C143   H178    1.083   .     S
C144   C147    1.435   .     S
C144   O189    1.288   .     A
C144   O191    1.289   .     A
C145   C147    1.399   .     A
C145   H179    1.084   .     S
C146   C148    1.398   .     A
C147   C149    1.397   .     A
C148   H180    1.084   .     S
C148   C150    1.381   .     A
C149   H181    1.082   .     S
C149   C151    1.381   .     A
C150   F166    1.358   .     S
C150   C152    1.400   .     A
C151   F167    1.358   .     S
C151   C153    1.400   .     A
C152   C351    1.440   1_545 S
C153   C350    1.440   .     S
C154   H182    1.109   .     S
C154   H184    1.111   .     S
C154   O196    1.411   .     S
C154   H183    1.114   .     S
C155   F168    1.358   .     S
C155   C158    1.416   .     A
C156   H174    1.109   .     S
C156   H176    1.111   .     S
C156   O188    1.411   .     S
C156   H175    1.114   .     S
C157   C159    1.415   .     A
C157   F169    1.358   .     S
C158   N185    1.370   .     A
C158   O196    1.379   .     S
C159   N186    1.369   .     A
C159   O188    1.379   .     S
C160   N185    1.367   .     A
C160   F170    1.353   .     S
C160   C162    1.408   .     A
C161   F171    1.354   .     S
C161   N186    1.366   .     A
C162   F172    1.357   .     S
H173   C7      1.087   1_655 S
N185   Zn198   2.012   .     S
N186   Zn197   2.012   .     S
O187   Zn197   1.997   .     S
O189   Zn198   1.997   .     S
O190   Zn198   1.999   .     S
O191   Zn197   1.999   .     S
O192   Zn197   1.969   .     S
O193   Zn198   1.969   .     S
O194   Zn198   1.981   .     S
O195   Zn197   1.981   .     S
C199   O253    1.289   .     A
C199   O256    1.288   .     A
C199   C212    1.435   .     S
C200   C202    1.411   .     A
C200   C227    1.408   .     A
C200   F230    1.357   .     S
C201   C228    1.410   .     A
C201   C221    1.409   .     A
C201   C598    1.515   1_554 S
C202   C223    1.409   .     A
C202   C597    1.515   .     S
C203   O260    1.281   .     A
C203   C205    1.402   .     S
C203   O258    1.278   .     A
C204   O261    1.281   .     A
C204   C206    1.403   .     S
C204   O259    1.279   .     A
C205   C338    1.330   1_455 S
C205   H371    1.087   1_455 S
C206   C271    1.330   .     S
C206   H309    1.088   .     S
C207   C218    1.400   .     A
C207   C209    1.381   .     A
C207   F229    1.358   .     S
C208   F231    1.358   .     S
C208   C219    1.399   .     A
C208   C211    1.381   .     A
C209   C212    1.398   .     A
C209   H244    1.083   .     S
C210   C213    1.435   .     S
C210   O255    1.288   .     A
C210   O257    1.289   .     A
C211   C213    1.399   .     A
C211   H245    1.084   .     S
C212   C214    1.398   .     A
C213   C215    1.397   .     A
C214   H246    1.084   .     S
C214   C216    1.381   .     A
C215   H247    1.082   .     S
C215   C217    1.381   .     A
C216   F232    1.358   .     S
C216   C218    1.400   .     A
C217   F233    1.358   .     S
C217   C219    1.400   .     A
C219   C20     1.440   1_565 S
C220   H248    1.109   .     S
C220   H250    1.111   .     S
C220   O262    1.411   .     S
C220   H249    1.114   .     S
C221   F234    1.358   .     S
C221   C224    1.416   .     A
C222   H240    1.109   .     S
C222   H242    1.111   .     S
C222   O254    1.411   .     S
C222   H241    1.114   .     S
C223   C225    1.415   .     A
C223   F235    1.358   .     S
C224   N251    1.370   .     A
C224   O262    1.379   .     S
C225   N252    1.369   .     A
C225   O254    1.379   .     S
C226   N251    1.367   .     A
C226   F236    1.353   .     S
C226   C228    1.408   .     A
C227   F237    1.354   .     S
C227   N252    1.366   .     A
C228   F238    1.357   .     S
H239   C271    1.087   .     S
H243   C338    1.088   1_455 S
N251   Zn264   2.012   .     S
N252   Zn263   2.012   .     S
O253   Zn263   1.997   .     S
O255   Zn264   1.997   .     S
O256   Zn264   1.999   .     S
O257   Zn263   1.999   .     S
O258   Zn263   1.969   .     S
O259   Zn264   1.969   .     S
O260   Zn264   1.981   .     S
O261   Zn263   1.981   .     S
C265   O319    1.289   .     A
C265   O322    1.288   .     A
C265   C278    1.435   .     S
C266   C268    1.411   .     A
C266   C293    1.408   .     A
C266   F296    1.357   .     S
C267   C294    1.410   .     A
C267   C287    1.409   .     A
C267   C664    1.515   1_554 S
C268   C289    1.409   .     A
C268   C663    1.515   .     S
C269   O326    1.281   .     A
C269   C271    1.402   .     S
C269   O324    1.278   .     A
C270   O327    1.281   .     A
C270   C272    1.403   .     S
C270   O325    1.279   .     A
C272   C337    1.330   .     S
C272   H375    1.088   .     S
C273   C284    1.400   .     A
C273   C275    1.381   .     A
C273   F295    1.358   .     S
C274   F297    1.358   .     S
C274   C285    1.399   .     A
C274   C277    1.381   .     A
C275   C278    1.398   .     A
C275   H310    1.083   .     S
C276   C279    1.435   .     S
C276   O321    1.288   .     A
C276   O323    1.289   .     A
C277   C279    1.399   .     A
C277   H311    1.084   .     S
C278   C280    1.398   .     A
C279   C281    1.397   .     A
C280   H312    1.084   .     S
C280   C282    1.381   .     A
C281   H313    1.082   .     S
C281   C283    1.381   .     A
C282   F298    1.358   .     S
C282   C284    1.400   .     A
C283   F299    1.358   .     S
C283   C285    1.400   .     A
C285   C86     1.440   1_565 S
C286   H314    1.109   .     S
C286   H316    1.111   .     S
C286   O328    1.411   .     S
C286   H315    1.114   .     S
C287   F300    1.358   .     S
C287   C290    1.416   .     A
C288   H306    1.109   .     S
C288   H308    1.111   .     S
C288   O320    1.411   .     S
C288   H307    1.114   .     S
C289   C291    1.415   .     A
C289   F301    1.358   .     S
C290   N317    1.370   .     A
C290   O328    1.379   .     S
C291   N318    1.369   .     A
C291   O320    1.379   .     S
C292   N317    1.367   .     A
C292   F302    1.353   .     S
C292   C294    1.408   .     A
C293   F303    1.354   .     S
C293   N318    1.366   .     A
C294   F304    1.357   .     S
H305   C337    1.087   .     S
N317   Zn330   2.012   .     S
N318   Zn329   2.012   .     S
O319   Zn329   1.997   .     S
O321   Zn330   1.997   .     S
O322   Zn330   1.999   .     S
O323   Zn329   1.999   .     S
O324   Zn329   1.969   .     S
O325   Zn330   1.969   .     S
O326   Zn330   1.981   .     S
O327   Zn329   1.981   .     S
C331   O385    1.289   .     A
C331   O388    1.288   .     A
C331   C344    1.435   .     S
C332   C334    1.411   .     A
C332   C359    1.408   .     A
C332   F362    1.357   .     S
C333   C360    1.410   .     A
C333   C353    1.409   .     A
C333   C730    1.515   1_554 S
C334   C355    1.409   .     A
C334   C729    1.515   .     S
C335   O392    1.281   .     A
C335   C337    1.402   .     S
C335   O390    1.278   .     A
C336   O393    1.281   .     A
C336   C338    1.403   .     S
C336   O391    1.279   .     A
C338   C205    1.330   1_655 S
C338   H243    1.088   1_655 S
C339   C350    1.400   .     A
C339   C341    1.381   .     A
C339   F361    1.358   .     S
C340   F363    1.358   .     S
C340   C351    1.399   .     A
C340   C343    1.381   .     A
C341   C344    1.398   .     A
C341   H376    1.083   .     S
C342   C345    1.435   .     S
C342   O387    1.288   .     A
C342   O389    1.289   .     A
C343   C345    1.399   .     A
C343   H377    1.084   .     S
C344   C346    1.398   .     A
C345   C347    1.397   .     A
C346   H378    1.084   .     S
C346   C348    1.381   .     A
C347   H379    1.082   .     S
C347   C349    1.381   .     A
C348   F364    1.358   .     S
C348   C350    1.400   .     A
C349   F365    1.358   .     S
C349   C351    1.400   .     A
C351   C152    1.440   1_565 S
C352   H380    1.109   .     S
C352   H382    1.111   .     S
C352   O394    1.411   .     S
C352   H381    1.114   .     S
C353   F366    1.358   .     S
C353   C356    1.416   .     A
C354   H372    1.109   .     S
C354   H374    1.111   .     S
C354   O386    1.411   .     S
C354   H373    1.114   .     S
C355   C357    1.415   .     A
C355   F367    1.358   .     S
C356   N383    1.370   .     A
C356   O394    1.379   .     S
C357   N384    1.369   .     A
C357   O386    1.379   .     S
C358   N383    1.367   .     A
C358   F368    1.353   .     S
C358   C360    1.408   .     A
C359   F369    1.354   .     S
C359   N384    1.366   .     A
C360   F370    1.357   .     S
H371   C205    1.087   1_655 S
N383   Zn396   2.012   .     S
N384   Zn395   2.012   .     S
O385   Zn395   1.997   .     S
O387   Zn396   1.997   .     S
O388   Zn396   1.999   .     S
O389   Zn395   1.999   .     S
O390   Zn395   1.969   .     S
O391   Zn396   1.969   .     S
O392   Zn396   1.981   .     S
O393   Zn395   1.981   .     S
C397   O451    1.289   .     A
C397   O454    1.288   .     A
C397   C410    1.435   .     S
C398   C400    1.411   .     A
C398   C425    1.408   .     A
C398   F428    1.357   .     S
C399   C426    1.410   .     A
C399   C419    1.409   .     A
C400   C421    1.409   .     A
C400   C3      1.515   1_556 S
C401   O458    1.281   .     A
C401   C403    1.402   .     S
C401   O456    1.278   .     A
C402   O459    1.281   .     A
C402   C404    1.403   .     S
C402   O457    1.279   .     A
C403   C536    1.330   1_455 S
C403   H569    1.087   1_455 S
C404   C469    1.330   .     S
C404   H507    1.088   .     S
C405   C416    1.400   .     A
C405   C407    1.381   .     A
C405   F427    1.358   .     S
C406   F429    1.358   .     S
C406   C417    1.399   .     A
C406   C409    1.381   .     A
C407   C410    1.398   .     A
C407   H442    1.083   .     S
C408   C411    1.435   .     S
C408   O453    1.288   .     A
C408   O455    1.289   .     A
C409   C411    1.399   .     A
C409   H443    1.084   .     S
C410   C412    1.398   .     A
C411   C413    1.397   .     A
C412   H444    1.084   .     S
C412   C414    1.381   .     A
C413   H445    1.082   .     S
C413   C415    1.381   .     A
C414   F430    1.358   .     S
C414   C416    1.400   .     A
C415   F431    1.358   .     S
C415   C417    1.400   .     A
C416   C615    1.440   1_545 S
C417   C614    1.440   .     S
C418   H446    1.109   .     S
C418   H448    1.111   .     S
C418   O460    1.411   .     S
C418   H447    1.114   .     S
C419   F432    1.358   .     S
C419   C422    1.416   .     A
C420   H438    1.109   .     S
C420   H440    1.111   .     S
C420   O452    1.411   .     S
C420   H439    1.114   .     S
C421   C423    1.415   .     A
C421   F433    1.358   .     S
C422   N449    1.370   .     A
C422   O460    1.379   .     S
C423   N450    1.369   .     A
C423   O452    1.379   .     S
C424   N449    1.367   .     A
C424   F434    1.353   .     S
C424   C426    1.408   .     A
C425   F435    1.354   .     S
C425   N450    1.366   .     A
C426   F436    1.357   .     S
H437   C469    1.087   .     S
H441   C536    1.088   1_455 S
N449   Zn462   2.012   .     S
N450   Zn461   2.012   .     S
O451   Zn461   1.997   .     S
O453   Zn462   1.997   .     S
O454   Zn462   1.999   .     S
O455   Zn461   1.999   .     S
O456   Zn461   1.969   .     S
O457   Zn462   1.969   .     S
O458   Zn462   1.981   .     S
O459   Zn461   1.981   .     S
C463   O517    1.289   .     A
C463   O520    1.288   .     A
C463   C476    1.435   .     S
C464   C466    1.411   .     A
C464   C491    1.408   .     A
C464   F494    1.357   .     S
C465   C492    1.410   .     A
C465   C485    1.409   .     A
C466   C487    1.409   .     A
C466   C69     1.515   1_556 S
C467   O524    1.281   .     A
C467   C469    1.402   .     S
C467   O522    1.278   .     A
C468   O525    1.281   .     A
C468   C470    1.403   .     S
C468   O523    1.279   .     A
C470   C535    1.330   .     S
C470   H573    1.088   .     S
C471   C482    1.400   .     A
C471   C473    1.381   .     A
C471   F493    1.358   .     S
C472   F495    1.358   .     S
C472   C483    1.399   .     A
C472   C475    1.381   .     A
C473   C476    1.398   .     A
C473   H508    1.083   .     S
C474   C477    1.435   .     S
C474   O519    1.288   .     A
C474   O521    1.289   .     A
C475   C477    1.399   .     A
C475   H509    1.084   .     S
C476   C478    1.398   .     A
C477   C479    1.397   .     A
C478   H510    1.084   .     S
C478   C480    1.381   .     A
C479   H511    1.082   .     S
C479   C481    1.381   .     A
C480   F496    1.358   .     S
C480   C482    1.400   .     A
C481   F497    1.358   .     S
C481   C483    1.400   .     A
C482   C681    1.440   1_545 S
C483   C680    1.440   .     S
C484   H512    1.109   .     S
C484   H514    1.111   .     S
C484   O526    1.411   .     S
C484   H513    1.114   .     S
C485   F498    1.358   .     S
C485   C488    1.416   .     A
C486   H504    1.109   .     S
C486   H506    1.111   .     S
C486   O518    1.411   .     S
C486   H505    1.114   .     S
C487   C489    1.415   .     A
C487   F499    1.358   .     S
C488   N515    1.370   .     A
C488   O526    1.379   .     S
C489   N516    1.369   .     A
C489   O518    1.379   .     S
C490   N515    1.367   .     A
C490   F500    1.353   .     S
C490   C492    1.408   .     A
C491   F501    1.354   .     S
C491   N516    1.366   .     A
C492   F502    1.357   .     S
H503   C535    1.087   .     S
N515   Zn528   2.012   .     S
N516   Zn527   2.012   .     S
O517   Zn527   1.997   .     S
O519   Zn528   1.997   .     S
O520   Zn528   1.999   .     S
O521   Zn527   1.999   .     S
O522   Zn527   1.969   .     S
O523   Zn528   1.969   .     S
O524   Zn528   1.981   .     S
O525   Zn527   1.981   .     S
C529   O583    1.289   .     A
C529   O586    1.288   .     A
C529   C542    1.435   .     S
C530   C532    1.411   .     A
C530   C557    1.408   .     A
C530   F560    1.357   .     S
C531   C558    1.410   .     A
C531   C551    1.409   .     A
C532   C553    1.409   .     A
C532   C135    1.515   1_556 S
C533   O590    1.281   .     A
C533   C535    1.402   .     S
C533   O588    1.278   .     A
C534   O591    1.281   .     A
C534   C536    1.403   .     S
C534   O589    1.279   .     A
C536   C403    1.330   1_655 S
C536   H441    1.088   1_655 S
C537   C548    1.400   .     A
C537   C539    1.381   .     A
C537   F559    1.358   .     S
C538   F561    1.358   .     S
C538   C549    1.399   .     A
C538   C541    1.381   .     A
C539   C542    1.398   .     A
C539   H574    1.083   .     S
C540   C543    1.435   .     S
C540   O585    1.288   .     A
C540   O587    1.289   .     A
C541   C543    1.399   .     A
C541   H575    1.084   .     S
C542   C544    1.398   .     A
C543   C545    1.397   .     A
C544   H576    1.084   .     S
C544   C546    1.381   .     A
C545   H577    1.082   .     S
C545   C547    1.381   .     A
C546   F562    1.358   .     S
C546   C548    1.400   .     A
C547   F563    1.358   .     S
C547   C549    1.400   .     A
C548   C747    1.440   1_545 S
C549   C746    1.440   .     S
C550   H578    1.109   .     S
C550   H580    1.111   .     S
C550   O592    1.411   .     S
C550   H579    1.114   .     S
C551   F564    1.358   .     S
C551   C554    1.416   .     A
C552   H570    1.109   .     S
C552   H572    1.111   .     S
C552   O584    1.411   .     S
C552   H571    1.114   .     S
C553   C555    1.415   .     A
C553   F565    1.358   .     S
C554   N581    1.370   .     A
C554   O592    1.379   .     S
C555   N582    1.369   .     A
C555   O584    1.379   .     S
C556   N581    1.367   .     A
C556   F566    1.353   .     S
C556   C558    1.408   .     A
C557   F567    1.354   .     S
C557   N582    1.366   .     A
C558   F568    1.357   .     S
H569   C403    1.087   1_655 S
N581   Zn594   2.012   .     S
N582   Zn593   2.012   .     S
O583   Zn593   1.997   .     S
O585   Zn594   1.997   .     S
O586   Zn594   1.999   .     S
O587   Zn593   1.999   .     S
O588   Zn593   1.969   .     S
O589   Zn594   1.969   .     S
O590   Zn594   1.981   .     S
O591   Zn593   1.981   .     S
C595   O649    1.289   .     A
C595   O652    1.288   .     A
C595   C608    1.435   .     S
C596   C598    1.411   .     A
C596   C623    1.408   .     A
C596   F626    1.357   .     S
C597   C624    1.410   .     A
C597   C617    1.409   .     A
C598   C619    1.409   .     A
C598   C201    1.515   1_556 S
C599   O656    1.281   .     A
C599   C601    1.402   .     S
C599   O654    1.278   .     A
C600   O657    1.281   .     A
C600   C602    1.403   .     S
C600   O655    1.279   .     A
C601   C734    1.330   1_455 S
C601   H767    1.087   1_455 S
C602   C667    1.330   .     S
C602   H705    1.088   .     S
C603   C614    1.400   .     A
C603   C605    1.381   .     A
C603   F625    1.358   .     S
C604   F627    1.358   .     S
C604   C615    1.399   .     A
C604   C607    1.381   .     A
C605   C608    1.398   .     A
C605   H640    1.083   .     S
C606   C609    1.435   .     S
C606   O651    1.288   .     A
C606   O653    1.289   .     A
C607   C609    1.399   .     A
C607   H641    1.084   .     S
C608   C610    1.398   .     A
C609   C611    1.397   .     A
C610   H642    1.084   .     S
C610   C612    1.381   .     A
C611   H643    1.082   .     S
C611   C613    1.381   .     A
C612   F628    1.358   .     S
C612   C614    1.400   .     A
C613   F629    1.358   .     S
C613   C615    1.400   .     A
C615   C416    1.440   1_565 S
C616   H644    1.109   .     S
C616   H646    1.111   .     S
C616   O658    1.411   .     S
C616   H645    1.114   .     S
C617   F630    1.358   .     S
C617   C620    1.416   .     A
C618   H636    1.109   .     S
C618   H638    1.111   .     S
C618   O650    1.411   .     S
C618   H637    1.114   .     S
C619   C621    1.415   .     A
C619   F631    1.358   .     S
C620   N647    1.370   .     A
C620   O658    1.379   .     S
C621   N648    1.369   .     A
C621   O650    1.379   .     S
C622   N647    1.367   .     A
C622   F632    1.353   .     S
C622   C624    1.408   .     A
C623   F633    1.354   .     S
C623   N648    1.366   .     A
C624   F634    1.357   .     S
H635   C667    1.087   .     S
H639   C734    1.088   1_455 S
N647   Zn660   2.012   .     S
N648   Zn659   2.012   .     S
O649   Zn659   1.997   .     S
O651   Zn660   1.997   .     S
O652   Zn660   1.999   .     S
O653   Zn659   1.999   .     S
O654   Zn659   1.969   .     S
O655   Zn660   1.969   .     S
O656   Zn660   1.981   .     S
O657   Zn659   1.981   .     S
C661   O715    1.289   .     A
C661   O718    1.288   .     A
C661   C674    1.435   .     S
C662   C664    1.411   .     A
C662   C689    1.408   .     A
C662   F692    1.357   .     S
C663   C690    1.410   .     A
C663   C683    1.409   .     A
C664   C685    1.409   .     A
C664   C267    1.515   1_556 S
C665   O722    1.281   .     A
C665   C667    1.402   .     S
C665   O720    1.278   .     A
C666   O723    1.281   .     A
C666   C668    1.403   .     S
C666   O721    1.279   .     A
C668   C733    1.330   .     S
C668   H771    1.088   .     S
C669   C680    1.400   .     A
C669   C671    1.381   .     A
C669   F691    1.358   .     S
C670   F693    1.358   .     S
C670   C681    1.399   .     A
C670   C673    1.381   .     A
C671   C674    1.398   .     A
C671   H706    1.083   .     S
C672   C675    1.435   .     S
C672   O717    1.288   .     A
C672   O719    1.289   .     A
C673   C675    1.399   .     A
C673   H707    1.084   .     S
C674   C676    1.398   .     A
C675   C677    1.397   .     A
C676   H708    1.084   .     S
C676   C678    1.381   .     A
C677   H709    1.082   .     S
C677   C679    1.381   .     A
C678   F694    1.358   .     S
C678   C680    1.400   .     A
C679   F695    1.358   .     S
C679   C681    1.400   .     A
C681   C482    1.440   1_565 S
C682   H710    1.109   .     S
C682   H712    1.111   .     S
C682   O724    1.411   .     S
C682   H711    1.114   .     S
C683   F696    1.358   .     S
C683   C686    1.416   .     A
C684   H702    1.109   .     S
C684   H704    1.111   .     S
C684   O716    1.411   .     S
C684   H703    1.114   .     S
C685   C687    1.415   .     A
C685   F697    1.358   .     S
C686   N713    1.370   .     A
C686   O724    1.379   .     S
C687   N714    1.369   .     A
C687   O716    1.379   .     S
C688   N713    1.367   .     A
C688   F698    1.353   .     S
C688   C690    1.408   .     A
C689   F699    1.354   .     S
C689   N714    1.366   .     A
C690   F700    1.357   .     S
H701   C733    1.087   .     S
N713   Zn726   2.012   .     S
N714   Zn725   2.012   .     S
O715   Zn725   1.997   .     S
O717   Zn726   1.997   .     S
O718   Zn726   1.999   .     S
O719   Zn725   1.999   .     S
O720   Zn725   1.969   .     S
O721   Zn726   1.969   .     S
O722   Zn726   1.981   .     S
O723   Zn725   1.981   .     S
C727   O781    1.289   .     A
C727   O784    1.288   .     A
C727   C740    1.435   .     S
C728   C730    1.411   .     A
C728   C755    1.408   .     A
C728   F758    1.357   .     S
C729   C756    1.410   .     A
C729   C749    1.409   .     A
C730   C751    1.409   .     A
C730   C333    1.515   1_556 S
C731   O788    1.281   .     A
C731   C733    1.402   .     S
C731   O786    1.278   .     A
C732   O789    1.281   .     A
C732   C734    1.403   .     S
C732   O787    1.279   .     A
C734   C601    1.330   1_655 S
C734   H639    1.088   1_655 S
C735   C746    1.400   .     A
C735   C737    1.381   .     A
C735   F757    1.358   .     S
C736   F759    1.358   .     S
C736   C747    1.399   .     A
C736   C739    1.381   .     A
C737   C740    1.398   .     A
C737   H772    1.083   .     S
C738   C741    1.435   .     S
C738   O783    1.288   .     A
C738   O785    1.289   .     A
C739   C741    1.399   .     A
C739   H773    1.084   .     S
C740   C742    1.398   .     A
C741   C743    1.397   .     A
C742   H774    1.084   .     S
C742   C744    1.381   .     A
C743   H775    1.082   .     S
C743   C745    1.381   .     A
C744   F760    1.358   .     S
C744   C746    1.400   .     A
C745   F761    1.358   .     S
C745   C747    1.400   .     A
C747   C548    1.440   1_565 S
C748   H776    1.109   .     S
C748   H778    1.111   .     S
C748   O790    1.411   .     S
C748   H777    1.114   .     S
C749   F762    1.358   .     S
C749   C752    1.416   .     A
C750   H768    1.109   .     S
C750   H770    1.111   .     S
C750   O782    1.411   .     S
C750   H769    1.114   .     S
C751   C753    1.415   .     A
C751   F763    1.358   .     S
C752   N779    1.370   .     A
C752   O790    1.379   .     S
C753   N780    1.369   .     A
C753   O782    1.379   .     S
C754   N779    1.367   .     A
C754   F764    1.353   .     S
C754   C756    1.408   .     A
C755   F765    1.354   .     S
C755   N780    1.366   .     A
C756   F766    1.357   .     S
H767   C601    1.087   1_655 S
N779   Zn792   2.012   .     S
N780   Zn791   2.012   .     S
O781   Zn791   1.997   .     S
O783   Zn792   1.997   .     S
O784   Zn792   1.999   .     S
O785   Zn791   1.999   .     S
O786   Zn791   1.969   .     S
O787   Zn792   1.969   .     S
O788   Zn792   1.981   .     S
O789   Zn791   1.981   .     S
