data_str_m3_o1_o16_pcu_sym.124
_audit_creation_date              2020-01-03
_audit_creation_method            'Materials Studio'
_symmetry_space_group_name_H-M    'P1'
_symmetry_Int_Tables_number       1
_symmetry_cell_setting            triclinic
loop_
_symmetry_equiv_pos_as_xyz
  x,y,z
_cell_length_a                    29.5000
_cell_length_b                    31.9908
_cell_length_c                    26.2551
_cell_angle_alpha                 90.2124
_cell_angle_beta                  69.7814
_cell_angle_gamma                 90.5543
loop_
_atom_site_label
_atom_site_type_symbol
_atom_site_fract_x
_atom_site_fract_y
_atom_site_fract_z
_atom_site_U_iso_or_equiv
_atom_site_adp_type
_atom_site_occupancy
C1     C     0.16662   0.24689   0.25075   0.00000  Uiso   1.00
C2     C     0.14355   0.15864   0.49265   0.00000  Uiso   1.00
C3     C     0.15376   0.14735   0.43803   0.00000  Uiso   1.00
C4     C     0.18106   0.15569   0.01457   0.00000  Uiso   1.00
C5     C     0.22353   0.13291   0.48616   0.00000  Uiso   1.00
C6     C     0.22940   0.11596   0.43547   0.00000  Uiso   1.00
C7     C     0.19509   0.12324   0.41153   0.00000  Uiso   1.00
C8     C     0.17869   0.17573   0.06298   0.00000  Uiso   1.00
C9     C     0.25194   0.14113   0.06154   0.00000  Uiso   1.00
C10    C     0.12228   0.16063   0.41138   0.00000  Uiso   1.00
C11    C     0.20088   0.31180   0.27050   0.00000  Uiso   1.00
C12    C     0.13984   0.16445   0.35224   0.00000  Uiso   1.00
C13    C     0.19825   0.02102   0.27933   0.00000  Uiso   1.00
C14    C     0.15959   0.04297   0.27134   0.00000  Uiso   1.00
C15    C     0.11850   0.02057   0.26960   0.00000  Uiso   1.00
C16    C     0.12281   0.31170   0.25920   0.00000  Uiso   1.00
C17    C     0.16460   0.29113   0.25755   0.00000  Uiso   1.00
C18    C     0.32030   0.14368   0.21211   0.00000  Uiso   1.00
C19    C     0.03559   0.14453   0.21188   0.00000  Uiso   1.00
C20    C     0.01253   0.18878   0.28802   0.00000  Uiso   1.00
C21    C     0.29800   0.18892   0.28787   0.00000  Uiso   1.00
C22    C     0.16396   0.08713   0.25841   0.00000  Uiso   1.00
C23    C     0.19350   0.16727   0.14783   0.00000  Uiso   1.00
C24    C     0.25934   0.12695   0.00921   0.00000  Uiso   1.00
C25    C     0.21029   0.16363   0.08926   0.00000  Uiso   1.00
C26    C     0.07597   0.17490   0.44185   0.00000  Uiso   1.00
C27    C     0.06223   0.17820   0.49796   0.00000  Uiso   1.00
C28    C     0.09585   0.17094   0.02329   0.00000  Uiso   1.00
H29    H     0.27751   0.13311   0.08108   0.00000  Uiso   1.00
H30    H     0.09250   0.29450   0.25489   0.00000  Uiso   1.00
H31    H     0.06377   0.12778   0.18127   0.00000  Uiso   1.00
H32    H     0.02157   0.20653   0.31840   0.00000  Uiso   1.00
H33    H     0.27079   0.20690   0.31808   0.00000  Uiso   1.00
H34    H     0.26109   0.09786   0.41377   0.00000  Uiso   1.00
H35    H     0.29168   0.10944   0.48800   0.00000  Uiso   1.00
H36    H     0.05075   0.18408   0.42228   0.00000  Uiso   1.00
H37    H     0.08327   0.17343   0.06697   0.00000  Uiso   1.00
H38    H     0.02599   0.18793   0.02170   0.00000  Uiso   1.00
H39    H     0.20071   0.10897   0.37255   0.00000  Uiso   1.00
H40    H     0.23076   0.29467   0.27520   0.00000  Uiso   1.00
N41    N     0.04760   0.16668   0.25002   0.00000  Uiso   1.00
N42    N     0.28573   0.16665   0.25000   0.00000  Uiso   1.00
O43    O     0.12846   0.22775   0.25001   0.00000  Uiso   1.00
O44    O     0.20490   0.22774   0.25001   0.00000  Uiso   1.00
O45    O     0.10947   0.16666   0.32681   0.00000  Uiso   1.00
O46    O     0.18591   0.16665   0.32681   0.00000  Uiso   1.00
O47    O     0.12843   0.10559   0.25000   0.00000  Uiso   1.00
O48    O     0.20488   0.10558   0.24999   0.00000  Uiso   1.00
O49    O     0.14742   0.16668   0.17319   0.00000  Uiso   1.00
O50    O     0.22387   0.16667   0.17319   0.00000  Uiso   1.00
Zn51   Zn    0.11562   0.16667   0.25000   0.00000  Uiso   1.00
Zn52   Zn    0.21771   0.16666   0.25000   0.00000  Uiso   1.00
C53    C     0.23156   0.03859   0.30542   0.00000  Uiso   1.00
O54    O     0.25994   0.06676   0.28444   0.00000  Uiso   1.00
O55    O     0.23254   0.02011   0.35321   0.00000  Uiso   1.00
H56    H     0.25812   0.03285   0.36631   0.00000  Uiso   1.00
C57    C     0.06950   0.03847   0.28307   0.00000  Uiso   1.00
O58    O     0.05541   0.06532   0.31820   0.00000  Uiso   1.00
O59    O     0.03811   0.02207   0.25849   0.00000  Uiso   1.00
H60    H     0.00457   0.03398   0.27454   0.00000  Uiso   1.00
O61    O     0.30684   0.12229   0.17323   0.00000  Uiso   1.00
C62    C     0.33013   0.08325   0.15939   0.00000  Uiso   1.00
H63    H     0.00307   0.06841   0.19460   0.00000  Uiso   1.00
H64    H     0.03201   0.08763   0.12595   0.00000  Uiso   1.00
C65    C     0.29842   0.05364   0.13992   0.00000  Uiso   1.00
H66    H     0.26104   0.05333   0.16980   0.00000  Uiso   1.00
H67    H     0.29711   0.06475   0.10045   0.00000  Uiso   1.00
C68    C     0.31771   0.00910   0.13299   0.00000  Uiso   1.00
H69    H     0.02180   0.00842   0.10322   0.00000  Uiso   1.00
H70    H     0.29436   0.32203   0.11797   0.00000  Uiso   1.00
H71    H     0.31748   0.32995   0.17252   0.00000  Uiso   1.00
O72    O     0.14523   0.20670   0.08577   0.00000  Uiso   1.00
C73    C     0.16578   0.24655   0.06767   0.00000  Uiso   1.00
H74    H     0.14029   0.26357   0.05256   0.00000  Uiso   1.00
H75    H     0.20115   0.24574   0.03336   0.00000  Uiso   1.00
C76    C     0.17164   0.27093   0.11532   0.00000  Uiso   1.00
H77    H     0.13643   0.27162   0.14928   0.00000  Uiso   1.00
H78    H     0.19839   0.25504   0.12953   0.00000  Uiso   1.00
C79    C     0.18883   0.31574   0.09944   0.00000  Uiso   1.00
H80    H     0.22436   0.31588   0.06597   0.00000  Uiso   1.00
H81    H     0.19288   0.33225   0.13494   0.00000  Uiso   1.00
H82    H     0.16214   0.33277   0.08628   0.00000  Uiso   1.00
C83    C     0.49995   0.24689   0.25075   0.00000  Uiso   1.00
C84    C     0.47688   0.15864   0.49265   0.00000  Uiso   1.00
C85    C     0.48709   0.14735   0.43803   0.00000  Uiso   1.00
C86    C     0.51439   0.15569   0.01457   0.00000  Uiso   1.00
C87    C     0.55686   0.13291   0.48616   0.00000  Uiso   1.00
C88    C     0.56273   0.11596   0.43547   0.00000  Uiso   1.00
C89    C     0.52842   0.12324   0.41153   0.00000  Uiso   1.00
C90    C     0.51203   0.17573   0.06298   0.00000  Uiso   1.00
C91    C     0.58528   0.14113   0.06154   0.00000  Uiso   1.00
C92    C     0.45561   0.16063   0.41138   0.00000  Uiso   1.00
C93    C     0.53421   0.31180   0.27050   0.00000  Uiso   1.00
C94    C     0.47318   0.16445   0.35224   0.00000  Uiso   1.00
C95    C     0.53158   0.02102   0.27933   0.00000  Uiso   1.00
C96    C     0.49292   0.04297   0.27134   0.00000  Uiso   1.00
C97    C     0.45183   0.02057   0.26960   0.00000  Uiso   1.00
C98    C     0.45615   0.31170   0.25920   0.00000  Uiso   1.00
C99    C     0.49793   0.29113   0.25755   0.00000  Uiso   1.00
C100   C     0.65363   0.14368   0.21211   0.00000  Uiso   1.00
C101   C     0.36892   0.14453   0.21188   0.00000  Uiso   1.00
C102   C     0.34587   0.18878   0.28802   0.00000  Uiso   1.00
C103   C     0.63133   0.18892   0.28787   0.00000  Uiso   1.00
C104   C     0.49729   0.08713   0.25841   0.00000  Uiso   1.00
C105   C     0.52683   0.16727   0.14783   0.00000  Uiso   1.00
C106   C     0.59268   0.12695   0.00921   0.00000  Uiso   1.00
C107   C     0.54362   0.16363   0.08926   0.00000  Uiso   1.00
C108   C     0.40931   0.17490   0.44185   0.00000  Uiso   1.00
C109   C     0.39556   0.17820   0.49796   0.00000  Uiso   1.00
C110   C     0.42919   0.17094   0.02329   0.00000  Uiso   1.00
H111   H     0.61084   0.13311   0.08108   0.00000  Uiso   1.00
H112   H     0.42583   0.29450   0.25489   0.00000  Uiso   1.00
H113   H     0.39710   0.12778   0.18127   0.00000  Uiso   1.00
H114   H     0.35491   0.20653   0.31840   0.00000  Uiso   1.00
H115   H     0.60412   0.20690   0.31808   0.00000  Uiso   1.00
H116   H     0.59443   0.09786   0.41377   0.00000  Uiso   1.00
H117   H     0.62501   0.10944   0.48800   0.00000  Uiso   1.00
H118   H     0.38409   0.18408   0.42228   0.00000  Uiso   1.00
H119   H     0.41661   0.17343   0.06697   0.00000  Uiso   1.00
H120   H     0.35933   0.18793   0.02170   0.00000  Uiso   1.00
H121   H     0.53404   0.10897   0.37255   0.00000  Uiso   1.00
H122   H     0.56409   0.29467   0.27520   0.00000  Uiso   1.00
N123   N     0.38093   0.16668   0.25002   0.00000  Uiso   1.00
N124   N     0.61906   0.16665   0.25000   0.00000  Uiso   1.00
O125   O     0.46179   0.22775   0.25001   0.00000  Uiso   1.00
O126   O     0.53823   0.22774   0.25001   0.00000  Uiso   1.00
O127   O     0.44280   0.16666   0.32681   0.00000  Uiso   1.00
O128   O     0.51924   0.16665   0.32681   0.00000  Uiso   1.00
O129   O     0.46177   0.10559   0.25000   0.00000  Uiso   1.00
O130   O     0.53821   0.10558   0.24999   0.00000  Uiso   1.00
O131   O     0.48076   0.16668   0.17319   0.00000  Uiso   1.00
O132   O     0.55720   0.16667   0.17319   0.00000  Uiso   1.00
Zn133  Zn    0.44896   0.16667   0.25000   0.00000  Uiso   1.00
Zn134  Zn    0.55104   0.16666   0.25000   0.00000  Uiso   1.00
C135   C     0.56490   0.03859   0.30542   0.00000  Uiso   1.00
O136   O     0.59327   0.06676   0.28444   0.00000  Uiso   1.00
O137   O     0.56587   0.02011   0.35321   0.00000  Uiso   1.00
H138   H     0.59145   0.03285   0.36631   0.00000  Uiso   1.00
C139   C     0.40284   0.03847   0.28307   0.00000  Uiso   1.00
O140   O     0.38874   0.06532   0.31820   0.00000  Uiso   1.00
O141   O     0.37144   0.02207   0.25849   0.00000  Uiso   1.00
H142   H     0.33790   0.03398   0.27454   0.00000  Uiso   1.00
O143   O     0.64018   0.12229   0.17323   0.00000  Uiso   1.00
C144   C     0.66346   0.08325   0.15939   0.00000  Uiso   1.00
H145   H     0.33640   0.06841   0.19460   0.00000  Uiso   1.00
H146   H     0.36534   0.08763   0.12595   0.00000  Uiso   1.00
C147   C     0.63175   0.05364   0.13992   0.00000  Uiso   1.00
H148   H     0.59438   0.05333   0.16980   0.00000  Uiso   1.00
H149   H     0.63044   0.06475   0.10045   0.00000  Uiso   1.00
C150   C     0.65105   0.00910   0.13299   0.00000  Uiso   1.00
H151   H     0.35513   0.00842   0.10322   0.00000  Uiso   1.00
H152   H     0.62770   0.32203   0.11797   0.00000  Uiso   1.00
H153   H     0.65082   0.32995   0.17252   0.00000  Uiso   1.00
O154   O     0.47857   0.20670   0.08577   0.00000  Uiso   1.00
C155   C     0.49911   0.24655   0.06767   0.00000  Uiso   1.00
H156   H     0.47363   0.26357   0.05256   0.00000  Uiso   1.00
H157   H     0.53448   0.24574   0.03336   0.00000  Uiso   1.00
C158   C     0.50498   0.27093   0.11532   0.00000  Uiso   1.00
H159   H     0.46976   0.27162   0.14928   0.00000  Uiso   1.00
H160   H     0.53172   0.25504   0.12953   0.00000  Uiso   1.00
C161   C     0.52216   0.31574   0.09944   0.00000  Uiso   1.00
H162   H     0.55769   0.31588   0.06597   0.00000  Uiso   1.00
H163   H     0.52621   0.33225   0.13494   0.00000  Uiso   1.00
H164   H     0.49547   0.33277   0.08628   0.00000  Uiso   1.00
C165   C     0.83329   0.24689   0.25075   0.00000  Uiso   1.00
C166   C     0.81021   0.15864   0.49265   0.00000  Uiso   1.00
C167   C     0.82042   0.14735   0.43803   0.00000  Uiso   1.00
C168   C     0.84773   0.15569   0.01457   0.00000  Uiso   1.00
C169   C     0.89019   0.13291   0.48616   0.00000  Uiso   1.00
C170   C     0.89607   0.11596   0.43547   0.00000  Uiso   1.00
C171   C     0.86176   0.12324   0.41153   0.00000  Uiso   1.00
C172   C     0.84536   0.17573   0.06298   0.00000  Uiso   1.00
C173   C     0.91861   0.14113   0.06154   0.00000  Uiso   1.00
C174   C     0.78894   0.16063   0.41138   0.00000  Uiso   1.00
C175   C     0.86754   0.31180   0.27050   0.00000  Uiso   1.00
C176   C     0.80651   0.16445   0.35224   0.00000  Uiso   1.00
C177   C     0.86492   0.02102   0.27933   0.00000  Uiso   1.00
C178   C     0.82626   0.04297   0.27134   0.00000  Uiso   1.00
C179   C     0.78516   0.02057   0.26960   0.00000  Uiso   1.00
C180   C     0.78948   0.31170   0.25920   0.00000  Uiso   1.00
C181   C     0.83127   0.29113   0.25755   0.00000  Uiso   1.00
C182   C     0.98697   0.14368   0.21211   0.00000  Uiso   1.00
C183   C     0.70225   0.14453   0.21188   0.00000  Uiso   1.00
C184   C     0.67920   0.18878   0.28802   0.00000  Uiso   1.00
C185   C     0.96467   0.18892   0.28787   0.00000  Uiso   1.00
C186   C     0.83063   0.08713   0.25841   0.00000  Uiso   1.00
C187   C     0.86016   0.16727   0.14783   0.00000  Uiso   1.00
C188   C     0.92601   0.12695   0.00921   0.00000  Uiso   1.00
C189   C     0.87695   0.16363   0.08926   0.00000  Uiso   1.00
C190   C     0.74264   0.17490   0.44185   0.00000  Uiso   1.00
C191   C     0.72889   0.17820   0.49796   0.00000  Uiso   1.00
C192   C     0.76252   0.17094   0.02329   0.00000  Uiso   1.00
H193   H     0.94417   0.13311   0.08108   0.00000  Uiso   1.00
H194   H     0.75916   0.29450   0.25489   0.00000  Uiso   1.00
H195   H     0.73043   0.12778   0.18127   0.00000  Uiso   1.00
H196   H     0.68824   0.20653   0.31840   0.00000  Uiso   1.00
H197   H     0.93745   0.20690   0.31808   0.00000  Uiso   1.00
H198   H     0.92776   0.09786   0.41377   0.00000  Uiso   1.00
H199   H     0.95835   0.10944   0.48800   0.00000  Uiso   1.00
H200   H     0.71742   0.18408   0.42228   0.00000  Uiso   1.00
H201   H     0.74994   0.17343   0.06697   0.00000  Uiso   1.00
H202   H     0.69266   0.18793   0.02170   0.00000  Uiso   1.00
H203   H     0.86738   0.10897   0.37255   0.00000  Uiso   1.00
H204   H     0.89742   0.29467   0.27520   0.00000  Uiso   1.00
N205   N     0.71426   0.16668   0.25002   0.00000  Uiso   1.00
N206   N     0.95239   0.16665   0.25000   0.00000  Uiso   1.00
O207   O     0.79512   0.22775   0.25001   0.00000  Uiso   1.00
O208   O     0.87157   0.22774   0.25001   0.00000  Uiso   1.00
O209   O     0.77613   0.16666   0.32681   0.00000  Uiso   1.00
O210   O     0.85258   0.16665   0.32681   0.00000  Uiso   1.00
O211   O     0.79510   0.10559   0.25000   0.00000  Uiso   1.00
O212   O     0.87154   0.10558   0.24999   0.00000  Uiso   1.00
O213   O     0.81409   0.16668   0.17319   0.00000  Uiso   1.00
O214   O     0.89053   0.16667   0.17319   0.00000  Uiso   1.00
Zn215  Zn    0.78229   0.16667   0.25000   0.00000  Uiso   1.00
Zn216  Zn    0.88438   0.16666   0.25000   0.00000  Uiso   1.00
C217   C     0.89823   0.03859   0.30542   0.00000  Uiso   1.00
O218   O     0.92660   0.06676   0.28444   0.00000  Uiso   1.00
O219   O     0.89920   0.02011   0.35321   0.00000  Uiso   1.00
H220   H     0.92479   0.03285   0.36631   0.00000  Uiso   1.00
C221   C     0.73617   0.03847   0.28307   0.00000  Uiso   1.00
O222   O     0.72207   0.06532   0.31820   0.00000  Uiso   1.00
O223   O     0.70478   0.02207   0.25849   0.00000  Uiso   1.00
H224   H     0.67124   0.03398   0.27454   0.00000  Uiso   1.00
O225   O     0.97351   0.12229   0.17323   0.00000  Uiso   1.00
C226   C     0.99679   0.08325   0.15939   0.00000  Uiso   1.00
H227   H     0.66974   0.06841   0.19460   0.00000  Uiso   1.00
H228   H     0.69867   0.08763   0.12595   0.00000  Uiso   1.00
C229   C     0.96509   0.05364   0.13992   0.00000  Uiso   1.00
H230   H     0.92771   0.05333   0.16980   0.00000  Uiso   1.00
H231   H     0.96378   0.06475   0.10045   0.00000  Uiso   1.00
C232   C     0.98438   0.00910   0.13299   0.00000  Uiso   1.00
H233   H     0.68846   0.00842   0.10322   0.00000  Uiso   1.00
H234   H     0.96103   0.32203   0.11797   0.00000  Uiso   1.00
H235   H     0.98415   0.32995   0.17252   0.00000  Uiso   1.00
O236   O     0.81190   0.20670   0.08577   0.00000  Uiso   1.00
C237   C     0.83244   0.24655   0.06767   0.00000  Uiso   1.00
H238   H     0.80696   0.26357   0.05256   0.00000  Uiso   1.00
H239   H     0.86782   0.24574   0.03336   0.00000  Uiso   1.00
C240   C     0.83831   0.27093   0.11532   0.00000  Uiso   1.00
H241   H     0.80309   0.27162   0.14928   0.00000  Uiso   1.00
H242   H     0.86505   0.25504   0.12953   0.00000  Uiso   1.00
C243   C     0.85550   0.31574   0.09944   0.00000  Uiso   1.00
H244   H     0.89103   0.31588   0.06597   0.00000  Uiso   1.00
H245   H     0.85955   0.33225   0.13494   0.00000  Uiso   1.00
H246   H     0.82880   0.33277   0.08628   0.00000  Uiso   1.00
C247   C     0.16662   0.58023   0.25075   0.00000  Uiso   1.00
C248   C     0.14355   0.49198   0.49265   0.00000  Uiso   1.00
C249   C     0.15376   0.48068   0.43803   0.00000  Uiso   1.00
C250   C     0.18106   0.48902   0.01457   0.00000  Uiso   1.00
C251   C     0.22353   0.46625   0.48616   0.00000  Uiso   1.00
C252   C     0.22940   0.44929   0.43547   0.00000  Uiso   1.00
C253   C     0.19509   0.45657   0.41153   0.00000  Uiso   1.00
C254   C     0.17869   0.50906   0.06298   0.00000  Uiso   1.00
C255   C     0.25194   0.47446   0.06154   0.00000  Uiso   1.00
C256   C     0.12228   0.49397   0.41138   0.00000  Uiso   1.00
C257   C     0.20088   0.64513   0.27050   0.00000  Uiso   1.00
C258   C     0.13984   0.49778   0.35224   0.00000  Uiso   1.00
C259   C     0.19825   0.35435   0.27933   0.00000  Uiso   1.00
C260   C     0.15959   0.37630   0.27134   0.00000  Uiso   1.00
C261   C     0.11850   0.35390   0.26960   0.00000  Uiso   1.00
C262   C     0.12281   0.64504   0.25920   0.00000  Uiso   1.00
C263   C     0.16460   0.62447   0.25755   0.00000  Uiso   1.00
C264   C     0.32030   0.47702   0.21211   0.00000  Uiso   1.00
C265   C     0.03559   0.47787   0.21188   0.00000  Uiso   1.00
C266   C     0.01253   0.52211   0.28802   0.00000  Uiso   1.00
C267   C     0.29800   0.52226   0.28787   0.00000  Uiso   1.00
C268   C     0.16396   0.42047   0.25841   0.00000  Uiso   1.00
C269   C     0.19350   0.50060   0.14783   0.00000  Uiso   1.00
C270   C     0.25934   0.46029   0.00921   0.00000  Uiso   1.00
C271   C     0.21029   0.49696   0.08926   0.00000  Uiso   1.00
C272   C     0.07597   0.50823   0.44185   0.00000  Uiso   1.00
C273   C     0.06223   0.51153   0.49796   0.00000  Uiso   1.00
C274   C     0.09585   0.50427   0.02329   0.00000  Uiso   1.00
H275   H     0.27751   0.46645   0.08108   0.00000  Uiso   1.00
H276   H     0.09250   0.62783   0.25489   0.00000  Uiso   1.00
H277   H     0.06377   0.46111   0.18127   0.00000  Uiso   1.00
H278   H     0.02157   0.53986   0.31840   0.00000  Uiso   1.00
H279   H     0.27079   0.54024   0.31808   0.00000  Uiso   1.00
H280   H     0.26109   0.43119   0.41377   0.00000  Uiso   1.00
H281   H     0.29168   0.44277   0.48800   0.00000  Uiso   1.00
H282   H     0.05075   0.51742   0.42228   0.00000  Uiso   1.00
H283   H     0.08327   0.50677   0.06697   0.00000  Uiso   1.00
H284   H     0.02599   0.52126   0.02170   0.00000  Uiso   1.00
H285   H     0.20071   0.44230   0.37255   0.00000  Uiso   1.00
H286   H     0.23076   0.62800   0.27520   0.00000  Uiso   1.00
N287   N     0.04760   0.50001   0.25002   0.00000  Uiso   1.00
N288   N     0.28573   0.49998   0.25000   0.00000  Uiso   1.00
O289   O     0.12846   0.56108   0.25001   0.00000  Uiso   1.00
O290   O     0.20490   0.56107   0.25001   0.00000  Uiso   1.00
O291   O     0.10947   0.50000   0.32681   0.00000  Uiso   1.00
O292   O     0.18591   0.49999   0.32681   0.00000  Uiso   1.00
O293   O     0.12843   0.43893   0.25000   0.00000  Uiso   1.00
O294   O     0.20488   0.43892   0.24999   0.00000  Uiso   1.00
O295   O     0.14742   0.50001   0.17319   0.00000  Uiso   1.00
O296   O     0.22387   0.50000   0.17319   0.00000  Uiso   1.00
Zn297  Zn    0.11562   0.50001   0.25000   0.00000  Uiso   1.00
Zn298  Zn    0.21771   0.49999   0.25000   0.00000  Uiso   1.00
C299   C     0.23156   0.37192   0.30542   0.00000  Uiso   1.00
O300   O     0.25994   0.40010   0.28444   0.00000  Uiso   1.00
O301   O     0.23254   0.35344   0.35321   0.00000  Uiso   1.00
H302   H     0.25812   0.36619   0.36631   0.00000  Uiso   1.00
C303   C     0.06950   0.37180   0.28307   0.00000  Uiso   1.00
O304   O     0.05541   0.39865   0.31820   0.00000  Uiso   1.00
O305   O     0.03811   0.35541   0.25849   0.00000  Uiso   1.00
H306   H     0.00457   0.36731   0.27454   0.00000  Uiso   1.00
O307   O     0.30684   0.45562   0.17323   0.00000  Uiso   1.00
C308   C     0.33013   0.41659   0.15939   0.00000  Uiso   1.00
H309   H     0.00307   0.40174   0.19460   0.00000  Uiso   1.00
H310   H     0.03201   0.42096   0.12595   0.00000  Uiso   1.00
C311   C     0.29842   0.38697   0.13992   0.00000  Uiso   1.00
H312   H     0.26104   0.38667   0.16980   0.00000  Uiso   1.00
H313   H     0.29711   0.39808   0.10045   0.00000  Uiso   1.00
C314   C     0.31771   0.34243   0.13299   0.00000  Uiso   1.00
H315   H     0.02180   0.34176   0.10322   0.00000  Uiso   1.00
H316   H     0.29436   0.65537   0.11797   0.00000  Uiso   1.00
H317   H     0.31748   0.66328   0.17252   0.00000  Uiso   1.00
O318   O     0.14523   0.54003   0.08577   0.00000  Uiso   1.00
C319   C     0.16578   0.57988   0.06767   0.00000  Uiso   1.00
H320   H     0.14029   0.59690   0.05256   0.00000  Uiso   1.00
H321   H     0.20115   0.57907   0.03336   0.00000  Uiso   1.00
C322   C     0.17164   0.60427   0.11532   0.00000  Uiso   1.00
H323   H     0.13643   0.60495   0.14928   0.00000  Uiso   1.00
H324   H     0.19839   0.58837   0.12953   0.00000  Uiso   1.00
C325   C     0.18883   0.64907   0.09944   0.00000  Uiso   1.00
H326   H     0.22436   0.64921   0.06597   0.00000  Uiso   1.00
H327   H     0.19288   0.66558   0.13494   0.00000  Uiso   1.00
H328   H     0.16214   0.66610   0.08628   0.00000  Uiso   1.00
C329   C     0.49995   0.58023   0.25075   0.00000  Uiso   1.00
C330   C     0.47688   0.49198   0.49265   0.00000  Uiso   1.00
C331   C     0.48709   0.48068   0.43803   0.00000  Uiso   1.00
C332   C     0.51439   0.48902   0.01457   0.00000  Uiso   1.00
C333   C     0.55686   0.46625   0.48616   0.00000  Uiso   1.00
C334   C     0.56273   0.44929   0.43547   0.00000  Uiso   1.00
C335   C     0.52842   0.45657   0.41153   0.00000  Uiso   1.00
C336   C     0.51203   0.50906   0.06298   0.00000  Uiso   1.00
C337   C     0.58528   0.47446   0.06154   0.00000  Uiso   1.00
C338   C     0.45561   0.49397   0.41138   0.00000  Uiso   1.00
C339   C     0.53421   0.64513   0.27050   0.00000  Uiso   1.00
C340   C     0.47318   0.49778   0.35224   0.00000  Uiso   1.00
C341   C     0.53158   0.35435   0.27933   0.00000  Uiso   1.00
C342   C     0.49292   0.37630   0.27134   0.00000  Uiso   1.00
C343   C     0.45183   0.35390   0.26960   0.00000  Uiso   1.00
C344   C     0.45615   0.64504   0.25920   0.00000  Uiso   1.00
C345   C     0.49793   0.62447   0.25755   0.00000  Uiso   1.00
C346   C     0.65363   0.47702   0.21211   0.00000  Uiso   1.00
C347   C     0.36892   0.47787   0.21188   0.00000  Uiso   1.00
C348   C     0.34587   0.52211   0.28802   0.00000  Uiso   1.00
C349   C     0.63133   0.52226   0.28787   0.00000  Uiso   1.00
C350   C     0.49729   0.42047   0.25841   0.00000  Uiso   1.00
C351   C     0.52683   0.50060   0.14783   0.00000  Uiso   1.00
C352   C     0.59268   0.46029   0.00921   0.00000  Uiso   1.00
C353   C     0.54362   0.49696   0.08926   0.00000  Uiso   1.00
C354   C     0.40931   0.50823   0.44185   0.00000  Uiso   1.00
C355   C     0.39556   0.51153   0.49796   0.00000  Uiso   1.00
C356   C     0.42919   0.50427   0.02329   0.00000  Uiso   1.00
H357   H     0.61084   0.46645   0.08108   0.00000  Uiso   1.00
H358   H     0.42583   0.62783   0.25489   0.00000  Uiso   1.00
H359   H     0.39710   0.46111   0.18127   0.00000  Uiso   1.00
H360   H     0.35491   0.53986   0.31840   0.00000  Uiso   1.00
H361   H     0.60412   0.54024   0.31808   0.00000  Uiso   1.00
H362   H     0.59443   0.43119   0.41377   0.00000  Uiso   1.00
H363   H     0.62501   0.44277   0.48800   0.00000  Uiso   1.00
H364   H     0.38409   0.51742   0.42228   0.00000  Uiso   1.00
H365   H     0.41661   0.50677   0.06697   0.00000  Uiso   1.00
H366   H     0.35933   0.52126   0.02170   0.00000  Uiso   1.00
H367   H     0.53404   0.44230   0.37255   0.00000  Uiso   1.00
H368   H     0.56409   0.62800   0.27520   0.00000  Uiso   1.00
N369   N     0.38093   0.50001   0.25002   0.00000  Uiso   1.00
N370   N     0.61906   0.49998   0.25000   0.00000  Uiso   1.00
O371   O     0.46179   0.56108   0.25001   0.00000  Uiso   1.00
O372   O     0.53823   0.56107   0.25001   0.00000  Uiso   1.00
O373   O     0.44280   0.50000   0.32681   0.00000  Uiso   1.00
O374   O     0.51924   0.49999   0.32681   0.00000  Uiso   1.00
O375   O     0.46177   0.43893   0.25000   0.00000  Uiso   1.00
O376   O     0.53821   0.43892   0.24999   0.00000  Uiso   1.00
O377   O     0.48076   0.50001   0.17319   0.00000  Uiso   1.00
O378   O     0.55720   0.50000   0.17319   0.00000  Uiso   1.00
Zn379  Zn    0.44896   0.50001   0.25000   0.00000  Uiso   1.00
Zn380  Zn    0.55104   0.49999   0.25000   0.00000  Uiso   1.00
C381   C     0.56490   0.37192   0.30542   0.00000  Uiso   1.00
O382   O     0.59327   0.40010   0.28444   0.00000  Uiso   1.00
O383   O     0.56587   0.35344   0.35321   0.00000  Uiso   1.00
H384   H     0.59145   0.36619   0.36631   0.00000  Uiso   1.00
C385   C     0.40284   0.37180   0.28307   0.00000  Uiso   1.00
O386   O     0.38874   0.39865   0.31820   0.00000  Uiso   1.00
O387   O     0.37144   0.35541   0.25849   0.00000  Uiso   1.00
H388   H     0.33790   0.36731   0.27454   0.00000  Uiso   1.00
O389   O     0.64018   0.45562   0.17323   0.00000  Uiso   1.00
C390   C     0.66346   0.41659   0.15939   0.00000  Uiso   1.00
H391   H     0.33640   0.40174   0.19460   0.00000  Uiso   1.00
H392   H     0.36534   0.42096   0.12595   0.00000  Uiso   1.00
C393   C     0.63175   0.38697   0.13992   0.00000  Uiso   1.00
H394   H     0.59438   0.38667   0.16980   0.00000  Uiso   1.00
H395   H     0.63044   0.39808   0.10045   0.00000  Uiso   1.00
C396   C     0.65105   0.34243   0.13299   0.00000  Uiso   1.00
H397   H     0.35513   0.34176   0.10322   0.00000  Uiso   1.00
H398   H     0.62770   0.65537   0.11797   0.00000  Uiso   1.00
H399   H     0.65082   0.66328   0.17252   0.00000  Uiso   1.00
O400   O     0.47857   0.54003   0.08577   0.00000  Uiso   1.00
C401   C     0.49911   0.57988   0.06767   0.00000  Uiso   1.00
H402   H     0.47363   0.59690   0.05256   0.00000  Uiso   1.00
H403   H     0.53448   0.57907   0.03336   0.00000  Uiso   1.00
C404   C     0.50498   0.60427   0.11532   0.00000  Uiso   1.00
H405   H     0.46976   0.60495   0.14928   0.00000  Uiso   1.00
H406   H     0.53172   0.58837   0.12953   0.00000  Uiso   1.00
C407   C     0.52216   0.64907   0.09944   0.00000  Uiso   1.00
H408   H     0.55769   0.64921   0.06597   0.00000  Uiso   1.00
H409   H     0.52621   0.66558   0.13494   0.00000  Uiso   1.00
H410   H     0.49547   0.66610   0.08628   0.00000  Uiso   1.00
C411   C     0.83329   0.58023   0.25075   0.00000  Uiso   1.00
C412   C     0.81021   0.49198   0.49265   0.00000  Uiso   1.00
C413   C     0.82042   0.48068   0.43803   0.00000  Uiso   1.00
C414   C     0.84773   0.48902   0.01457   0.00000  Uiso   1.00
C415   C     0.89019   0.46625   0.48616   0.00000  Uiso   1.00
C416   C     0.89607   0.44929   0.43547   0.00000  Uiso   1.00
C417   C     0.86176   0.45657   0.41153   0.00000  Uiso   1.00
C418   C     0.84536   0.50906   0.06298   0.00000  Uiso   1.00
C419   C     0.91861   0.47446   0.06154   0.00000  Uiso   1.00
C420   C     0.78894   0.49397   0.41138   0.00000  Uiso   1.00
C421   C     0.86754   0.64513   0.27050   0.00000  Uiso   1.00
C422   C     0.80651   0.49778   0.35224   0.00000  Uiso   1.00
C423   C     0.86492   0.35435   0.27933   0.00000  Uiso   1.00
C424   C     0.82626   0.37630   0.27134   0.00000  Uiso   1.00
C425   C     0.78516   0.35390   0.26960   0.00000  Uiso   1.00
C426   C     0.78948   0.64504   0.25920   0.00000  Uiso   1.00
C427   C     0.83127   0.62447   0.25755   0.00000  Uiso   1.00
C428   C     0.98697   0.47702   0.21211   0.00000  Uiso   1.00
C429   C     0.70225   0.47787   0.21188   0.00000  Uiso   1.00
C430   C     0.67920   0.52211   0.28802   0.00000  Uiso   1.00
C431   C     0.96467   0.52226   0.28787   0.00000  Uiso   1.00
C432   C     0.83063   0.42047   0.25841   0.00000  Uiso   1.00
C433   C     0.86016   0.50060   0.14783   0.00000  Uiso   1.00
C434   C     0.92601   0.46029   0.00921   0.00000  Uiso   1.00
C435   C     0.87695   0.49696   0.08926   0.00000  Uiso   1.00
C436   C     0.74264   0.50823   0.44185   0.00000  Uiso   1.00
C437   C     0.72889   0.51153   0.49796   0.00000  Uiso   1.00
C438   C     0.76252   0.50427   0.02329   0.00000  Uiso   1.00
H439   H     0.94417   0.46645   0.08108   0.00000  Uiso   1.00
H440   H     0.75916   0.62783   0.25489   0.00000  Uiso   1.00
H441   H     0.73043   0.46111   0.18127   0.00000  Uiso   1.00
H442   H     0.68824   0.53986   0.31840   0.00000  Uiso   1.00
H443   H     0.93745   0.54024   0.31808   0.00000  Uiso   1.00
H444   H     0.92776   0.43119   0.41377   0.00000  Uiso   1.00
H445   H     0.95835   0.44277   0.48800   0.00000  Uiso   1.00
H446   H     0.71742   0.51742   0.42228   0.00000  Uiso   1.00
H447   H     0.74994   0.50677   0.06697   0.00000  Uiso   1.00
H448   H     0.69266   0.52126   0.02170   0.00000  Uiso   1.00
H449   H     0.86738   0.44230   0.37255   0.00000  Uiso   1.00
H450   H     0.89742   0.62800   0.27520   0.00000  Uiso   1.00
N451   N     0.71426   0.50001   0.25002   0.00000  Uiso   1.00
N452   N     0.95239   0.49998   0.25000   0.00000  Uiso   1.00
O453   O     0.79512   0.56108   0.25001   0.00000  Uiso   1.00
O454   O     0.87157   0.56107   0.25001   0.00000  Uiso   1.00
O455   O     0.77613   0.50000   0.32681   0.00000  Uiso   1.00
O456   O     0.85258   0.49999   0.32681   0.00000  Uiso   1.00
O457   O     0.79510   0.43893   0.25000   0.00000  Uiso   1.00
O458   O     0.87154   0.43892   0.24999   0.00000  Uiso   1.00
O459   O     0.81409   0.50001   0.17319   0.00000  Uiso   1.00
O460   O     0.89053   0.50000   0.17319   0.00000  Uiso   1.00
Zn461  Zn    0.78229   0.50001   0.25000   0.00000  Uiso   1.00
Zn462  Zn    0.88438   0.49999   0.25000   0.00000  Uiso   1.00
C463   C     0.89823   0.37192   0.30542   0.00000  Uiso   1.00
O464   O     0.92660   0.40010   0.28444   0.00000  Uiso   1.00
O465   O     0.89920   0.35344   0.35321   0.00000  Uiso   1.00
H466   H     0.92479   0.36619   0.36631   0.00000  Uiso   1.00
C467   C     0.73617   0.37180   0.28307   0.00000  Uiso   1.00
O468   O     0.72207   0.39865   0.31820   0.00000  Uiso   1.00
O469   O     0.70478   0.35541   0.25849   0.00000  Uiso   1.00
H470   H     0.67124   0.36731   0.27454   0.00000  Uiso   1.00
O471   O     0.97351   0.45562   0.17323   0.00000  Uiso   1.00
C472   C     0.99679   0.41659   0.15939   0.00000  Uiso   1.00
H473   H     0.66974   0.40174   0.19460   0.00000  Uiso   1.00
H474   H     0.69867   0.42096   0.12595   0.00000  Uiso   1.00
C475   C     0.96509   0.38697   0.13992   0.00000  Uiso   1.00
H476   H     0.92771   0.38667   0.16980   0.00000  Uiso   1.00
H477   H     0.96378   0.39808   0.10045   0.00000  Uiso   1.00
C478   C     0.98438   0.34243   0.13299   0.00000  Uiso   1.00
H479   H     0.68846   0.34176   0.10322   0.00000  Uiso   1.00
H480   H     0.96103   0.65537   0.11797   0.00000  Uiso   1.00
H481   H     0.98415   0.66328   0.17252   0.00000  Uiso   1.00
O482   O     0.81190   0.54003   0.08577   0.00000  Uiso   1.00
C483   C     0.83244   0.57988   0.06767   0.00000  Uiso   1.00
H484   H     0.80696   0.59690   0.05256   0.00000  Uiso   1.00
H485   H     0.86782   0.57907   0.03336   0.00000  Uiso   1.00
C486   C     0.83831   0.60427   0.11532   0.00000  Uiso   1.00
H487   H     0.80309   0.60495   0.14928   0.00000  Uiso   1.00
H488   H     0.86505   0.58837   0.12953   0.00000  Uiso   1.00
C489   C     0.85550   0.64907   0.09944   0.00000  Uiso   1.00
H490   H     0.89103   0.64921   0.06597   0.00000  Uiso   1.00
H491   H     0.85955   0.66558   0.13494   0.00000  Uiso   1.00
H492   H     0.82880   0.66610   0.08628   0.00000  Uiso   1.00
C493   C     0.16662   0.91356   0.25075   0.00000  Uiso   1.00
C494   C     0.14355   0.82531   0.49265   0.00000  Uiso   1.00
C495   C     0.15376   0.81402   0.43803   0.00000  Uiso   1.00
C496   C     0.18106   0.82236   0.01457   0.00000  Uiso   1.00
C497   C     0.22353   0.79958   0.48616   0.00000  Uiso   1.00
C498   C     0.22940   0.78262   0.43547   0.00000  Uiso   1.00
C499   C     0.19509   0.78990   0.41153   0.00000  Uiso   1.00
C500   C     0.17869   0.84239   0.06298   0.00000  Uiso   1.00
C501   C     0.25194   0.80780   0.06154   0.00000  Uiso   1.00
C502   C     0.12228   0.82730   0.41138   0.00000  Uiso   1.00
C503   C     0.20088   0.97846   0.27050   0.00000  Uiso   1.00
C504   C     0.13984   0.83112   0.35224   0.00000  Uiso   1.00
C505   C     0.19825   0.68768   0.27933   0.00000  Uiso   1.00
C506   C     0.15959   0.70963   0.27134   0.00000  Uiso   1.00
C507   C     0.11850   0.68723   0.26960   0.00000  Uiso   1.00
C508   C     0.12281   0.97837   0.25920   0.00000  Uiso   1.00
C509   C     0.16460   0.95780   0.25755   0.00000  Uiso   1.00
C510   C     0.32030   0.81035   0.21211   0.00000  Uiso   1.00
C511   C     0.03559   0.81120   0.21188   0.00000  Uiso   1.00
C512   C     0.01253   0.85544   0.28802   0.00000  Uiso   1.00
C513   C     0.29800   0.85559   0.28787   0.00000  Uiso   1.00
C514   C     0.16396   0.75380   0.25841   0.00000  Uiso   1.00
C515   C     0.19350   0.83393   0.14783   0.00000  Uiso   1.00
C516   C     0.25934   0.79362   0.00921   0.00000  Uiso   1.00
C517   C     0.21029   0.83029   0.08926   0.00000  Uiso   1.00
C518   C     0.07597   0.84157   0.44185   0.00000  Uiso   1.00
C519   C     0.06223   0.84487   0.49796   0.00000  Uiso   1.00
C520   C     0.09585   0.83760   0.02329   0.00000  Uiso   1.00
H521   H     0.27751   0.79978   0.08108   0.00000  Uiso   1.00
H522   H     0.09250   0.96117   0.25489   0.00000  Uiso   1.00
H523   H     0.06377   0.79445   0.18127   0.00000  Uiso   1.00
H524   H     0.02157   0.87319   0.31840   0.00000  Uiso   1.00
H525   H     0.27079   0.87357   0.31808   0.00000  Uiso   1.00
H526   H     0.26109   0.76452   0.41377   0.00000  Uiso   1.00
H527   H     0.29168   0.77610   0.48800   0.00000  Uiso   1.00
H528   H     0.05075   0.85075   0.42228   0.00000  Uiso   1.00
H529   H     0.08327   0.84010   0.06697   0.00000  Uiso   1.00
H530   H     0.02599   0.85460   0.02170   0.00000  Uiso   1.00
H531   H     0.20071   0.77564   0.37255   0.00000  Uiso   1.00
H532   H     0.23076   0.96133   0.27520   0.00000  Uiso   1.00
N533   N     0.04760   0.83334   0.25002   0.00000  Uiso   1.00
N534   N     0.28573   0.83331   0.25000   0.00000  Uiso   1.00
O535   O     0.12846   0.89442   0.25001   0.00000  Uiso   1.00
O536   O     0.20490   0.89441   0.25001   0.00000  Uiso   1.00
O537   O     0.10947   0.83333   0.32681   0.00000  Uiso   1.00
O538   O     0.18591   0.83332   0.32681   0.00000  Uiso   1.00
O539   O     0.12843   0.77226   0.25000   0.00000  Uiso   1.00
O540   O     0.20488   0.77225   0.24999   0.00000  Uiso   1.00
O541   O     0.14742   0.83335   0.17319   0.00000  Uiso   1.00
O542   O     0.22387   0.83334   0.17319   0.00000  Uiso   1.00
Zn543  Zn    0.11562   0.83334   0.25000   0.00000  Uiso   1.00
Zn544  Zn    0.21771   0.83333   0.25000   0.00000  Uiso   1.00
C545   C     0.23156   0.70526   0.30542   0.00000  Uiso   1.00
O546   O     0.25994   0.73343   0.28444   0.00000  Uiso   1.00
O547   O     0.23254   0.68678   0.35321   0.00000  Uiso   1.00
H548   H     0.25812   0.69952   0.36631   0.00000  Uiso   1.00
C549   C     0.06950   0.70513   0.28307   0.00000  Uiso   1.00
O550   O     0.05541   0.73198   0.31820   0.00000  Uiso   1.00
O551   O     0.03811   0.68874   0.25849   0.00000  Uiso   1.00
H552   H     0.00457   0.70064   0.27454   0.00000  Uiso   1.00
O553   O     0.30684   0.78895   0.17323   0.00000  Uiso   1.00
C554   C     0.33013   0.74992   0.15939   0.00000  Uiso   1.00
H555   H     0.00307   0.73508   0.19460   0.00000  Uiso   1.00
H556   H     0.03201   0.75430   0.12595   0.00000  Uiso   1.00
C557   C     0.29842   0.72031   0.13992   0.00000  Uiso   1.00
H558   H     0.26104   0.72000   0.16980   0.00000  Uiso   1.00
H559   H     0.29711   0.73141   0.10045   0.00000  Uiso   1.00
C560   C     0.31771   0.67577   0.13299   0.00000  Uiso   1.00
H561   H     0.02180   0.67509   0.10322   0.00000  Uiso   1.00
H562   H     0.29436   0.98870   0.11797   0.00000  Uiso   1.00
H563   H     0.31748   0.99662   0.17252   0.00000  Uiso   1.00
O564   O     0.14523   0.87336   0.08577   0.00000  Uiso   1.00
C565   C     0.16578   0.91322   0.06767   0.00000  Uiso   1.00
H566   H     0.14029   0.93024   0.05256   0.00000  Uiso   1.00
H567   H     0.20115   0.91241   0.03336   0.00000  Uiso   1.00
C568   C     0.17164   0.93760   0.11532   0.00000  Uiso   1.00
H569   H     0.13643   0.93828   0.14928   0.00000  Uiso   1.00
H570   H     0.19839   0.92170   0.12953   0.00000  Uiso   1.00
C571   C     0.18883   0.98240   0.09944   0.00000  Uiso   1.00
H572   H     0.22436   0.98254   0.06597   0.00000  Uiso   1.00
H573   H     0.19288   0.99892   0.13494   0.00000  Uiso   1.00
H574   H     0.16214   0.99944   0.08628   0.00000  Uiso   1.00
C575   C     0.49995   0.91356   0.25075   0.00000  Uiso   1.00
C576   C     0.47688   0.82531   0.49265   0.00000  Uiso   1.00
C577   C     0.48709   0.81402   0.43803   0.00000  Uiso   1.00
C578   C     0.51439   0.82236   0.01457   0.00000  Uiso   1.00
C579   C     0.55686   0.79958   0.48616   0.00000  Uiso   1.00
C580   C     0.56273   0.78262   0.43547   0.00000  Uiso   1.00
C581   C     0.52842   0.78990   0.41153   0.00000  Uiso   1.00
C582   C     0.51203   0.84239   0.06298   0.00000  Uiso   1.00
C583   C     0.58528   0.80780   0.06154   0.00000  Uiso   1.00
C584   C     0.45561   0.82730   0.41138   0.00000  Uiso   1.00
C585   C     0.53421   0.97846   0.27050   0.00000  Uiso   1.00
C586   C     0.47318   0.83112   0.35224   0.00000  Uiso   1.00
C587   C     0.53158   0.68768   0.27933   0.00000  Uiso   1.00
C588   C     0.49292   0.70963   0.27134   0.00000  Uiso   1.00
C589   C     0.45183   0.68723   0.26960   0.00000  Uiso   1.00
C590   C     0.45615   0.97837   0.25920   0.00000  Uiso   1.00
C591   C     0.49793   0.95780   0.25755   0.00000  Uiso   1.00
C592   C     0.65363   0.81035   0.21211   0.00000  Uiso   1.00
C593   C     0.36892   0.81120   0.21188   0.00000  Uiso   1.00
C594   C     0.34587   0.85544   0.28802   0.00000  Uiso   1.00
C595   C     0.63133   0.85559   0.28787   0.00000  Uiso   1.00
C596   C     0.49729   0.75380   0.25841   0.00000  Uiso   1.00
C597   C     0.52683   0.83393   0.14783   0.00000  Uiso   1.00
C598   C     0.59268   0.79362   0.00921   0.00000  Uiso   1.00
C599   C     0.54362   0.83029   0.08926   0.00000  Uiso   1.00
C600   C     0.40931   0.84157   0.44185   0.00000  Uiso   1.00
C601   C     0.39556   0.84487   0.49796   0.00000  Uiso   1.00
C602   C     0.42919   0.83760   0.02329   0.00000  Uiso   1.00
H603   H     0.61084   0.79978   0.08108   0.00000  Uiso   1.00
H604   H     0.42583   0.96117   0.25489   0.00000  Uiso   1.00
H605   H     0.39710   0.79445   0.18127   0.00000  Uiso   1.00
H606   H     0.35491   0.87319   0.31840   0.00000  Uiso   1.00
H607   H     0.60412   0.87357   0.31808   0.00000  Uiso   1.00
H608   H     0.59443   0.76452   0.41377   0.00000  Uiso   1.00
H609   H     0.62501   0.77610   0.48800   0.00000  Uiso   1.00
H610   H     0.38409   0.85075   0.42228   0.00000  Uiso   1.00
H611   H     0.41661   0.84010   0.06697   0.00000  Uiso   1.00
H612   H     0.35933   0.85460   0.02170   0.00000  Uiso   1.00
H613   H     0.53404   0.77564   0.37255   0.00000  Uiso   1.00
H614   H     0.56409   0.96133   0.27520   0.00000  Uiso   1.00
N615   N     0.38093   0.83334   0.25002   0.00000  Uiso   1.00
N616   N     0.61906   0.83331   0.25000   0.00000  Uiso   1.00
O617   O     0.46179   0.89442   0.25001   0.00000  Uiso   1.00
O618   O     0.53823   0.89441   0.25001   0.00000  Uiso   1.00
O619   O     0.44280   0.83333   0.32681   0.00000  Uiso   1.00
O620   O     0.51924   0.83332   0.32681   0.00000  Uiso   1.00
O621   O     0.46177   0.77226   0.25000   0.00000  Uiso   1.00
O622   O     0.53821   0.77225   0.24999   0.00000  Uiso   1.00
O623   O     0.48076   0.83335   0.17319   0.00000  Uiso   1.00
O624   O     0.55720   0.83334   0.17319   0.00000  Uiso   1.00
Zn625  Zn    0.44896   0.83334   0.25000   0.00000  Uiso   1.00
Zn626  Zn    0.55104   0.83333   0.25000   0.00000  Uiso   1.00
C627   C     0.56490   0.70526   0.30542   0.00000  Uiso   1.00
O628   O     0.59327   0.73343   0.28444   0.00000  Uiso   1.00
O629   O     0.56587   0.68678   0.35321   0.00000  Uiso   1.00
H630   H     0.59145   0.69952   0.36631   0.00000  Uiso   1.00
C631   C     0.40284   0.70513   0.28307   0.00000  Uiso   1.00
O632   O     0.38874   0.73198   0.31820   0.00000  Uiso   1.00
O633   O     0.37144   0.68874   0.25849   0.00000  Uiso   1.00
H634   H     0.33790   0.70064   0.27454   0.00000  Uiso   1.00
O635   O     0.64018   0.78895   0.17323   0.00000  Uiso   1.00
C636   C     0.66346   0.74992   0.15939   0.00000  Uiso   1.00
H637   H     0.33640   0.73508   0.19460   0.00000  Uiso   1.00
H638   H     0.36534   0.75430   0.12595   0.00000  Uiso   1.00
C639   C     0.63175   0.72031   0.13992   0.00000  Uiso   1.00
H640   H     0.59438   0.72000   0.16980   0.00000  Uiso   1.00
H641   H     0.63044   0.73141   0.10045   0.00000  Uiso   1.00
C642   C     0.65105   0.67577   0.13299   0.00000  Uiso   1.00
H643   H     0.35513   0.67509   0.10322   0.00000  Uiso   1.00
H644   H     0.62770   0.98870   0.11797   0.00000  Uiso   1.00
H645   H     0.65082   0.99662   0.17252   0.00000  Uiso   1.00
O646   O     0.47857   0.87336   0.08577   0.00000  Uiso   1.00
C647   C     0.49911   0.91322   0.06767   0.00000  Uiso   1.00
H648   H     0.47363   0.93024   0.05256   0.00000  Uiso   1.00
H649   H     0.53448   0.91241   0.03336   0.00000  Uiso   1.00
C650   C     0.50498   0.93760   0.11532   0.00000  Uiso   1.00
H651   H     0.46976   0.93828   0.14928   0.00000  Uiso   1.00
H652   H     0.53172   0.92170   0.12953   0.00000  Uiso   1.00
C653   C     0.52216   0.98240   0.09944   0.00000  Uiso   1.00
H654   H     0.55769   0.98254   0.06597   0.00000  Uiso   1.00
H655   H     0.52621   0.99892   0.13494   0.00000  Uiso   1.00
H656   H     0.49547   0.99944   0.08628   0.00000  Uiso   1.00
C657   C     0.83329   0.91356   0.25075   0.00000  Uiso   1.00
C658   C     0.81021   0.82531   0.49265   0.00000  Uiso   1.00
C659   C     0.82042   0.81402   0.43803   0.00000  Uiso   1.00
C660   C     0.84773   0.82236   0.01457   0.00000  Uiso   1.00
C661   C     0.89019   0.79958   0.48616   0.00000  Uiso   1.00
C662   C     0.89607   0.78262   0.43547   0.00000  Uiso   1.00
C663   C     0.86176   0.78990   0.41153   0.00000  Uiso   1.00
C664   C     0.84536   0.84239   0.06298   0.00000  Uiso   1.00
C665   C     0.91861   0.80780   0.06154   0.00000  Uiso   1.00
C666   C     0.78894   0.82730   0.41138   0.00000  Uiso   1.00
C667   C     0.86754   0.97846   0.27050   0.00000  Uiso   1.00
C668   C     0.80651   0.83112   0.35224   0.00000  Uiso   1.00
C669   C     0.86492   0.68768   0.27933   0.00000  Uiso   1.00
C670   C     0.82626   0.70963   0.27134   0.00000  Uiso   1.00
C671   C     0.78516   0.68723   0.26960   0.00000  Uiso   1.00
C672   C     0.78948   0.97837   0.25920   0.00000  Uiso   1.00
C673   C     0.83127   0.95780   0.25755   0.00000  Uiso   1.00
C674   C     0.98697   0.81035   0.21211   0.00000  Uiso   1.00
C675   C     0.70225   0.81120   0.21188   0.00000  Uiso   1.00
C676   C     0.67920   0.85544   0.28802   0.00000  Uiso   1.00
C677   C     0.96467   0.85559   0.28787   0.00000  Uiso   1.00
C678   C     0.83063   0.75380   0.25841   0.00000  Uiso   1.00
C679   C     0.86016   0.83393   0.14783   0.00000  Uiso   1.00
C680   C     0.92601   0.79362   0.00921   0.00000  Uiso   1.00
C681   C     0.87695   0.83029   0.08926   0.00000  Uiso   1.00
C682   C     0.74264   0.84157   0.44185   0.00000  Uiso   1.00
C683   C     0.72889   0.84487   0.49796   0.00000  Uiso   1.00
C684   C     0.76252   0.83760   0.02329   0.00000  Uiso   1.00
H685   H     0.94417   0.79978   0.08108   0.00000  Uiso   1.00
H686   H     0.75916   0.96117   0.25489   0.00000  Uiso   1.00
H687   H     0.73043   0.79445   0.18127   0.00000  Uiso   1.00
H688   H     0.68824   0.87319   0.31840   0.00000  Uiso   1.00
H689   H     0.93745   0.87357   0.31808   0.00000  Uiso   1.00
H690   H     0.92776   0.76452   0.41377   0.00000  Uiso   1.00
H691   H     0.95835   0.77610   0.48800   0.00000  Uiso   1.00
H692   H     0.71742   0.85075   0.42228   0.00000  Uiso   1.00
H693   H     0.74994   0.84010   0.06697   0.00000  Uiso   1.00
H694   H     0.69266   0.85460   0.02170   0.00000  Uiso   1.00
H695   H     0.86738   0.77564   0.37255   0.00000  Uiso   1.00
H696   H     0.89742   0.96133   0.27520   0.00000  Uiso   1.00
N697   N     0.71426   0.83334   0.25002   0.00000  Uiso   1.00
N698   N     0.95239   0.83331   0.25000   0.00000  Uiso   1.00
O699   O     0.79512   0.89442   0.25001   0.00000  Uiso   1.00
O700   O     0.87157   0.89441   0.25001   0.00000  Uiso   1.00
O701   O     0.77613   0.83333   0.32681   0.00000  Uiso   1.00
O702   O     0.85258   0.83332   0.32681   0.00000  Uiso   1.00
O703   O     0.79510   0.77226   0.25000   0.00000  Uiso   1.00
O704   O     0.87154   0.77225   0.24999   0.00000  Uiso   1.00
O705   O     0.81409   0.83335   0.17319   0.00000  Uiso   1.00
O706   O     0.89053   0.83334   0.17319   0.00000  Uiso   1.00
Zn707  Zn    0.78229   0.83334   0.25000   0.00000  Uiso   1.00
Zn708  Zn    0.88438   0.83333   0.25000   0.00000  Uiso   1.00
C709   C     0.89823   0.70526   0.30542   0.00000  Uiso   1.00
O710   O     0.92660   0.73343   0.28444   0.00000  Uiso   1.00
O711   O     0.89920   0.68678   0.35321   0.00000  Uiso   1.00
H712   H     0.92479   0.69952   0.36631   0.00000  Uiso   1.00
C713   C     0.73617   0.70513   0.28307   0.00000  Uiso   1.00
O714   O     0.72207   0.73198   0.31820   0.00000  Uiso   1.00
O715   O     0.70478   0.68874   0.25849   0.00000  Uiso   1.00
H716   H     0.67124   0.70064   0.27454   0.00000  Uiso   1.00
O717   O     0.97351   0.78895   0.17323   0.00000  Uiso   1.00
C718   C     0.99679   0.74992   0.15939   0.00000  Uiso   1.00
H719   H     0.66974   0.73508   0.19460   0.00000  Uiso   1.00
H720   H     0.69867   0.75430   0.12595   0.00000  Uiso   1.00
C721   C     0.96509   0.72031   0.13992   0.00000  Uiso   1.00
H722   H     0.92771   0.72000   0.16980   0.00000  Uiso   1.00
H723   H     0.96378   0.73141   0.10045   0.00000  Uiso   1.00
C724   C     0.98438   0.67577   0.13299   0.00000  Uiso   1.00
H725   H     0.68846   0.67509   0.10322   0.00000  Uiso   1.00
H726   H     0.96103   0.98870   0.11797   0.00000  Uiso   1.00
H727   H     0.98415   0.99662   0.17252   0.00000  Uiso   1.00
O728   O     0.81190   0.87336   0.08577   0.00000  Uiso   1.00
C729   C     0.83244   0.91322   0.06767   0.00000  Uiso   1.00
H730   H     0.80696   0.93024   0.05256   0.00000  Uiso   1.00
H731   H     0.86782   0.91241   0.03336   0.00000  Uiso   1.00
C732   C     0.83831   0.93760   0.11532   0.00000  Uiso   1.00
H733   H     0.80309   0.93828   0.14928   0.00000  Uiso   1.00
H734   H     0.86505   0.92170   0.12953   0.00000  Uiso   1.00
C735   C     0.85550   0.98240   0.09944   0.00000  Uiso   1.00
H736   H     0.89103   0.98254   0.06597   0.00000  Uiso   1.00
H737   H     0.85955   0.99892   0.13494   0.00000  Uiso   1.00
H738   H     0.82880   0.99944   0.08628   0.00000  Uiso   1.00
C739   C     0.16662   0.24689   0.75075   0.00000  Uiso   1.00
C740   C     0.14355   0.15864   0.99265   0.00000  Uiso   1.00
C741   C     0.15376   0.14735   0.93803   0.00000  Uiso   1.00
C742   C     0.18106   0.15569   0.51457   0.00000  Uiso   1.00
C743   C     0.22353   0.13291   0.98616   0.00000  Uiso   1.00
C744   C     0.22940   0.11596   0.93547   0.00000  Uiso   1.00
C745   C     0.19509   0.12324   0.91153   0.00000  Uiso   1.00
C746   C     0.17869   0.17573   0.56298   0.00000  Uiso   1.00
C747   C     0.25194   0.14113   0.56154   0.00000  Uiso   1.00
C748   C     0.12228   0.16063   0.91138   0.00000  Uiso   1.00
C749   C     0.20088   0.31180   0.77050   0.00000  Uiso   1.00
C750   C     0.13984   0.16445   0.85224   0.00000  Uiso   1.00
C751   C     0.19825   0.02102   0.77933   0.00000  Uiso   1.00
C752   C     0.15959   0.04297   0.77134   0.00000  Uiso   1.00
C753   C     0.11850   0.02057   0.76960   0.00000  Uiso   1.00
C754   C     0.12281   0.31170   0.75920   0.00000  Uiso   1.00
C755   C     0.16460   0.29113   0.75755   0.00000  Uiso   1.00
C756   C     0.32030   0.14368   0.71211   0.00000  Uiso   1.00
C757   C     0.03559   0.14453   0.71188   0.00000  Uiso   1.00
C758   C     0.01253   0.18878   0.78802   0.00000  Uiso   1.00
C759   C     0.29800   0.18892   0.78787   0.00000  Uiso   1.00
C760   C     0.16396   0.08713   0.75841   0.00000  Uiso   1.00
C761   C     0.19350   0.16727   0.64783   0.00000  Uiso   1.00
C762   C     0.25934   0.12695   0.50921   0.00000  Uiso   1.00
C763   C     0.21029   0.16363   0.58926   0.00000  Uiso   1.00
C764   C     0.07597   0.17490   0.94185   0.00000  Uiso   1.00
C765   C     0.06223   0.17820   0.99796   0.00000  Uiso   1.00
C766   C     0.09585   0.17094   0.52329   0.00000  Uiso   1.00
H767   H     0.27751   0.13311   0.58108   0.00000  Uiso   1.00
H768   H     0.09250   0.29450   0.75489   0.00000  Uiso   1.00
H769   H     0.06377   0.12778   0.68127   0.00000  Uiso   1.00
H770   H     0.02157   0.20653   0.81840   0.00000  Uiso   1.00
H771   H     0.27079   0.20690   0.81808   0.00000  Uiso   1.00
H772   H     0.26109   0.09786   0.91377   0.00000  Uiso   1.00
H773   H     0.29168   0.10944   0.98800   0.00000  Uiso   1.00
H774   H     0.05075   0.18408   0.92228   0.00000  Uiso   1.00
H775   H     0.08327   0.17343   0.56697   0.00000  Uiso   1.00
H776   H     0.02599   0.18793   0.52170   0.00000  Uiso   1.00
H777   H     0.20071   0.10897   0.87255   0.00000  Uiso   1.00
H778   H     0.23076   0.29467   0.77520   0.00000  Uiso   1.00
N779   N     0.04760   0.16668   0.75002   0.00000  Uiso   1.00
N780   N     0.28573   0.16665   0.75000   0.00000  Uiso   1.00
O781   O     0.12846   0.22775   0.75001   0.00000  Uiso   1.00
O782   O     0.20490   0.22774   0.75001   0.00000  Uiso   1.00
O783   O     0.10947   0.16666   0.82681   0.00000  Uiso   1.00
O784   O     0.18591   0.16665   0.82681   0.00000  Uiso   1.00
O785   O     0.12843   0.10559   0.75000   0.00000  Uiso   1.00
O786   O     0.20488   0.10558   0.74999   0.00000  Uiso   1.00
O787   O     0.14742   0.16668   0.67319   0.00000  Uiso   1.00
O788   O     0.22387   0.16667   0.67319   0.00000  Uiso   1.00
Zn789  Zn    0.11562   0.16667   0.75000   0.00000  Uiso   1.00
Zn790  Zn    0.21771   0.16666   0.75000   0.00000  Uiso   1.00
C791   C     0.23156   0.03859   0.80542   0.00000  Uiso   1.00
O792   O     0.25994   0.06676   0.78444   0.00000  Uiso   1.00
O793   O     0.23254   0.02011   0.85321   0.00000  Uiso   1.00
H794   H     0.25812   0.03285   0.86631   0.00000  Uiso   1.00
C795   C     0.06950   0.03847   0.78307   0.00000  Uiso   1.00
O796   O     0.05541   0.06532   0.81820   0.00000  Uiso   1.00
O797   O     0.03811   0.02207   0.75849   0.00000  Uiso   1.00
H798   H     0.00457   0.03398   0.77454   0.00000  Uiso   1.00
O799   O     0.30684   0.12229   0.67323   0.00000  Uiso   1.00
C800   C     0.33013   0.08325   0.65939   0.00000  Uiso   1.00
H801   H     0.00307   0.06841   0.69460   0.00000  Uiso   1.00
H802   H     0.03201   0.08763   0.62595   0.00000  Uiso   1.00
C803   C     0.29842   0.05364   0.63992   0.00000  Uiso   1.00
H804   H     0.26104   0.05333   0.66980   0.00000  Uiso   1.00
H805   H     0.29711   0.06475   0.60045   0.00000  Uiso   1.00
C806   C     0.31771   0.00910   0.63299   0.00000  Uiso   1.00
H807   H     0.02180   0.00842   0.60322   0.00000  Uiso   1.00
H808   H     0.29436   0.32203   0.61797   0.00000  Uiso   1.00
H809   H     0.31748   0.32995   0.67252   0.00000  Uiso   1.00
O810   O     0.14523   0.20670   0.58577   0.00000  Uiso   1.00
C811   C     0.16578   0.24655   0.56767   0.00000  Uiso   1.00
H812   H     0.14029   0.26357   0.55256   0.00000  Uiso   1.00
H813   H     0.20115   0.24574   0.53336   0.00000  Uiso   1.00
C814   C     0.17164   0.27093   0.61532   0.00000  Uiso   1.00
H815   H     0.13643   0.27162   0.64928   0.00000  Uiso   1.00
H816   H     0.19839   0.25504   0.62953   0.00000  Uiso   1.00
C817   C     0.18883   0.31574   0.59944   0.00000  Uiso   1.00
H818   H     0.22436   0.31588   0.56597   0.00000  Uiso   1.00
H819   H     0.19288   0.33225   0.63494   0.00000  Uiso   1.00
H820   H     0.16214   0.33277   0.58628   0.00000  Uiso   1.00
C821   C     0.49995   0.24689   0.75075   0.00000  Uiso   1.00
C822   C     0.47688   0.15864   0.99265   0.00000  Uiso   1.00
C823   C     0.48709   0.14735   0.93803   0.00000  Uiso   1.00
C824   C     0.51439   0.15569   0.51457   0.00000  Uiso   1.00
C825   C     0.55686   0.13291   0.98616   0.00000  Uiso   1.00
C826   C     0.56273   0.11596   0.93547   0.00000  Uiso   1.00
C827   C     0.52842   0.12324   0.91153   0.00000  Uiso   1.00
C828   C     0.51203   0.17573   0.56298   0.00000  Uiso   1.00
C829   C     0.58528   0.14113   0.56154   0.00000  Uiso   1.00
C830   C     0.45561   0.16063   0.91138   0.00000  Uiso   1.00
C831   C     0.53421   0.31180   0.77050   0.00000  Uiso   1.00
C832   C     0.47318   0.16445   0.85224   0.00000  Uiso   1.00
C833   C     0.53158   0.02102   0.77933   0.00000  Uiso   1.00
C834   C     0.49292   0.04297   0.77134   0.00000  Uiso   1.00
C835   C     0.45183   0.02057   0.76960   0.00000  Uiso   1.00
C836   C     0.45615   0.31170   0.75920   0.00000  Uiso   1.00
C837   C     0.49793   0.29113   0.75755   0.00000  Uiso   1.00
C838   C     0.65363   0.14368   0.71211   0.00000  Uiso   1.00
C839   C     0.36892   0.14453   0.71188   0.00000  Uiso   1.00
C840   C     0.34587   0.18878   0.78802   0.00000  Uiso   1.00
C841   C     0.63133   0.18892   0.78787   0.00000  Uiso   1.00
C842   C     0.49729   0.08713   0.75841   0.00000  Uiso   1.00
C843   C     0.52683   0.16727   0.64783   0.00000  Uiso   1.00
C844   C     0.59268   0.12695   0.50921   0.00000  Uiso   1.00
C845   C     0.54362   0.16363   0.58926   0.00000  Uiso   1.00
C846   C     0.40931   0.17490   0.94185   0.00000  Uiso   1.00
C847   C     0.39556   0.17820   0.99796   0.00000  Uiso   1.00
C848   C     0.42919   0.17094   0.52329   0.00000  Uiso   1.00
H849   H     0.61084   0.13311   0.58108   0.00000  Uiso   1.00
H850   H     0.42583   0.29450   0.75489   0.00000  Uiso   1.00
H851   H     0.39710   0.12778   0.68127   0.00000  Uiso   1.00
H852   H     0.35491   0.20653   0.81840   0.00000  Uiso   1.00
H853   H     0.60412   0.20690   0.81808   0.00000  Uiso   1.00
H854   H     0.59443   0.09786   0.91377   0.00000  Uiso   1.00
H855   H     0.62501   0.10944   0.98800   0.00000  Uiso   1.00
H856   H     0.38409   0.18408   0.92228   0.00000  Uiso   1.00
H857   H     0.41661   0.17343   0.56697   0.00000  Uiso   1.00
H858   H     0.35933   0.18793   0.52170   0.00000  Uiso   1.00
H859   H     0.53404   0.10897   0.87255   0.00000  Uiso   1.00
H860   H     0.56409   0.29467   0.77520   0.00000  Uiso   1.00
N861   N     0.38093   0.16668   0.75002   0.00000  Uiso   1.00
N862   N     0.61906   0.16665   0.75000   0.00000  Uiso   1.00
O863   O     0.46179   0.22775   0.75001   0.00000  Uiso   1.00
O864   O     0.53823   0.22774   0.75001   0.00000  Uiso   1.00
O865   O     0.44280   0.16666   0.82681   0.00000  Uiso   1.00
O866   O     0.51924   0.16665   0.82681   0.00000  Uiso   1.00
O867   O     0.46177   0.10559   0.75000   0.00000  Uiso   1.00
O868   O     0.53821   0.10558   0.74999   0.00000  Uiso   1.00
O869   O     0.48076   0.16668   0.67319   0.00000  Uiso   1.00
O870   O     0.55720   0.16667   0.67319   0.00000  Uiso   1.00
Zn871  Zn    0.44896   0.16667   0.75000   0.00000  Uiso   1.00
Zn872  Zn    0.55104   0.16666   0.75000   0.00000  Uiso   1.00
C873   C     0.56490   0.03859   0.80542   0.00000  Uiso   1.00
O874   O     0.59327   0.06676   0.78444   0.00000  Uiso   1.00
O875   O     0.56587   0.02011   0.85321   0.00000  Uiso   1.00
H876   H     0.59145   0.03285   0.86631   0.00000  Uiso   1.00
C877   C     0.40284   0.03847   0.78307   0.00000  Uiso   1.00
O878   O     0.38874   0.06532   0.81820   0.00000  Uiso   1.00
O879   O     0.37144   0.02207   0.75849   0.00000  Uiso   1.00
H880   H     0.33790   0.03398   0.77454   0.00000  Uiso   1.00
O881   O     0.64018   0.12229   0.67323   0.00000  Uiso   1.00
C882   C     0.66346   0.08325   0.65939   0.00000  Uiso   1.00
H883   H     0.33640   0.06841   0.69460   0.00000  Uiso   1.00
H884   H     0.36534   0.08763   0.62595   0.00000  Uiso   1.00
C885   C     0.63175   0.05364   0.63992   0.00000  Uiso   1.00
H886   H     0.59438   0.05333   0.66980   0.00000  Uiso   1.00
H887   H     0.63044   0.06475   0.60045   0.00000  Uiso   1.00
C888   C     0.65105   0.00910   0.63299   0.00000  Uiso   1.00
H889   H     0.35513   0.00842   0.60322   0.00000  Uiso   1.00
H890   H     0.62770   0.32203   0.61797   0.00000  Uiso   1.00
H891   H     0.65082   0.32995   0.67252   0.00000  Uiso   1.00
O892   O     0.47857   0.20670   0.58577   0.00000  Uiso   1.00
C893   C     0.49911   0.24655   0.56767   0.00000  Uiso   1.00
H894   H     0.47363   0.26357   0.55256   0.00000  Uiso   1.00
H895   H     0.53448   0.24574   0.53336   0.00000  Uiso   1.00
C896   C     0.50498   0.27093   0.61532   0.00000  Uiso   1.00
H897   H     0.46976   0.27162   0.64928   0.00000  Uiso   1.00
H898   H     0.53172   0.25504   0.62953   0.00000  Uiso   1.00
C899   C     0.52216   0.31574   0.59944   0.00000  Uiso   1.00
H900   H     0.55769   0.31588   0.56597   0.00000  Uiso   1.00
H901   H     0.52621   0.33225   0.63494   0.00000  Uiso   1.00
H902   H     0.49547   0.33277   0.58628   0.00000  Uiso   1.00
C903   C     0.83329   0.24689   0.75075   0.00000  Uiso   1.00
C904   C     0.81021   0.15864   0.99265   0.00000  Uiso   1.00
C905   C     0.82042   0.14735   0.93803   0.00000  Uiso   1.00
C906   C     0.84773   0.15569   0.51457   0.00000  Uiso   1.00
C907   C     0.89019   0.13291   0.98616   0.00000  Uiso   1.00
C908   C     0.89607   0.11596   0.93547   0.00000  Uiso   1.00
C909   C     0.86176   0.12324   0.91153   0.00000  Uiso   1.00
C910   C     0.84536   0.17573   0.56298   0.00000  Uiso   1.00
C911   C     0.91861   0.14113   0.56154   0.00000  Uiso   1.00
C912   C     0.78894   0.16063   0.91138   0.00000  Uiso   1.00
C913   C     0.86754   0.31180   0.77050   0.00000  Uiso   1.00
C914   C     0.80651   0.16445   0.85224   0.00000  Uiso   1.00
C915   C     0.86492   0.02102   0.77933   0.00000  Uiso   1.00
C916   C     0.82626   0.04297   0.77134   0.00000  Uiso   1.00
C917   C     0.78516   0.02057   0.76960   0.00000  Uiso   1.00
C918   C     0.78948   0.31170   0.75920   0.00000  Uiso   1.00
C919   C     0.83127   0.29113   0.75755   0.00000  Uiso   1.00
C920   C     0.98697   0.14368   0.71211   0.00000  Uiso   1.00
C921   C     0.70225   0.14453   0.71188   0.00000  Uiso   1.00
C922   C     0.67920   0.18878   0.78802   0.00000  Uiso   1.00
C923   C     0.96467   0.18892   0.78787   0.00000  Uiso   1.00
C924   C     0.83063   0.08713   0.75841   0.00000  Uiso   1.00
C925   C     0.86016   0.16727   0.64783   0.00000  Uiso   1.00
C926   C     0.92601   0.12695   0.50921   0.00000  Uiso   1.00
C927   C     0.87695   0.16363   0.58926   0.00000  Uiso   1.00
C928   C     0.74264   0.17490   0.94185   0.00000  Uiso   1.00
C929   C     0.72889   0.17820   0.99796   0.00000  Uiso   1.00
C930   C     0.76252   0.17094   0.52329   0.00000  Uiso   1.00
H931   H     0.94417   0.13311   0.58108   0.00000  Uiso   1.00
H932   H     0.75916   0.29450   0.75489   0.00000  Uiso   1.00
H933   H     0.73043   0.12778   0.68127   0.00000  Uiso   1.00
H934   H     0.68824   0.20653   0.81840   0.00000  Uiso   1.00
H935   H     0.93745   0.20690   0.81808   0.00000  Uiso   1.00
H936   H     0.92776   0.09786   0.91377   0.00000  Uiso   1.00
H937   H     0.95835   0.10944   0.98800   0.00000  Uiso   1.00
H938   H     0.71742   0.18408   0.92228   0.00000  Uiso   1.00
H939   H     0.74994   0.17343   0.56697   0.00000  Uiso   1.00
H940   H     0.69266   0.18793   0.52170   0.00000  Uiso   1.00
H941   H     0.86738   0.10897   0.87255   0.00000  Uiso   1.00
H942   H     0.89742   0.29467   0.77520   0.00000  Uiso   1.00
N943   N     0.71426   0.16668   0.75002   0.00000  Uiso   1.00
N944   N     0.95239   0.16665   0.75000   0.00000  Uiso   1.00
O945   O     0.79512   0.22775   0.75001   0.00000  Uiso   1.00
O946   O     0.87157   0.22774   0.75001   0.00000  Uiso   1.00
O947   O     0.77613   0.16666   0.82681   0.00000  Uiso   1.00
O948   O     0.85258   0.16665   0.82681   0.00000  Uiso   1.00
O949   O     0.79510   0.10559   0.75000   0.00000  Uiso   1.00
O950   O     0.87154   0.10558   0.74999   0.00000  Uiso   1.00
O951   O     0.81409   0.16668   0.67319   0.00000  Uiso   1.00
O952   O     0.89053   0.16667   0.67319   0.00000  Uiso   1.00
Zn953  Zn    0.78229   0.16667   0.75000   0.00000  Uiso   1.00
Zn954  Zn    0.88438   0.16666   0.75000   0.00000  Uiso   1.00
C955   C     0.89823   0.03859   0.80542   0.00000  Uiso   1.00
O956   O     0.92660   0.06676   0.78444   0.00000  Uiso   1.00
O957   O     0.89920   0.02011   0.85321   0.00000  Uiso   1.00
H958   H     0.92479   0.03285   0.86631   0.00000  Uiso   1.00
C959   C     0.73617   0.03847   0.78307   0.00000  Uiso   1.00
O960   O     0.72207   0.06532   0.81820   0.00000  Uiso   1.00
O961   O     0.70478   0.02207   0.75849   0.00000  Uiso   1.00
H962   H     0.67124   0.03398   0.77454   0.00000  Uiso   1.00
O963   O     0.97351   0.12229   0.67323   0.00000  Uiso   1.00
C964   C     0.99679   0.08325   0.65939   0.00000  Uiso   1.00
H965   H     0.66974   0.06841   0.69460   0.00000  Uiso   1.00
H966   H     0.69867   0.08763   0.62595   0.00000  Uiso   1.00
C967   C     0.96509   0.05364   0.63992   0.00000  Uiso   1.00
H968   H     0.92771   0.05333   0.66980   0.00000  Uiso   1.00
H969   H     0.96378   0.06475   0.60045   0.00000  Uiso   1.00
C970   C     0.98438   0.00910   0.63299   0.00000  Uiso   1.00
H971   H     0.68846   0.00842   0.60322   0.00000  Uiso   1.00
H972   H     0.96103   0.32203   0.61797   0.00000  Uiso   1.00
H973   H     0.98415   0.32995   0.67252   0.00000  Uiso   1.00
O974   O     0.81190   0.20670   0.58577   0.00000  Uiso   1.00
C975   C     0.83244   0.24655   0.56767   0.00000  Uiso   1.00
H976   H     0.80696   0.26357   0.55256   0.00000  Uiso   1.00
H977   H     0.86782   0.24574   0.53336   0.00000  Uiso   1.00
C978   C     0.83831   0.27093   0.61532   0.00000  Uiso   1.00
H979   H     0.80309   0.27162   0.64928   0.00000  Uiso   1.00
H980   H     0.86505   0.25504   0.62953   0.00000  Uiso   1.00
C981   C     0.85550   0.31574   0.59944   0.00000  Uiso   1.00
H982   H     0.89103   0.31588   0.56597   0.00000  Uiso   1.00
H983   H     0.85955   0.33225   0.63494   0.00000  Uiso   1.00
H984   H     0.82880   0.33277   0.58628   0.00000  Uiso   1.00
C985   C     0.16662   0.58023   0.75075   0.00000  Uiso   1.00
C986   C     0.14355   0.49198   0.99265   0.00000  Uiso   1.00
C987   C     0.15376   0.48068   0.93803   0.00000  Uiso   1.00
C988   C     0.18106   0.48902   0.51457   0.00000  Uiso   1.00
C989   C     0.22353   0.46625   0.98616   0.00000  Uiso   1.00
C990   C     0.22940   0.44929   0.93547   0.00000  Uiso   1.00
C991   C     0.19509   0.45657   0.91153   0.00000  Uiso   1.00
C992   C     0.17869   0.50906   0.56298   0.00000  Uiso   1.00
C993   C     0.25194   0.47446   0.56154   0.00000  Uiso   1.00
C994   C     0.12228   0.49397   0.91138   0.00000  Uiso   1.00
C995   C     0.20088   0.64513   0.77050   0.00000  Uiso   1.00
C996   C     0.13984   0.49778   0.85224   0.00000  Uiso   1.00
C997   C     0.19825   0.35435   0.77933   0.00000  Uiso   1.00
C998   C     0.15959   0.37630   0.77134   0.00000  Uiso   1.00
C999   C     0.11850   0.35390   0.76960   0.00000  Uiso   1.00
C1000  C     0.12281   0.64504   0.75920   0.00000  Uiso   1.00
C1001  C     0.16460   0.62447   0.75755   0.00000  Uiso   1.00
C1002  C     0.32030   0.47702   0.71211   0.00000  Uiso   1.00
C1003  C     0.03559   0.47787   0.71188   0.00000  Uiso   1.00
C1004  C     0.01253   0.52211   0.78802   0.00000  Uiso   1.00
C1005  C     0.29800   0.52226   0.78787   0.00000  Uiso   1.00
C1006  C     0.16396   0.42047   0.75841   0.00000  Uiso   1.00
C1007  C     0.19350   0.50060   0.64783   0.00000  Uiso   1.00
C1008  C     0.25934   0.46029   0.50921   0.00000  Uiso   1.00
C1009  C     0.21029   0.49696   0.58926   0.00000  Uiso   1.00
C1010  C     0.07597   0.50823   0.94185   0.00000  Uiso   1.00
C1011  C     0.06223   0.51153   0.99796   0.00000  Uiso   1.00
C1012  C     0.09585   0.50427   0.52329   0.00000  Uiso   1.00
H1013  H     0.27751   0.46645   0.58108   0.00000  Uiso   1.00
H1014  H     0.09250   0.62783   0.75489   0.00000  Uiso   1.00
H1015  H     0.06377   0.46111   0.68127   0.00000  Uiso   1.00
H1016  H     0.02157   0.53986   0.81840   0.00000  Uiso   1.00
H1017  H     0.27079   0.54024   0.81808   0.00000  Uiso   1.00
H1018  H     0.26109   0.43119   0.91377   0.00000  Uiso   1.00
H1019  H     0.29168   0.44277   0.98800   0.00000  Uiso   1.00
H1020  H     0.05075   0.51742   0.92228   0.00000  Uiso   1.00
H1021  H     0.08327   0.50677   0.56697   0.00000  Uiso   1.00
H1022  H     0.02599   0.52126   0.52170   0.00000  Uiso   1.00
H1023  H     0.20071   0.44230   0.87255   0.00000  Uiso   1.00
H1024  H     0.23076   0.62800   0.77520   0.00000  Uiso   1.00
N1025  N     0.04760   0.50001   0.75002   0.00000  Uiso   1.00
N1026  N     0.28573   0.49998   0.75000   0.00000  Uiso   1.00
O1027  O     0.12846   0.56108   0.75001   0.00000  Uiso   1.00
O1028  O     0.20490   0.56107   0.75001   0.00000  Uiso   1.00
O1029  O     0.10947   0.50000   0.82681   0.00000  Uiso   1.00
O1030  O     0.18591   0.49999   0.82681   0.00000  Uiso   1.00
O1031  O     0.12843   0.43893   0.75000   0.00000  Uiso   1.00
O1032  O     0.20488   0.43892   0.74999   0.00000  Uiso   1.00
O1033  O     0.14742   0.50001   0.67319   0.00000  Uiso   1.00
O1034  O     0.22387   0.50000   0.67319   0.00000  Uiso   1.00
Zn1035 Zn    0.11562   0.50001   0.75000   0.00000  Uiso   1.00
Zn1036 Zn    0.21771   0.49999   0.75000   0.00000  Uiso   1.00
C1037  C     0.23156   0.37192   0.80542   0.00000  Uiso   1.00
O1038  O     0.25994   0.40010   0.78444   0.00000  Uiso   1.00
O1039  O     0.23254   0.35344   0.85321   0.00000  Uiso   1.00
H1040  H     0.25812   0.36619   0.86631   0.00000  Uiso   1.00
C1041  C     0.06950   0.37180   0.78307   0.00000  Uiso   1.00
O1042  O     0.05541   0.39865   0.81820   0.00000  Uiso   1.00
O1043  O     0.03811   0.35541   0.75849   0.00000  Uiso   1.00
H1044  H     0.00457   0.36731   0.77454   0.00000  Uiso   1.00
O1045  O     0.30684   0.45562   0.67323   0.00000  Uiso   1.00
C1046  C     0.33013   0.41659   0.65939   0.00000  Uiso   1.00
H1047  H     0.00307   0.40174   0.69460   0.00000  Uiso   1.00
H1048  H     0.03201   0.42096   0.62595   0.00000  Uiso   1.00
C1049  C     0.29842   0.38697   0.63992   0.00000  Uiso   1.00
H1050  H     0.26104   0.38667   0.66980   0.00000  Uiso   1.00
H1051  H     0.29711   0.39808   0.60045   0.00000  Uiso   1.00
C1052  C     0.31771   0.34243   0.63299   0.00000  Uiso   1.00
H1053  H     0.02180   0.34176   0.60322   0.00000  Uiso   1.00
H1054  H     0.29436   0.65537   0.61797   0.00000  Uiso   1.00
H1055  H     0.31748   0.66328   0.67252   0.00000  Uiso   1.00
O1056  O     0.14523   0.54003   0.58577   0.00000  Uiso   1.00
C1057  C     0.16578   0.57988   0.56767   0.00000  Uiso   1.00
H1058  H     0.14029   0.59690   0.55256   0.00000  Uiso   1.00
H1059  H     0.20115   0.57907   0.53336   0.00000  Uiso   1.00
C1060  C     0.17164   0.60427   0.61532   0.00000  Uiso   1.00
H1061  H     0.13643   0.60495   0.64928   0.00000  Uiso   1.00
H1062  H     0.19839   0.58837   0.62953   0.00000  Uiso   1.00
C1063  C     0.18883   0.64907   0.59944   0.00000  Uiso   1.00
H1064  H     0.22436   0.64921   0.56597   0.00000  Uiso   1.00
H1065  H     0.19288   0.66558   0.63494   0.00000  Uiso   1.00
H1066  H     0.16214   0.66610   0.58628   0.00000  Uiso   1.00
C1067  C     0.49995   0.58023   0.75075   0.00000  Uiso   1.00
C1068  C     0.47688   0.49198   0.99265   0.00000  Uiso   1.00
C1069  C     0.48709   0.48068   0.93803   0.00000  Uiso   1.00
C1070  C     0.51439   0.48902   0.51457   0.00000  Uiso   1.00
C1071  C     0.55686   0.46625   0.98616   0.00000  Uiso   1.00
C1072  C     0.56273   0.44929   0.93547   0.00000  Uiso   1.00
C1073  C     0.52842   0.45657   0.91153   0.00000  Uiso   1.00
C1074  C     0.51203   0.50906   0.56298   0.00000  Uiso   1.00
C1075  C     0.58528   0.47446   0.56154   0.00000  Uiso   1.00
C1076  C     0.45561   0.49397   0.91138   0.00000  Uiso   1.00
C1077  C     0.53421   0.64513   0.77050   0.00000  Uiso   1.00
C1078  C     0.47318   0.49778   0.85224   0.00000  Uiso   1.00
C1079  C     0.53158   0.35435   0.77933   0.00000  Uiso   1.00
C1080  C     0.49292   0.37630   0.77134   0.00000  Uiso   1.00
C1081  C     0.45183   0.35390   0.76960   0.00000  Uiso   1.00
C1082  C     0.45615   0.64504   0.75920   0.00000  Uiso   1.00
C1083  C     0.49793   0.62447   0.75755   0.00000  Uiso   1.00
C1084  C     0.65363   0.47702   0.71211   0.00000  Uiso   1.00
C1085  C     0.36892   0.47787   0.71188   0.00000  Uiso   1.00
C1086  C     0.34587   0.52211   0.78802   0.00000  Uiso   1.00
C1087  C     0.63133   0.52226   0.78787   0.00000  Uiso   1.00
C1088  C     0.49729   0.42047   0.75841   0.00000  Uiso   1.00
C1089  C     0.52683   0.50060   0.64783   0.00000  Uiso   1.00
C1090  C     0.59268   0.46029   0.50921   0.00000  Uiso   1.00
C1091  C     0.54362   0.49696   0.58926   0.00000  Uiso   1.00
C1092  C     0.40931   0.50823   0.94185   0.00000  Uiso   1.00
C1093  C     0.39556   0.51153   0.99796   0.00000  Uiso   1.00
C1094  C     0.42919   0.50427   0.52329   0.00000  Uiso   1.00
H1095  H     0.61084   0.46645   0.58108   0.00000  Uiso   1.00
H1096  H     0.42583   0.62783   0.75489   0.00000  Uiso   1.00
H1097  H     0.39710   0.46111   0.68127   0.00000  Uiso   1.00
H1098  H     0.35491   0.53986   0.81840   0.00000  Uiso   1.00
H1099  H     0.60412   0.54024   0.81808   0.00000  Uiso   1.00
H1100  H     0.59443   0.43119   0.91377   0.00000  Uiso   1.00
H1101  H     0.62501   0.44277   0.98800   0.00000  Uiso   1.00
H1102  H     0.38409   0.51742   0.92228   0.00000  Uiso   1.00
H1103  H     0.41661   0.50677   0.56697   0.00000  Uiso   1.00
H1104  H     0.35933   0.52126   0.52170   0.00000  Uiso   1.00
H1105  H     0.53404   0.44230   0.87255   0.00000  Uiso   1.00
H1106  H     0.56409   0.62800   0.77520   0.00000  Uiso   1.00
N1107  N     0.38093   0.50001   0.75002   0.00000  Uiso   1.00
N1108  N     0.61906   0.49998   0.75000   0.00000  Uiso   1.00
O1109  O     0.46179   0.56108   0.75001   0.00000  Uiso   1.00
O1110  O     0.53823   0.56107   0.75001   0.00000  Uiso   1.00
O1111  O     0.44280   0.50000   0.82681   0.00000  Uiso   1.00
O1112  O     0.51924   0.49999   0.82681   0.00000  Uiso   1.00
O1113  O     0.46177   0.43893   0.75000   0.00000  Uiso   1.00
O1114  O     0.53821   0.43892   0.74999   0.00000  Uiso   1.00
O1115  O     0.48076   0.50001   0.67319   0.00000  Uiso   1.00
O1116  O     0.55720   0.50000   0.67319   0.00000  Uiso   1.00
Zn1117 Zn    0.44896   0.50001   0.75000   0.00000  Uiso   1.00
Zn1118 Zn    0.55104   0.49999   0.75000   0.00000  Uiso   1.00
C1119  C     0.56490   0.37192   0.80542   0.00000  Uiso   1.00
O1120  O     0.59327   0.40010   0.78444   0.00000  Uiso   1.00
O1121  O     0.56587   0.35344   0.85321   0.00000  Uiso   1.00
H1122  H     0.59145   0.36619   0.86631   0.00000  Uiso   1.00
C1123  C     0.40284   0.37180   0.78307   0.00000  Uiso   1.00
O1124  O     0.38874   0.39865   0.81820   0.00000  Uiso   1.00
O1125  O     0.37144   0.35541   0.75849   0.00000  Uiso   1.00
H1126  H     0.33790   0.36731   0.77454   0.00000  Uiso   1.00
O1127  O     0.64018   0.45562   0.67323   0.00000  Uiso   1.00
C1128  C     0.66346   0.41659   0.65939   0.00000  Uiso   1.00
H1129  H     0.33640   0.40174   0.69460   0.00000  Uiso   1.00
H1130  H     0.36534   0.42096   0.62595   0.00000  Uiso   1.00
C1131  C     0.63175   0.38697   0.63992   0.00000  Uiso   1.00
H1132  H     0.59438   0.38667   0.66980   0.00000  Uiso   1.00
H1133  H     0.63044   0.39808   0.60045   0.00000  Uiso   1.00
C1134  C     0.65105   0.34243   0.63299   0.00000  Uiso   1.00
H1135  H     0.35513   0.34176   0.60322   0.00000  Uiso   1.00
H1136  H     0.62770   0.65537   0.61797   0.00000  Uiso   1.00
H1137  H     0.65082   0.66328   0.67252   0.00000  Uiso   1.00
O1138  O     0.47857   0.54003   0.58577   0.00000  Uiso   1.00
C1139  C     0.49911   0.57988   0.56767   0.00000  Uiso   1.00
H1140  H     0.47363   0.59690   0.55256   0.00000  Uiso   1.00
H1141  H     0.53448   0.57907   0.53336   0.00000  Uiso   1.00
C1142  C     0.50498   0.60427   0.61532   0.00000  Uiso   1.00
H1143  H     0.46976   0.60495   0.64928   0.00000  Uiso   1.00
H1144  H     0.53172   0.58837   0.62953   0.00000  Uiso   1.00
C1145  C     0.52216   0.64907   0.59944   0.00000  Uiso   1.00
H1146  H     0.55769   0.64921   0.56597   0.00000  Uiso   1.00
H1147  H     0.52621   0.66558   0.63494   0.00000  Uiso   1.00
H1148  H     0.49547   0.66610   0.58628   0.00000  Uiso   1.00
C1149  C     0.83329   0.58023   0.75075   0.00000  Uiso   1.00
C1150  C     0.81021   0.49198   0.99265   0.00000  Uiso   1.00
C1151  C     0.82042   0.48068   0.93803   0.00000  Uiso   1.00
C1152  C     0.84773   0.48902   0.51457   0.00000  Uiso   1.00
C1153  C     0.89019   0.46625   0.98616   0.00000  Uiso   1.00
C1154  C     0.89607   0.44929   0.93547   0.00000  Uiso   1.00
C1155  C     0.86176   0.45657   0.91153   0.00000  Uiso   1.00
C1156  C     0.84536   0.50906   0.56298   0.00000  Uiso   1.00
C1157  C     0.91861   0.47446   0.56154   0.00000  Uiso   1.00
C1158  C     0.78894   0.49397   0.91138   0.00000  Uiso   1.00
C1159  C     0.86754   0.64513   0.77050   0.00000  Uiso   1.00
C1160  C     0.80651   0.49778   0.85224   0.00000  Uiso   1.00
C1161  C     0.86492   0.35435   0.77933   0.00000  Uiso   1.00
C1162  C     0.82626   0.37630   0.77134   0.00000  Uiso   1.00
C1163  C     0.78516   0.35390   0.76960   0.00000  Uiso   1.00
C1164  C     0.78948   0.64504   0.75920   0.00000  Uiso   1.00
C1165  C     0.83127   0.62447   0.75755   0.00000  Uiso   1.00
C1166  C     0.98697   0.47702   0.71211   0.00000  Uiso   1.00
C1167  C     0.70225   0.47787   0.71188   0.00000  Uiso   1.00
C1168  C     0.67920   0.52211   0.78802   0.00000  Uiso   1.00
C1169  C     0.96467   0.52226   0.78787   0.00000  Uiso   1.00
C1170  C     0.83063   0.42047   0.75841   0.00000  Uiso   1.00
C1171  C     0.86016   0.50060   0.64783   0.00000  Uiso   1.00
C1172  C     0.92601   0.46029   0.50921   0.00000  Uiso   1.00
C1173  C     0.87695   0.49696   0.58926   0.00000  Uiso   1.00
C1174  C     0.74264   0.50823   0.94185   0.00000  Uiso   1.00
C1175  C     0.72889   0.51153   0.99796   0.00000  Uiso   1.00
C1176  C     0.76252   0.50427   0.52329   0.00000  Uiso   1.00
H1177  H     0.94417   0.46645   0.58108   0.00000  Uiso   1.00
H1178  H     0.75916   0.62783   0.75489   0.00000  Uiso   1.00
H1179  H     0.73043   0.46111   0.68127   0.00000  Uiso   1.00
H1180  H     0.68824   0.53986   0.81840   0.00000  Uiso   1.00
H1181  H     0.93745   0.54024   0.81808   0.00000  Uiso   1.00
H1182  H     0.92776   0.43119   0.91377   0.00000  Uiso   1.00
H1183  H     0.95835   0.44277   0.98800   0.00000  Uiso   1.00
H1184  H     0.71742   0.51742   0.92228   0.00000  Uiso   1.00
H1185  H     0.74994   0.50677   0.56697   0.00000  Uiso   1.00
H1186  H     0.69266   0.52126   0.52170   0.00000  Uiso   1.00
H1187  H     0.86738   0.44230   0.87255   0.00000  Uiso   1.00
H1188  H     0.89742   0.62800   0.77520   0.00000  Uiso   1.00
N1189  N     0.71426   0.50001   0.75002   0.00000  Uiso   1.00
N1190  N     0.95239   0.49998   0.75000   0.00000  Uiso   1.00
O1191  O     0.79512   0.56108   0.75001   0.00000  Uiso   1.00
O1192  O     0.87157   0.56107   0.75001   0.00000  Uiso   1.00
O1193  O     0.77613   0.50000   0.82681   0.00000  Uiso   1.00
O1194  O     0.85258   0.49999   0.82681   0.00000  Uiso   1.00
O1195  O     0.79510   0.43893   0.75000   0.00000  Uiso   1.00
O1196  O     0.87154   0.43892   0.74999   0.00000  Uiso   1.00
O1197  O     0.81409   0.50001   0.67319   0.00000  Uiso   1.00
O1198  O     0.89053   0.50000   0.67319   0.00000  Uiso   1.00
Zn1199 Zn    0.78229   0.50001   0.75000   0.00000  Uiso   1.00
Zn1200 Zn    0.88438   0.49999   0.75000   0.00000  Uiso   1.00
C1201  C     0.89823   0.37192   0.80542   0.00000  Uiso   1.00
O1202  O     0.92660   0.40010   0.78444   0.00000  Uiso   1.00
O1203  O     0.89920   0.35344   0.85321   0.00000  Uiso   1.00
H1204  H     0.92479   0.36619   0.86631   0.00000  Uiso   1.00
C1205  C     0.73617   0.37180   0.78307   0.00000  Uiso   1.00
O1206  O     0.72207   0.39865   0.81820   0.00000  Uiso   1.00
O1207  O     0.70478   0.35541   0.75849   0.00000  Uiso   1.00
H1208  H     0.67124   0.36731   0.77454   0.00000  Uiso   1.00
O1209  O     0.97351   0.45562   0.67323   0.00000  Uiso   1.00
C1210  C     0.99679   0.41659   0.65939   0.00000  Uiso   1.00
H1211  H     0.66974   0.40174   0.69460   0.00000  Uiso   1.00
H1212  H     0.69867   0.42096   0.62595   0.00000  Uiso   1.00
C1213  C     0.96509   0.38697   0.63992   0.00000  Uiso   1.00
H1214  H     0.92771   0.38667   0.66980   0.00000  Uiso   1.00
H1215  H     0.96378   0.39808   0.60045   0.00000  Uiso   1.00
C1216  C     0.98438   0.34243   0.63299   0.00000  Uiso   1.00
H1217  H     0.68846   0.34176   0.60322   0.00000  Uiso   1.00
H1218  H     0.96103   0.65537   0.61797   0.00000  Uiso   1.00
H1219  H     0.98415   0.66328   0.67252   0.00000  Uiso   1.00
O1220  O     0.81190   0.54003   0.58577   0.00000  Uiso   1.00
C1221  C     0.83244   0.57988   0.56767   0.00000  Uiso   1.00
H1222  H     0.80696   0.59690   0.55256   0.00000  Uiso   1.00
H1223  H     0.86782   0.57907   0.53336   0.00000  Uiso   1.00
C1224  C     0.83831   0.60427   0.61532   0.00000  Uiso   1.00
H1225  H     0.80309   0.60495   0.64928   0.00000  Uiso   1.00
H1226  H     0.86505   0.58837   0.62953   0.00000  Uiso   1.00
C1227  C     0.85550   0.64907   0.59944   0.00000  Uiso   1.00
H1228  H     0.89103   0.64921   0.56597   0.00000  Uiso   1.00
H1229  H     0.85955   0.66558   0.63494   0.00000  Uiso   1.00
H1230  H     0.82880   0.66610   0.58628   0.00000  Uiso   1.00
C1231  C     0.16662   0.91356   0.75075   0.00000  Uiso   1.00
C1232  C     0.14355   0.82531   0.99265   0.00000  Uiso   1.00
C1233  C     0.15376   0.81402   0.93803   0.00000  Uiso   1.00
C1234  C     0.18106   0.82236   0.51457   0.00000  Uiso   1.00
C1235  C     0.22353   0.79958   0.98616   0.00000  Uiso   1.00
C1236  C     0.22940   0.78262   0.93547   0.00000  Uiso   1.00
C1237  C     0.19509   0.78990   0.91153   0.00000  Uiso   1.00
C1238  C     0.17869   0.84239   0.56298   0.00000  Uiso   1.00
C1239  C     0.25194   0.80780   0.56154   0.00000  Uiso   1.00
C1240  C     0.12228   0.82730   0.91138   0.00000  Uiso   1.00
C1241  C     0.20088   0.97846   0.77050   0.00000  Uiso   1.00
C1242  C     0.13984   0.83112   0.85224   0.00000  Uiso   1.00
C1243  C     0.19825   0.68768   0.77933   0.00000  Uiso   1.00
C1244  C     0.15959   0.70963   0.77134   0.00000  Uiso   1.00
C1245  C     0.11850   0.68723   0.76960   0.00000  Uiso   1.00
C1246  C     0.12281   0.97837   0.75920   0.00000  Uiso   1.00
C1247  C     0.16460   0.95780   0.75755   0.00000  Uiso   1.00
C1248  C     0.32030   0.81035   0.71211   0.00000  Uiso   1.00
C1249  C     0.03559   0.81120   0.71188   0.00000  Uiso   1.00
C1250  C     0.01253   0.85544   0.78802   0.00000  Uiso   1.00
C1251  C     0.29800   0.85559   0.78787   0.00000  Uiso   1.00
C1252  C     0.16396   0.75380   0.75841   0.00000  Uiso   1.00
C1253  C     0.19350   0.83393   0.64783   0.00000  Uiso   1.00
C1254  C     0.25934   0.79362   0.50921   0.00000  Uiso   1.00
C1255  C     0.21029   0.83029   0.58926   0.00000  Uiso   1.00
C1256  C     0.07597   0.84157   0.94185   0.00000  Uiso   1.00
C1257  C     0.06223   0.84487   0.99796   0.00000  Uiso   1.00
C1258  C     0.09585   0.83760   0.52329   0.00000  Uiso   1.00
H1259  H     0.27751   0.79978   0.58108   0.00000  Uiso   1.00
H1260  H     0.09250   0.96117   0.75489   0.00000  Uiso   1.00
H1261  H     0.06377   0.79445   0.68127   0.00000  Uiso   1.00
H1262  H     0.02157   0.87319   0.81840   0.00000  Uiso   1.00
H1263  H     0.27079   0.87357   0.81808   0.00000  Uiso   1.00
H1264  H     0.26109   0.76452   0.91377   0.00000  Uiso   1.00
H1265  H     0.29168   0.77610   0.98800   0.00000  Uiso   1.00
H1266  H     0.05075   0.85075   0.92228   0.00000  Uiso   1.00
H1267  H     0.08327   0.84010   0.56697   0.00000  Uiso   1.00
H1268  H     0.02599   0.85460   0.52170   0.00000  Uiso   1.00
H1269  H     0.20071   0.77564   0.87255   0.00000  Uiso   1.00
H1270  H     0.23076   0.96133   0.77520   0.00000  Uiso   1.00
N1271  N     0.04760   0.83334   0.75002   0.00000  Uiso   1.00
N1272  N     0.28573   0.83331   0.75000   0.00000  Uiso   1.00
O1273  O     0.12846   0.89442   0.75001   0.00000  Uiso   1.00
O1274  O     0.20490   0.89441   0.75001   0.00000  Uiso   1.00
O1275  O     0.10947   0.83333   0.82681   0.00000  Uiso   1.00
O1276  O     0.18591   0.83332   0.82681   0.00000  Uiso   1.00
O1277  O     0.12843   0.77226   0.75000   0.00000  Uiso   1.00
O1278  O     0.20488   0.77225   0.74999   0.00000  Uiso   1.00
O1279  O     0.14742   0.83335   0.67319   0.00000  Uiso   1.00
O1280  O     0.22387   0.83334   0.67319   0.00000  Uiso   1.00
Zn1281 Zn    0.11562   0.83334   0.75000   0.00000  Uiso   1.00
Zn1282 Zn    0.21771   0.83333   0.75000   0.00000  Uiso   1.00
C1283  C     0.23156   0.70526   0.80542   0.00000  Uiso   1.00
O1284  O     0.25994   0.73343   0.78444   0.00000  Uiso   1.00
O1285  O     0.23254   0.68678   0.85321   0.00000  Uiso   1.00
H1286  H     0.25812   0.69952   0.86631   0.00000  Uiso   1.00
C1287  C     0.06950   0.70513   0.78307   0.00000  Uiso   1.00
O1288  O     0.05541   0.73198   0.81820   0.00000  Uiso   1.00
O1289  O     0.03811   0.68874   0.75849   0.00000  Uiso   1.00
H1290  H     0.00457   0.70064   0.77454   0.00000  Uiso   1.00
O1291  O     0.30684   0.78895   0.67323   0.00000  Uiso   1.00
C1292  C     0.33013   0.74992   0.65939   0.00000  Uiso   1.00
H1293  H     0.00307   0.73508   0.69460   0.00000  Uiso   1.00
H1294  H     0.03201   0.75430   0.62595   0.00000  Uiso   1.00
C1295  C     0.29842   0.72031   0.63992   0.00000  Uiso   1.00
H1296  H     0.26104   0.72000   0.66980   0.00000  Uiso   1.00
H1297  H     0.29711   0.73141   0.60045   0.00000  Uiso   1.00
C1298  C     0.31771   0.67577   0.63299   0.00000  Uiso   1.00
H1299  H     0.02180   0.67509   0.60322   0.00000  Uiso   1.00
H1300  H     0.29436   0.98870   0.61797   0.00000  Uiso   1.00
H1301  H     0.31748   0.99662   0.67252   0.00000  Uiso   1.00
O1302  O     0.14523   0.87336   0.58577   0.00000  Uiso   1.00
C1303  C     0.16578   0.91322   0.56767   0.00000  Uiso   1.00
H1304  H     0.14029   0.93024   0.55256   0.00000  Uiso   1.00
H1305  H     0.20115   0.91241   0.53336   0.00000  Uiso   1.00
C1306  C     0.17164   0.93760   0.61532   0.00000  Uiso   1.00
H1307  H     0.13643   0.93828   0.64928   0.00000  Uiso   1.00
H1308  H     0.19839   0.92170   0.62953   0.00000  Uiso   1.00
C1309  C     0.18883   0.98240   0.59944   0.00000  Uiso   1.00
H1310  H     0.22436   0.98254   0.56597   0.00000  Uiso   1.00
H1311  H     0.19288   0.99892   0.63494   0.00000  Uiso   1.00
H1312  H     0.16214   0.99944   0.58628   0.00000  Uiso   1.00
C1313  C     0.49995   0.91356   0.75075   0.00000  Uiso   1.00
C1314  C     0.47688   0.82531   0.99265   0.00000  Uiso   1.00
C1315  C     0.48709   0.81402   0.93803   0.00000  Uiso   1.00
C1316  C     0.51439   0.82236   0.51457   0.00000  Uiso   1.00
C1317  C     0.55686   0.79958   0.98616   0.00000  Uiso   1.00
C1318  C     0.56273   0.78262   0.93547   0.00000  Uiso   1.00
C1319  C     0.52842   0.78990   0.91153   0.00000  Uiso   1.00
C1320  C     0.51203   0.84239   0.56298   0.00000  Uiso   1.00
C1321  C     0.58528   0.80780   0.56154   0.00000  Uiso   1.00
C1322  C     0.45561   0.82730   0.91138   0.00000  Uiso   1.00
C1323  C     0.53421   0.97846   0.77050   0.00000  Uiso   1.00
C1324  C     0.47318   0.83112   0.85224   0.00000  Uiso   1.00
C1325  C     0.53158   0.68768   0.77933   0.00000  Uiso   1.00
C1326  C     0.49292   0.70963   0.77134   0.00000  Uiso   1.00
C1327  C     0.45183   0.68723   0.76960   0.00000  Uiso   1.00
C1328  C     0.45615   0.97837   0.75920   0.00000  Uiso   1.00
C1329  C     0.49793   0.95780   0.75755   0.00000  Uiso   1.00
C1330  C     0.65363   0.81035   0.71211   0.00000  Uiso   1.00
C1331  C     0.36892   0.81120   0.71188   0.00000  Uiso   1.00
C1332  C     0.34587   0.85544   0.78802   0.00000  Uiso   1.00
C1333  C     0.63133   0.85559   0.78787   0.00000  Uiso   1.00
C1334  C     0.49729   0.75380   0.75841   0.00000  Uiso   1.00
C1335  C     0.52683   0.83393   0.64783   0.00000  Uiso   1.00
C1336  C     0.59268   0.79362   0.50921   0.00000  Uiso   1.00
C1337  C     0.54362   0.83029   0.58926   0.00000  Uiso   1.00
C1338  C     0.40931   0.84157   0.94185   0.00000  Uiso   1.00
C1339  C     0.39556   0.84487   0.99796   0.00000  Uiso   1.00
C1340  C     0.42919   0.83760   0.52329   0.00000  Uiso   1.00
H1341  H     0.61084   0.79978   0.58108   0.00000  Uiso   1.00
H1342  H     0.42583   0.96117   0.75489   0.00000  Uiso   1.00
H1343  H     0.39710   0.79445   0.68127   0.00000  Uiso   1.00
H1344  H     0.35491   0.87319   0.81840   0.00000  Uiso   1.00
H1345  H     0.60412   0.87357   0.81808   0.00000  Uiso   1.00
H1346  H     0.59443   0.76452   0.91377   0.00000  Uiso   1.00
H1347  H     0.62501   0.77610   0.98800   0.00000  Uiso   1.00
H1348  H     0.38409   0.85075   0.92228   0.00000  Uiso   1.00
H1349  H     0.41661   0.84010   0.56697   0.00000  Uiso   1.00
H1350  H     0.35933   0.85460   0.52170   0.00000  Uiso   1.00
H1351  H     0.53404   0.77564   0.87255   0.00000  Uiso   1.00
H1352  H     0.56409   0.96133   0.77520   0.00000  Uiso   1.00
N1353  N     0.38093   0.83334   0.75002   0.00000  Uiso   1.00
N1354  N     0.61906   0.83331   0.75000   0.00000  Uiso   1.00
O1355  O     0.46179   0.89442   0.75001   0.00000  Uiso   1.00
O1356  O     0.53823   0.89441   0.75001   0.00000  Uiso   1.00
O1357  O     0.44280   0.83333   0.82681   0.00000  Uiso   1.00
O1358  O     0.51924   0.83332   0.82681   0.00000  Uiso   1.00
O1359  O     0.46177   0.77226   0.75000   0.00000  Uiso   1.00
O1360  O     0.53821   0.77225   0.74999   0.00000  Uiso   1.00
O1361  O     0.48076   0.83335   0.67319   0.00000  Uiso   1.00
O1362  O     0.55720   0.83334   0.67319   0.00000  Uiso   1.00
Zn1363 Zn    0.44896   0.83334   0.75000   0.00000  Uiso   1.00
Zn1364 Zn    0.55104   0.83333   0.75000   0.00000  Uiso   1.00
C1365  C     0.56490   0.70526   0.80542   0.00000  Uiso   1.00
O1366  O     0.59327   0.73343   0.78444   0.00000  Uiso   1.00
O1367  O     0.56587   0.68678   0.85321   0.00000  Uiso   1.00
H1368  H     0.59145   0.69952   0.86631   0.00000  Uiso   1.00
C1369  C     0.40284   0.70513   0.78307   0.00000  Uiso   1.00
O1370  O     0.38874   0.73198   0.81820   0.00000  Uiso   1.00
O1371  O     0.37144   0.68874   0.75849   0.00000  Uiso   1.00
H1372  H     0.33790   0.70064   0.77454   0.00000  Uiso   1.00
O1373  O     0.64018   0.78895   0.67323   0.00000  Uiso   1.00
C1374  C     0.66346   0.74992   0.65939   0.00000  Uiso   1.00
H1375  H     0.33640   0.73508   0.69460   0.00000  Uiso   1.00
H1376  H     0.36534   0.75430   0.62595   0.00000  Uiso   1.00
C1377  C     0.63175   0.72031   0.63992   0.00000  Uiso   1.00
H1378  H     0.59438   0.72000   0.66980   0.00000  Uiso   1.00
H1379  H     0.63044   0.73141   0.60045   0.00000  Uiso   1.00
C1380  C     0.65105   0.67577   0.63299   0.00000  Uiso   1.00
H1381  H     0.35513   0.67509   0.60322   0.00000  Uiso   1.00
H1382  H     0.62770   0.98870   0.61797   0.00000  Uiso   1.00
H1383  H     0.65082   0.99662   0.67252   0.00000  Uiso   1.00
O1384  O     0.47857   0.87336   0.58577   0.00000  Uiso   1.00
C1385  C     0.49911   0.91322   0.56767   0.00000  Uiso   1.00
H1386  H     0.47363   0.93024   0.55256   0.00000  Uiso   1.00
H1387  H     0.53448   0.91241   0.53336   0.00000  Uiso   1.00
C1388  C     0.50498   0.93760   0.61532   0.00000  Uiso   1.00
H1389  H     0.46976   0.93828   0.64928   0.00000  Uiso   1.00
H1390  H     0.53172   0.92170   0.62953   0.00000  Uiso   1.00
C1391  C     0.52216   0.98240   0.59944   0.00000  Uiso   1.00
H1392  H     0.55769   0.98254   0.56597   0.00000  Uiso   1.00
H1393  H     0.52621   0.99892   0.63494   0.00000  Uiso   1.00
H1394  H     0.49547   0.99944   0.58628   0.00000  Uiso   1.00
C1395  C     0.83329   0.91356   0.75075   0.00000  Uiso   1.00
C1396  C     0.81021   0.82531   0.99265   0.00000  Uiso   1.00
C1397  C     0.82042   0.81402   0.93803   0.00000  Uiso   1.00
C1398  C     0.84773   0.82236   0.51457   0.00000  Uiso   1.00
C1399  C     0.89019   0.79958   0.98616   0.00000  Uiso   1.00
C1400  C     0.89607   0.78262   0.93547   0.00000  Uiso   1.00
C1401  C     0.86176   0.78990   0.91153   0.00000  Uiso   1.00
C1402  C     0.84536   0.84239   0.56298   0.00000  Uiso   1.00
C1403  C     0.91861   0.80780   0.56154   0.00000  Uiso   1.00
C1404  C     0.78894   0.82730   0.91138   0.00000  Uiso   1.00
C1405  C     0.86754   0.97846   0.77050   0.00000  Uiso   1.00
C1406  C     0.80651   0.83112   0.85224   0.00000  Uiso   1.00
C1407  C     0.86492   0.68768   0.77933   0.00000  Uiso   1.00
C1408  C     0.82626   0.70963   0.77134   0.00000  Uiso   1.00
C1409  C     0.78516   0.68723   0.76960   0.00000  Uiso   1.00
C1410  C     0.78948   0.97837   0.75920   0.00000  Uiso   1.00
C1411  C     0.83127   0.95780   0.75755   0.00000  Uiso   1.00
C1412  C     0.98697   0.81035   0.71211   0.00000  Uiso   1.00
C1413  C     0.70225   0.81120   0.71188   0.00000  Uiso   1.00
C1414  C     0.67920   0.85544   0.78802   0.00000  Uiso   1.00
C1415  C     0.96467   0.85559   0.78787   0.00000  Uiso   1.00
C1416  C     0.83063   0.75380   0.75841   0.00000  Uiso   1.00
C1417  C     0.86016   0.83393   0.64783   0.00000  Uiso   1.00
C1418  C     0.92601   0.79362   0.50921   0.00000  Uiso   1.00
C1419  C     0.87695   0.83029   0.58926   0.00000  Uiso   1.00
C1420  C     0.74264   0.84157   0.94185   0.00000  Uiso   1.00
C1421  C     0.72889   0.84487   0.99796   0.00000  Uiso   1.00
C1422  C     0.76252   0.83760   0.52329   0.00000  Uiso   1.00
H1423  H     0.94417   0.79978   0.58108   0.00000  Uiso   1.00
H1424  H     0.75916   0.96117   0.75489   0.00000  Uiso   1.00
H1425  H     0.73043   0.79445   0.68127   0.00000  Uiso   1.00
H1426  H     0.68824   0.87319   0.81840   0.00000  Uiso   1.00
H1427  H     0.93745   0.87357   0.81808   0.00000  Uiso   1.00
H1428  H     0.92776   0.76452   0.91377   0.00000  Uiso   1.00
H1429  H     0.95835   0.77610   0.98800   0.00000  Uiso   1.00
H1430  H     0.71742   0.85075   0.92228   0.00000  Uiso   1.00
H1431  H     0.74994   0.84010   0.56697   0.00000  Uiso   1.00
H1432  H     0.69266   0.85460   0.52170   0.00000  Uiso   1.00
H1433  H     0.86738   0.77564   0.87255   0.00000  Uiso   1.00
H1434  H     0.89742   0.96133   0.77520   0.00000  Uiso   1.00
N1435  N     0.71426   0.83334   0.75002   0.00000  Uiso   1.00
N1436  N     0.95239   0.83331   0.75000   0.00000  Uiso   1.00
O1437  O     0.79512   0.89442   0.75001   0.00000  Uiso   1.00
O1438  O     0.87157   0.89441   0.75001   0.00000  Uiso   1.00
O1439  O     0.77613   0.83333   0.82681   0.00000  Uiso   1.00
O1440  O     0.85258   0.83332   0.82681   0.00000  Uiso   1.00
O1441  O     0.79510   0.77226   0.75000   0.00000  Uiso   1.00
O1442  O     0.87154   0.77225   0.74999   0.00000  Uiso   1.00
O1443  O     0.81409   0.83335   0.67319   0.00000  Uiso   1.00
O1444  O     0.89053   0.83334   0.67319   0.00000  Uiso   1.00
Zn1445 Zn    0.78229   0.83334   0.75000   0.00000  Uiso   1.00
Zn1446 Zn    0.88438   0.83333   0.75000   0.00000  Uiso   1.00
C1447  C     0.89823   0.70526   0.80542   0.00000  Uiso   1.00
O1448  O     0.92660   0.73343   0.78444   0.00000  Uiso   1.00
O1449  O     0.89920   0.68678   0.85321   0.00000  Uiso   1.00
H1450  H     0.92479   0.69952   0.86631   0.00000  Uiso   1.00
C1451  C     0.73617   0.70513   0.78307   0.00000  Uiso   1.00
O1452  O     0.72207   0.73198   0.81820   0.00000  Uiso   1.00
O1453  O     0.70478   0.68874   0.75849   0.00000  Uiso   1.00
H1454  H     0.67124   0.70064   0.77454   0.00000  Uiso   1.00
O1455  O     0.97351   0.78895   0.67323   0.00000  Uiso   1.00
C1456  C     0.99679   0.74992   0.65939   0.00000  Uiso   1.00
H1457  H     0.66974   0.73508   0.69460   0.00000  Uiso   1.00
H1458  H     0.69867   0.75430   0.62595   0.00000  Uiso   1.00
C1459  C     0.96509   0.72031   0.63992   0.00000  Uiso   1.00
H1460  H     0.92771   0.72000   0.66980   0.00000  Uiso   1.00
H1461  H     0.96378   0.73141   0.60045   0.00000  Uiso   1.00
C1462  C     0.98438   0.67577   0.63299   0.00000  Uiso   1.00
H1463  H     0.68846   0.67509   0.60322   0.00000  Uiso   1.00
H1464  H     0.96103   0.98870   0.61797   0.00000  Uiso   1.00
H1465  H     0.98415   0.99662   0.67252   0.00000  Uiso   1.00
O1466  O     0.81190   0.87336   0.58577   0.00000  Uiso   1.00
C1467  C     0.83244   0.91322   0.56767   0.00000  Uiso   1.00
H1468  H     0.80696   0.93024   0.55256   0.00000  Uiso   1.00
H1469  H     0.86782   0.91241   0.53336   0.00000  Uiso   1.00
C1470  C     0.83831   0.93760   0.61532   0.00000  Uiso   1.00
H1471  H     0.80309   0.93828   0.64928   0.00000  Uiso   1.00
H1472  H     0.86505   0.92170   0.62953   0.00000  Uiso   1.00
C1473  C     0.85550   0.98240   0.59944   0.00000  Uiso   1.00
H1474  H     0.89103   0.98254   0.56597   0.00000  Uiso   1.00
H1475  H     0.85955   0.99892   0.63494   0.00000  Uiso   1.00
H1476  H     0.82880   0.99944   0.58628   0.00000  Uiso   1.00
loop_
_geom_bond_atom_site_label_1
_geom_bond_atom_site_label_2
_geom_bond_distance
_geom_bond_site_symmetry_2
_ccdc_geom_bond_type
C1     O43     1.282   .     A
C1     O44     1.284   .     A
C1     C17     1.425   .     S
C2     C3      1.406   .     A
C2     C742    1.417   .     S
C2     C766    1.417   .     S
C3     C7      1.412   .     A
C3     C10     1.411   .     A
C4     C8      1.402   .     A
C4     C740    1.417   1_554 S
C4     C743    1.423   1_554 S
C5     C6      1.390   .     A
C5     C742    1.423   .     S
C5     C762    1.402   .     S
C6     C7      1.385   .     A
C6     H34     1.083   .     S
C7     H39     1.079   .     S
C8     C25     1.396   .     A
C8     O72     1.386   .     S
C9     C25     1.397   .     A
C9     H29     1.081   .     S
C9     C24     1.390   .     A
C10    C12     1.462   .     S
C10    C26     1.403   .     A
C11    C17     1.391   .     A
C11    H40     1.085   .     S
C11    C259    1.379   .     S
C12    O46     1.292   .     A
C12    O45     1.292   .     A
C13    C14     1.421   .     A
C13    C53     1.484   .     S
C13    C503    1.379   1_545 S
C14    C22     1.448   .     S
C14    C15     1.416   .     A
C15    C57     1.484   .     S
C15    C508    1.375   1_545 S
C16    H30     1.084   .     S
C16    C17     1.390   .     A
C16    C261    1.375   .     S
C18    N42     1.370   .     A
C18    O61     1.392   .     S
C18    C101    1.432   .     S
C19    H31     1.081   .     S
C19    N41     1.366   .     A
C19    C182    1.432   1_455 S
C20    N41     1.364   .     A
C20    H32     1.082   .     S
C20    C185    1.413   1_455 S
C21    H33     1.082   .     S
C21    N42     1.366   .     A
C21    C102    1.413   .     S
C22    O48     1.287   .     A
C22    O47     1.292   .     A
C23    O50     1.288   .     A
C23    C25     1.448   .     S
C23    O49     1.290   .     A
C24    C743    1.402   1_554 S
C24    H773    1.084   1_554 S
C26    C27     1.390   .     A
C26    H36     1.083   .     S
C27    C766    1.393   .     S
C27    H776    1.083   .     S
C28    H37     1.079   .     S
C28    C740    1.417   1_554 S
C28    C765    1.393   1_554 S
H35    C762    1.084   .     S
H38    C765    1.083   1_554 S
N41    Zn51    2.007   .     S
N42    Zn52    2.007   .     S
O43    Zn51    1.987   .     S
O44    Zn52    1.994   .     S
O45    Zn51    1.961   .     S
O46    Zn52    1.908   .     S
O47    Zn51    1.994   .     S
O48    Zn52    1.987   .     S
O49    Zn51    1.908   .     S
O50    Zn52    1.961   .     S
C53    O54     1.219   .     D
C53    O55     1.398   .     S
O55    H56     1.013   .     S
C57    O59     1.396   .     S
C57    O58     1.224   .     D
O59    H60     1.010   .     S
O61    C62     1.416   .     S
C62    C65     1.531   .     S
C62    H145    1.113   .     S
C62    H146    1.112   .     S
H63    C226    1.113   1_455 S
H64    C226    1.112   1_455 S
C65    H67     1.110   .     S
C65    C68     1.526   .     S
C65    H66     1.111   .     S
C68    H151    1.111   .     S
C68    H562    1.111   1_545 S
C68    H563    1.111   1_545 S
H69    C232    1.111   1_455 S
H70    C314    1.111   .     S
H71    C314    1.111   .     S
O72    C73     1.417   .     S
C73    H75     1.119   .     S
C73    H74     1.111   .     S
C73    C76     1.531   .     S
C76    C79     1.526   .     S
C76    H78     1.110   .     S
C76    H77     1.111   .     S
C79    H81     1.111   .     S
C79    H82     1.111   .     S
C79    H80     1.111   .     S
C83    O125    1.282   .     A
C83    O126    1.284   .     A
C83    C99     1.425   .     S
C84    C85     1.406   .     A
C84    C824    1.417   .     S
C84    C848    1.417   .     S
C85    C89     1.412   .     A
C85    C92     1.411   .     A
C86    C90     1.402   .     A
C86    C822    1.417   1_554 S
C86    C825    1.423   1_554 S
C87    C88     1.390   .     A
C87    C824    1.423   .     S
C87    C844    1.402   .     S
C88    C89     1.385   .     A
C88    H116    1.083   .     S
C89    H121    1.079   .     S
C90    C107    1.396   .     A
C90    O154    1.386   .     S
C91    C107    1.397   .     A
C91    H111    1.081   .     S
C91    C106    1.390   .     A
C92    C94     1.462   .     S
C92    C108    1.403   .     A
C93    C99     1.391   .     A
C93    H122    1.085   .     S
C93    C341    1.379   .     S
C94    O128    1.292   .     A
C94    O127    1.292   .     A
C95    C96     1.421   .     A
C95    C135    1.484   .     S
C95    C585    1.379   1_545 S
C96    C104    1.448   .     S
C96    C97     1.416   .     A
C97    C139    1.484   .     S
C97    C590    1.375   1_545 S
C98    H112    1.084   .     S
C98    C99     1.390   .     A
C98    C343    1.375   .     S
C100   N124    1.370   .     A
C100   O143    1.392   .     S
C100   C183    1.432   .     S
C101   H113    1.081   .     S
C101   N123    1.366   .     A
C102   N123    1.364   .     A
C102   H114    1.082   .     S
C103   H115    1.082   .     S
C103   N124    1.366   .     A
C103   C184    1.413   .     S
C104   O130    1.287   .     A
C104   O129    1.292   .     A
C105   O132    1.288   .     A
C105   C107    1.448   .     S
C105   O131    1.290   .     A
C106   C825    1.402   1_554 S
C106   H855    1.084   1_554 S
C108   C109    1.390   .     A
C108   H118    1.083   .     S
C109   C848    1.393   .     S
C109   H858    1.083   .     S
C110   H119    1.079   .     S
C110   C822    1.417   1_554 S
C110   C847    1.393   1_554 S
H117   C844    1.084   .     S
H120   C847    1.083   1_554 S
N123   Zn133   2.007   .     S
N124   Zn134   2.007   .     S
O125   Zn133   1.987   .     S
O126   Zn134   1.994   .     S
O127   Zn133   1.961   .     S
O128   Zn134   1.908   .     S
O129   Zn133   1.994   .     S
O130   Zn134   1.987   .     S
O131   Zn133   1.908   .     S
O132   Zn134   1.961   .     S
C135   O136    1.219   .     D
C135   O137    1.398   .     S
O137   H138    1.013   .     S
C139   O141    1.396   .     S
C139   O140    1.224   .     D
O141   H142    1.010   .     S
O143   C144    1.416   .     S
C144   C147    1.531   .     S
C144   H227    1.113   .     S
C144   H228    1.112   .     S
C147   H149    1.110   .     S
C147   C150    1.526   .     S
C147   H148    1.111   .     S
C150   H233    1.111   .     S
C150   H644    1.111   1_545 S
C150   H645    1.111   1_545 S
H152   C396    1.111   .     S
H153   C396    1.111   .     S
O154   C155    1.417   .     S
C155   H157    1.119   .     S
C155   H156    1.111   .     S
C155   C158    1.531   .     S
C158   C161    1.526   .     S
C158   H160    1.110   .     S
C158   H159    1.111   .     S
C161   H163    1.111   .     S
C161   H164    1.111   .     S
C161   H162    1.111   .     S
C165   O207    1.282   .     A
C165   O208    1.284   .     A
C165   C181    1.425   .     S
C166   C167    1.406   .     A
C166   C906    1.417   .     S
C166   C930    1.417   .     S
C167   C171    1.412   .     A
C167   C174    1.411   .     A
C168   C172    1.402   .     A
C168   C904    1.417   1_554 S
C168   C907    1.423   1_554 S
C169   C170    1.390   .     A
C169   C906    1.423   .     S
C169   C926    1.402   .     S
C170   C171    1.385   .     A
C170   H198    1.083   .     S
C171   H203    1.079   .     S
C172   C189    1.396   .     A
C172   O236    1.386   .     S
C173   C189    1.397   .     A
C173   H193    1.081   .     S
C173   C188    1.390   .     A
C174   C176    1.462   .     S
C174   C190    1.403   .     A
C175   C181    1.391   .     A
C175   H204    1.085   .     S
C175   C423    1.379   .     S
C176   O210    1.292   .     A
C176   O209    1.292   .     A
C177   C178    1.421   .     A
C177   C217    1.484   .     S
C177   C667    1.379   1_545 S
C178   C186    1.448   .     S
C178   C179    1.416   .     A
C179   C221    1.484   .     S
C179   C672    1.375   1_545 S
C180   H194    1.084   .     S
C180   C181    1.390   .     A
C180   C425    1.375   .     S
C182   N206    1.370   .     A
C182   O225    1.392   .     S
C182   C19     1.432   1_655 S
C183   H195    1.081   .     S
C183   N205    1.366   .     A
C184   N205    1.364   .     A
C184   H196    1.082   .     S
C185   H197    1.082   .     S
C185   N206    1.366   .     A
C185   C20     1.413   1_655 S
C186   O212    1.287   .     A
C186   O211    1.292   .     A
C187   O214    1.288   .     A
C187   C189    1.448   .     S
C187   O213    1.290   .     A
C188   C907    1.402   1_554 S
C188   H937    1.084   1_554 S
C190   C191    1.390   .     A
C190   H200    1.083   .     S
C191   C930    1.393   .     S
C191   H940    1.083   .     S
C192   H201    1.079   .     S
C192   C904    1.417   1_554 S
C192   C929    1.393   1_554 S
H199   C926    1.084   .     S
H202   C929    1.083   1_554 S
N205   Zn215   2.007   .     S
N206   Zn216   2.007   .     S
O207   Zn215   1.987   .     S
O208   Zn216   1.994   .     S
O209   Zn215   1.961   .     S
O210   Zn216   1.908   .     S
O211   Zn215   1.994   .     S
O212   Zn216   1.987   .     S
O213   Zn215   1.908   .     S
O214   Zn216   1.961   .     S
C217   O218    1.219   .     D
C217   O219    1.398   .     S
O219   H220    1.013   .     S
C221   O223    1.396   .     S
C221   O222    1.224   .     D
O223   H224    1.010   .     S
O225   C226    1.416   .     S
C226   C229    1.531   .     S
C226   H63     1.113   1_655 S
C226   H64     1.112   1_655 S
C229   H231    1.110   .     S
C229   C232    1.526   .     S
C229   H230    1.111   .     S
C232   H69     1.111   1_655 S
C232   H726    1.111   1_545 S
C232   H727    1.111   1_545 S
H234   C478    1.111   .     S
H235   C478    1.111   .     S
O236   C237    1.417   .     S
C237   H239    1.119   .     S
C237   H238    1.111   .     S
C237   C240    1.531   .     S
C240   C243    1.526   .     S
C240   H242    1.110   .     S
C240   H241    1.111   .     S
C243   H245    1.111   .     S
C243   H246    1.111   .     S
C243   H244    1.111   .     S
C247   O289    1.282   .     A
C247   O290    1.284   .     A
C247   C263    1.425   .     S
C248   C249    1.406   .     A
C248   C988    1.417   .     S
C248   C1012   1.417   .     S
C249   C253    1.412   .     A
C249   C256    1.411   .     A
C250   C254    1.402   .     A
C250   C986    1.417   1_554 S
C250   C989    1.423   1_554 S
C251   C252    1.390   .     A
C251   C988    1.423   .     S
C251   C1008   1.402   .     S
C252   C253    1.385   .     A
C252   H280    1.083   .     S
C253   H285    1.079   .     S
C254   C271    1.396   .     A
C254   O318    1.386   .     S
C255   C271    1.397   .     A
C255   H275    1.081   .     S
C255   C270    1.390   .     A
C256   C258    1.462   .     S
C256   C272    1.403   .     A
C257   C263    1.391   .     A
C257   H286    1.085   .     S
C257   C505    1.379   .     S
C258   O292    1.292   .     A
C258   O291    1.292   .     A
C259   C260    1.421   .     A
C259   C299    1.484   .     S
C260   C268    1.448   .     S
C260   C261    1.416   .     A
C261   C303    1.484   .     S
C262   H276    1.084   .     S
C262   C263    1.390   .     A
C262   C507    1.375   .     S
C264   N288    1.370   .     A
C264   O307    1.392   .     S
C264   C347    1.432   .     S
C265   H277    1.081   .     S
C265   N287    1.366   .     A
C265   C428    1.432   1_455 S
C266   N287    1.364   .     A
C266   H278    1.082   .     S
C266   C431    1.413   1_455 S
C267   H279    1.082   .     S
C267   N288    1.366   .     A
C267   C348    1.413   .     S
C268   O294    1.287   .     A
C268   O293    1.292   .     A
C269   O296    1.288   .     A
C269   C271    1.448   .     S
C269   O295    1.290   .     A
C270   C989    1.402   1_554 S
C270   H1019   1.084   1_554 S
C272   C273    1.390   .     A
C272   H282    1.083   .     S
C273   C1012   1.393   .     S
C273   H1022   1.083   .     S
C274   H283    1.079   .     S
C274   C986    1.417   1_554 S
C274   C1011   1.393   1_554 S
H281   C1008   1.084   .     S
H284   C1011   1.083   1_554 S
N287   Zn297   2.007   .     S
N288   Zn298   2.007   .     S
O289   Zn297   1.987   .     S
O290   Zn298   1.994   .     S
O291   Zn297   1.961   .     S
O292   Zn298   1.908   .     S
O293   Zn297   1.994   .     S
O294   Zn298   1.987   .     S
O295   Zn297   1.908   .     S
O296   Zn298   1.961   .     S
C299   O300    1.219   .     D
C299   O301    1.398   .     S
O301   H302    1.013   .     S
C303   O305    1.396   .     S
C303   O304    1.224   .     D
O305   H306    1.010   .     S
O307   C308    1.416   .     S
C308   C311    1.531   .     S
C308   H391    1.113   .     S
C308   H392    1.112   .     S
H309   C472    1.113   1_455 S
H310   C472    1.112   1_455 S
C311   H313    1.110   .     S
C311   C314    1.526   .     S
C311   H312    1.111   .     S
C314   H397    1.111   .     S
H315   C478    1.111   1_455 S
H316   C560    1.111   .     S
H317   C560    1.111   .     S
O318   C319    1.417   .     S
C319   H321    1.119   .     S
C319   H320    1.111   .     S
C319   C322    1.531   .     S
C322   C325    1.526   .     S
C322   H324    1.110   .     S
C322   H323    1.111   .     S
C325   H327    1.111   .     S
C325   H328    1.111   .     S
C325   H326    1.111   .     S
C329   O371    1.282   .     A
C329   O372    1.284   .     A
C329   C345    1.425   .     S
C330   C331    1.406   .     A
C330   C1070   1.417   .     S
C330   C1094   1.417   .     S
C331   C335    1.412   .     A
C331   C338    1.411   .     A
C332   C336    1.402   .     A
C332   C1068   1.417   1_554 S
C332   C1071   1.423   1_554 S
C333   C334    1.390   .     A
C333   C1070   1.423   .     S
C333   C1090   1.402   .     S
C334   C335    1.385   .     A
C334   H362    1.083   .     S
C335   H367    1.079   .     S
C336   C353    1.396   .     A
C336   O400    1.386   .     S
C337   C353    1.397   .     A
C337   H357    1.081   .     S
C337   C352    1.390   .     A
C338   C340    1.462   .     S
C338   C354    1.403   .     A
C339   C345    1.391   .     A
C339   H368    1.085   .     S
C339   C587    1.379   .     S
C340   O374    1.292   .     A
C340   O373    1.292   .     A
C341   C342    1.421   .     A
C341   C381    1.484   .     S
C342   C350    1.448   .     S
C342   C343    1.416   .     A
C343   C385    1.484   .     S
C344   H358    1.084   .     S
C344   C345    1.390   .     A
C344   C589    1.375   .     S
C346   N370    1.370   .     A
C346   O389    1.392   .     S
C346   C429    1.432   .     S
C347   H359    1.081   .     S
C347   N369    1.366   .     A
C348   N369    1.364   .     A
C348   H360    1.082   .     S
C349   H361    1.082   .     S
C349   N370    1.366   .     A
C349   C430    1.413   .     S
C350   O376    1.287   .     A
C350   O375    1.292   .     A
C351   O378    1.288   .     A
C351   C353    1.448   .     S
C351   O377    1.290   .     A
C352   C1071   1.402   1_554 S
C352   H1101   1.084   1_554 S
C354   C355    1.390   .     A
C354   H364    1.083   .     S
C355   C1094   1.393   .     S
C355   H1104   1.083   .     S
C356   H365    1.079   .     S
C356   C1068   1.417   1_554 S
C356   C1093   1.393   1_554 S
H363   C1090   1.084   .     S
H366   C1093   1.083   1_554 S
N369   Zn379   2.007   .     S
N370   Zn380   2.007   .     S
O371   Zn379   1.987   .     S
O372   Zn380   1.994   .     S
O373   Zn379   1.961   .     S
O374   Zn380   1.908   .     S
O375   Zn379   1.994   .     S
O376   Zn380   1.987   .     S
O377   Zn379   1.908   .     S
O378   Zn380   1.961   .     S
C381   O382    1.219   .     D
C381   O383    1.398   .     S
O383   H384    1.013   .     S
C385   O387    1.396   .     S
C385   O386    1.224   .     D
O387   H388    1.010   .     S
O389   C390    1.416   .     S
C390   C393    1.531   .     S
C390   H473    1.113   .     S
C390   H474    1.112   .     S
C393   H395    1.110   .     S
C393   C396    1.526   .     S
C393   H394    1.111   .     S
C396   H479    1.111   .     S
H398   C642    1.111   .     S
H399   C642    1.111   .     S
O400   C401    1.417   .     S
C401   H403    1.119   .     S
C401   H402    1.111   .     S
C401   C404    1.531   .     S
C404   C407    1.526   .     S
C404   H406    1.110   .     S
C404   H405    1.111   .     S
C407   H409    1.111   .     S
C407   H410    1.111   .     S
C407   H408    1.111   .     S
C411   O453    1.282   .     A
C411   O454    1.284   .     A
C411   C427    1.425   .     S
C412   C413    1.406   .     A
C412   C1152   1.417   .     S
C412   C1176   1.417   .     S
C413   C417    1.412   .     A
C413   C420    1.411   .     A
C414   C418    1.402   .     A
C414   C1150   1.417   1_554 S
C414   C1153   1.423   1_554 S
C415   C416    1.390   .     A
C415   C1152   1.423   .     S
C415   C1172   1.402   .     S
C416   C417    1.385   .     A
C416   H444    1.083   .     S
C417   H449    1.079   .     S
C418   C435    1.396   .     A
C418   O482    1.386   .     S
C419   C435    1.397   .     A
C419   H439    1.081   .     S
C419   C434    1.390   .     A
C420   C422    1.462   .     S
C420   C436    1.403   .     A
C421   C427    1.391   .     A
C421   H450    1.085   .     S
C421   C669    1.379   .     S
C422   O456    1.292   .     A
C422   O455    1.292   .     A
C423   C424    1.421   .     A
C423   C463    1.484   .     S
C424   C432    1.448   .     S
C424   C425    1.416   .     A
C425   C467    1.484   .     S
C426   H440    1.084   .     S
C426   C427    1.390   .     A
C426   C671    1.375   .     S
C428   N452    1.370   .     A
C428   O471    1.392   .     S
C428   C265    1.432   1_655 S
C429   H441    1.081   .     S
C429   N451    1.366   .     A
C430   N451    1.364   .     A
C430   H442    1.082   .     S
C431   H443    1.082   .     S
C431   N452    1.366   .     A
C431   C266    1.413   1_655 S
C432   O458    1.287   .     A
C432   O457    1.292   .     A
C433   O460    1.288   .     A
C433   C435    1.448   .     S
C433   O459    1.290   .     A
C434   C1153   1.402   1_554 S
C434   H1183   1.084   1_554 S
C436   C437    1.390   .     A
C436   H446    1.083   .     S
C437   C1176   1.393   .     S
C437   H1186   1.083   .     S
C438   H447    1.079   .     S
C438   C1150   1.417   1_554 S
C438   C1175   1.393   1_554 S
H445   C1172   1.084   .     S
H448   C1175   1.083   1_554 S
N451   Zn461   2.007   .     S
N452   Zn462   2.007   .     S
O453   Zn461   1.987   .     S
O454   Zn462   1.994   .     S
O455   Zn461   1.961   .     S
O456   Zn462   1.908   .     S
O457   Zn461   1.994   .     S
O458   Zn462   1.987   .     S
O459   Zn461   1.908   .     S
O460   Zn462   1.961   .     S
C463   O464    1.219   .     D
C463   O465    1.398   .     S
O465   H466    1.013   .     S
C467   O469    1.396   .     S
C467   O468    1.224   .     D
O469   H470    1.010   .     S
O471   C472    1.416   .     S
C472   C475    1.531   .     S
C472   H309    1.113   1_655 S
C472   H310    1.112   1_655 S
C475   H477    1.110   .     S
C475   C478    1.526   .     S
C475   H476    1.111   .     S
C478   H315    1.111   1_655 S
H480   C724    1.111   .     S
H481   C724    1.111   .     S
O482   C483    1.417   .     S
C483   H485    1.119   .     S
C483   H484    1.111   .     S
C483   C486    1.531   .     S
C486   C489    1.526   .     S
C486   H488    1.110   .     S
C486   H487    1.111   .     S
C489   H491    1.111   .     S
C489   H492    1.111   .     S
C489   H490    1.111   .     S
C493   O535    1.282   .     A
C493   O536    1.284   .     A
C493   C509    1.425   .     S
C494   C495    1.406   .     A
C494   C1234   1.417   .     S
C494   C1258   1.417   .     S
C495   C499    1.412   .     A
C495   C502    1.411   .     A
C496   C500    1.402   .     A
C496   C1232   1.417   1_554 S
C496   C1235   1.423   1_554 S
C497   C498    1.390   .     A
C497   C1234   1.423   .     S
C497   C1254   1.402   .     S
C498   C499    1.385   .     A
C498   H526    1.083   .     S
C499   H531    1.079   .     S
C500   C517    1.396   .     A
C500   O564    1.386   .     S
C501   C517    1.397   .     A
C501   H521    1.081   .     S
C501   C516    1.390   .     A
C502   C504    1.462   .     S
C502   C518    1.403   .     A
C503   C509    1.391   .     A
C503   H532    1.085   .     S
C503   C13     1.379   1_565 S
C504   O538    1.292   .     A
C504   O537    1.292   .     A
C505   C506    1.421   .     A
C505   C545    1.484   .     S
C506   C514    1.448   .     S
C506   C507    1.416   .     A
C507   C549    1.484   .     S
C508   H522    1.084   .     S
C508   C509    1.390   .     A
C508   C15     1.375   1_565 S
C510   N534    1.370   .     A
C510   O553    1.392   .     S
C510   C593    1.432   .     S
C511   H523    1.081   .     S
C511   N533    1.366   .     A
C511   C674    1.432   1_455 S
C512   N533    1.364   .     A
C512   H524    1.082   .     S
C512   C677    1.413   1_455 S
C513   H525    1.082   .     S
C513   N534    1.366   .     A
C513   C594    1.413   .     S
C514   O540    1.287   .     A
C514   O539    1.292   .     A
C515   O542    1.288   .     A
C515   C517    1.448   .     S
C515   O541    1.290   .     A
C516   C1235   1.402   1_554 S
C516   H1265   1.084   1_554 S
C518   C519    1.390   .     A
C518   H528    1.083   .     S
C519   C1258   1.393   .     S
C519   H1268   1.083   .     S
C520   H529    1.079   .     S
C520   C1232   1.417   1_554 S
C520   C1257   1.393   1_554 S
H527   C1254   1.084   .     S
H530   C1257   1.083   1_554 S
N533   Zn543   2.007   .     S
N534   Zn544   2.007   .     S
O535   Zn543   1.987   .     S
O536   Zn544   1.994   .     S
O537   Zn543   1.961   .     S
O538   Zn544   1.908   .     S
O539   Zn543   1.994   .     S
O540   Zn544   1.987   .     S
O541   Zn543   1.908   .     S
O542   Zn544   1.961   .     S
C545   O546    1.219   .     D
C545   O547    1.398   .     S
O547   H548    1.013   .     S
C549   O551    1.396   .     S
C549   O550    1.224   .     D
O551   H552    1.010   .     S
O553   C554    1.416   .     S
C554   C557    1.531   .     S
C554   H637    1.113   .     S
C554   H638    1.112   .     S
H555   C718    1.113   1_455 S
H556   C718    1.112   1_455 S
C557   H559    1.110   .     S
C557   C560    1.526   .     S
C557   H558    1.111   .     S
C560   H643    1.111   .     S
H561   C724    1.111   1_455 S
H562   C68     1.111   1_565 S
H563   C68     1.111   1_565 S
O564   C565    1.417   .     S
C565   H567    1.119   .     S
C565   H566    1.111   .     S
C565   C568    1.531   .     S
C568   C571    1.526   .     S
C568   H570    1.110   .     S
C568   H569    1.111   .     S
C571   H573    1.111   .     S
C571   H574    1.111   .     S
C571   H572    1.111   .     S
C575   O617    1.282   .     A
C575   O618    1.284   .     A
C575   C591    1.425   .     S
C576   C577    1.406   .     A
C576   C1316   1.417   .     S
C576   C1340   1.417   .     S
C577   C581    1.412   .     A
C577   C584    1.411   .     A
C578   C582    1.402   .     A
C578   C1314   1.417   1_554 S
C578   C1317   1.423   1_554 S
C579   C580    1.390   .     A
C579   C1316   1.423   .     S
C579   C1336   1.402   .     S
C580   C581    1.385   .     A
C580   H608    1.083   .     S
C581   H613    1.079   .     S
C582   C599    1.396   .     A
C582   O646    1.386   .     S
C583   C599    1.397   .     A
C583   H603    1.081   .     S
C583   C598    1.390   .     A
C584   C586    1.462   .     S
C584   C600    1.403   .     A
C585   C591    1.391   .     A
C585   H614    1.085   .     S
C585   C95     1.379   1_565 S
C586   O620    1.292   .     A
C586   O619    1.292   .     A
C587   C588    1.421   .     A
C587   C627    1.484   .     S
C588   C596    1.448   .     S
C588   C589    1.416   .     A
C589   C631    1.484   .     S
C590   H604    1.084   .     S
C590   C591    1.390   .     A
C590   C97     1.375   1_565 S
C592   N616    1.370   .     A
C592   O635    1.392   .     S
C592   C675    1.432   .     S
C593   H605    1.081   .     S
C593   N615    1.366   .     A
C594   N615    1.364   .     A
C594   H606    1.082   .     S
C595   H607    1.082   .     S
C595   N616    1.366   .     A
C595   C676    1.413   .     S
C596   O622    1.287   .     A
C596   O621    1.292   .     A
C597   O624    1.288   .     A
C597   C599    1.448   .     S
C597   O623    1.290   .     A
C598   C1317   1.402   1_554 S
C598   H1347   1.084   1_554 S
C600   C601    1.390   .     A
C600   H610    1.083   .     S
C601   C1340   1.393   .     S
C601   H1350   1.083   .     S
C602   H611    1.079   .     S
C602   C1314   1.417   1_554 S
C602   C1339   1.393   1_554 S
H609   C1336   1.084   .     S
H612   C1339   1.083   1_554 S
N615   Zn625   2.007   .     S
N616   Zn626   2.007   .     S
O617   Zn625   1.987   .     S
O618   Zn626   1.994   .     S
O619   Zn625   1.961   .     S
O620   Zn626   1.908   .     S
O621   Zn625   1.994   .     S
O622   Zn626   1.987   .     S
O623   Zn625   1.908   .     S
O624   Zn626   1.961   .     S
C627   O628    1.219   .     D
C627   O629    1.398   .     S
O629   H630    1.013   .     S
C631   O633    1.396   .     S
C631   O632    1.224   .     D
O633   H634    1.010   .     S
O635   C636    1.416   .     S
C636   C639    1.531   .     S
C636   H719    1.113   .     S
C636   H720    1.112   .     S
C639   H641    1.110   .     S
C639   C642    1.526   .     S
C639   H640    1.111   .     S
C642   H725    1.111   .     S
H644   C150    1.111   1_565 S
H645   C150    1.111   1_565 S
O646   C647    1.417   .     S
C647   H649    1.119   .     S
C647   H648    1.111   .     S
C647   C650    1.531   .     S
C650   C653    1.526   .     S
C650   H652    1.110   .     S
C650   H651    1.111   .     S
C653   H655    1.111   .     S
C653   H656    1.111   .     S
C653   H654    1.111   .     S
C657   O699    1.282   .     A
C657   O700    1.284   .     A
C657   C673    1.425   .     S
C658   C659    1.406   .     A
C658   C1398   1.417   .     S
C658   C1422   1.417   .     S
C659   C663    1.412   .     A
C659   C666    1.411   .     A
C660   C664    1.402   .     A
C660   C1396   1.417   1_554 S
C660   C1399   1.423   1_554 S
C661   C662    1.390   .     A
C661   C1398   1.423   .     S
C661   C1418   1.402   .     S
C662   C663    1.385   .     A
C662   H690    1.083   .     S
C663   H695    1.079   .     S
C664   C681    1.396   .     A
C664   O728    1.386   .     S
C665   C681    1.397   .     A
C665   H685    1.081   .     S
C665   C680    1.390   .     A
C666   C668    1.462   .     S
C666   C682    1.403   .     A
C667   C673    1.391   .     A
C667   H696    1.085   .     S
C667   C177    1.379   1_565 S
C668   O702    1.292   .     A
C668   O701    1.292   .     A
C669   C670    1.421   .     A
C669   C709    1.484   .     S
C670   C678    1.448   .     S
C670   C671    1.416   .     A
C671   C713    1.484   .     S
C672   H686    1.084   .     S
C672   C673    1.390   .     A
C672   C179    1.375   1_565 S
C674   N698    1.370   .     A
C674   O717    1.392   .     S
C674   C511    1.432   1_655 S
C675   H687    1.081   .     S
C675   N697    1.366   .     A
C676   N697    1.364   .     A
C676   H688    1.082   .     S
C677   H689    1.082   .     S
C677   N698    1.366   .     A
C677   C512    1.413   1_655 S
C678   O704    1.287   .     A
C678   O703    1.292   .     A
C679   O706    1.288   .     A
C679   C681    1.448   .     S
C679   O705    1.290   .     A
C680   C1399   1.402   1_554 S
C680   H1429   1.084   1_554 S
C682   C683    1.390   .     A
C682   H692    1.083   .     S
C683   C1422   1.393   .     S
C683   H1432   1.083   .     S
C684   H693    1.079   .     S
C684   C1396   1.417   1_554 S
C684   C1421   1.393   1_554 S
H691   C1418   1.084   .     S
H694   C1421   1.083   1_554 S
N697   Zn707   2.007   .     S
N698   Zn708   2.007   .     S
O699   Zn707   1.987   .     S
O700   Zn708   1.994   .     S
O701   Zn707   1.961   .     S
O702   Zn708   1.908   .     S
O703   Zn707   1.994   .     S
O704   Zn708   1.987   .     S
O705   Zn707   1.908   .     S
O706   Zn708   1.961   .     S
C709   O710    1.219   .     D
C709   O711    1.398   .     S
O711   H712    1.013   .     S
C713   O715    1.396   .     S
C713   O714    1.224   .     D
O715   H716    1.010   .     S
O717   C718    1.416   .     S
C718   C721    1.531   .     S
C718   H555    1.113   1_655 S
C718   H556    1.112   1_655 S
C721   H723    1.110   .     S
C721   C724    1.526   .     S
C721   H722    1.111   .     S
C724   H561    1.111   1_655 S
H726   C232    1.111   1_565 S
H727   C232    1.111   1_565 S
O728   C729    1.417   .     S
C729   H731    1.119   .     S
C729   H730    1.111   .     S
C729   C732    1.531   .     S
C732   C735    1.526   .     S
C732   H734    1.110   .     S
C732   H733    1.111   .     S
C735   H737    1.111   .     S
C735   H738    1.111   .     S
C735   H736    1.111   .     S
C739   O781    1.282   .     A
C739   O782    1.284   .     A
C739   C755    1.425   .     S
C740   C741    1.406   .     A
C740   C4      1.417   1_556 S
C740   C28     1.417   1_556 S
C741   C745    1.412   .     A
C741   C748    1.411   .     A
C742   C746    1.402   .     A
C743   C744    1.390   .     A
C743   C4      1.423   1_556 S
C743   C24     1.402   1_556 S
C744   C745    1.385   .     A
C744   H772    1.083   .     S
C745   H777    1.079   .     S
C746   C763    1.396   .     A
C746   O810    1.386   .     S
C747   C763    1.397   .     A
C747   H767    1.081   .     S
C747   C762    1.390   .     A
C748   C750    1.462   .     S
C748   C764    1.403   .     A
C749   C755    1.391   .     A
C749   H778    1.085   .     S
C749   C997    1.379   .     S
C750   O784    1.292   .     A
C750   O783    1.292   .     A
C751   C752    1.421   .     A
C751   C791    1.484   .     S
C751   C1241   1.379   1_545 S
C752   C760    1.448   .     S
C752   C753    1.416   .     A
C753   C795    1.484   .     S
C753   C1246   1.375   1_545 S
C754   H768    1.084   .     S
C754   C755    1.390   .     A
C754   C999    1.375   .     S
C756   N780    1.370   .     A
C756   O799    1.392   .     S
C756   C839    1.432   .     S
C757   H769    1.081   .     S
C757   N779    1.366   .     A
C757   C920    1.432   1_455 S
C758   N779    1.364   .     A
C758   H770    1.082   .     S
C758   C923    1.413   1_455 S
C759   H771    1.082   .     S
C759   N780    1.366   .     A
C759   C840    1.413   .     S
C760   O786    1.287   .     A
C760   O785    1.292   .     A
C761   O788    1.288   .     A
C761   C763    1.448   .     S
C761   O787    1.290   .     A
C764   C765    1.390   .     A
C764   H774    1.083   .     S
C765   C28     1.393   1_556 S
C765   H38     1.083   1_556 S
C766   H775    1.079   .     S
H773   C24     1.084   1_556 S
N779   Zn789   2.007   .     S
N780   Zn790   2.007   .     S
O781   Zn789   1.987   .     S
O782   Zn790   1.994   .     S
O783   Zn789   1.961   .     S
O784   Zn790   1.908   .     S
O785   Zn789   1.994   .     S
O786   Zn790   1.987   .     S
O787   Zn789   1.908   .     S
O788   Zn790   1.961   .     S
C791   O792    1.219   .     D
C791   O793    1.398   .     S
O793   H794    1.013   .     S
C795   O797    1.396   .     S
C795   O796    1.224   .     D
O797   H798    1.010   .     S
O799   C800    1.416   .     S
C800   C803    1.531   .     S
C800   H883    1.113   .     S
C800   H884    1.112   .     S
H801   C964    1.113   1_455 S
H802   C964    1.112   1_455 S
C803   H805    1.110   .     S
C803   C806    1.526   .     S
C803   H804    1.111   .     S
C806   H889    1.111   .     S
C806   H1300   1.111   1_545 S
C806   H1301   1.111   1_545 S
H807   C970    1.111   1_455 S
H808   C1052   1.111   .     S
H809   C1052   1.111   .     S
O810   C811    1.417   .     S
C811   H813    1.119   .     S
C811   H812    1.111   .     S
C811   C814    1.531   .     S
C814   C817    1.526   .     S
C814   H816    1.110   .     S
C814   H815    1.111   .     S
C817   H819    1.111   .     S
C817   H820    1.111   .     S
C817   H818    1.111   .     S
C821   O863    1.282   .     A
C821   O864    1.284   .     A
C821   C837    1.425   .     S
C822   C823    1.406   .     A
C822   C86     1.417   1_556 S
C822   C110    1.417   1_556 S
C823   C827    1.412   .     A
C823   C830    1.411   .     A
C824   C828    1.402   .     A
C825   C826    1.390   .     A
C825   C86     1.423   1_556 S
C825   C106    1.402   1_556 S
C826   C827    1.385   .     A
C826   H854    1.083   .     S
C827   H859    1.079   .     S
C828   C845    1.396   .     A
C828   O892    1.386   .     S
C829   C845    1.397   .     A
C829   H849    1.081   .     S
C829   C844    1.390   .     A
C830   C832    1.462   .     S
C830   C846    1.403   .     A
C831   C837    1.391   .     A
C831   H860    1.085   .     S
C831   C1079   1.379   .     S
C832   O866    1.292   .     A
C832   O865    1.292   .     A
C833   C834    1.421   .     A
C833   C873    1.484   .     S
C833   C1323   1.379   1_545 S
C834   C842    1.448   .     S
C834   C835    1.416   .     A
C835   C877    1.484   .     S
C835   C1328   1.375   1_545 S
C836   H850    1.084   .     S
C836   C837    1.390   .     A
C836   C1081   1.375   .     S
C838   N862    1.370   .     A
C838   O881    1.392   .     S
C838   C921    1.432   .     S
C839   H851    1.081   .     S
C839   N861    1.366   .     A
C840   N861    1.364   .     A
C840   H852    1.082   .     S
C841   H853    1.082   .     S
C841   N862    1.366   .     A
C841   C922    1.413   .     S
C842   O868    1.287   .     A
C842   O867    1.292   .     A
C843   O870    1.288   .     A
C843   C845    1.448   .     S
C843   O869    1.290   .     A
C846   C847    1.390   .     A
C846   H856    1.083   .     S
C847   C110    1.393   1_556 S
C847   H120    1.083   1_556 S
C848   H857    1.079   .     S
H855   C106    1.084   1_556 S
N861   Zn871   2.007   .     S
N862   Zn872   2.007   .     S
O863   Zn871   1.987   .     S
O864   Zn872   1.994   .     S
O865   Zn871   1.961   .     S
O866   Zn872   1.908   .     S
O867   Zn871   1.994   .     S
O868   Zn872   1.987   .     S
O869   Zn871   1.908   .     S
O870   Zn872   1.961   .     S
C873   O874    1.219   .     D
C873   O875    1.398   .     S
O875   H876    1.013   .     S
C877   O879    1.396   .     S
C877   O878    1.224   .     D
O879   H880    1.010   .     S
O881   C882    1.416   .     S
C882   C885    1.531   .     S
C882   H965    1.113   .     S
C882   H966    1.112   .     S
C885   H887    1.110   .     S
C885   C888    1.526   .     S
C885   H886    1.111   .     S
C888   H971    1.111   .     S
C888   H1382   1.111   1_545 S
C888   H1383   1.111   1_545 S
H890   C1134   1.111   .     S
H891   C1134   1.111   .     S
O892   C893    1.417   .     S
C893   H895    1.119   .     S
C893   H894    1.111   .     S
C893   C896    1.531   .     S
C896   C899    1.526   .     S
C896   H898    1.110   .     S
C896   H897    1.111   .     S
C899   H901    1.111   .     S
C899   H902    1.111   .     S
C899   H900    1.111   .     S
C903   O945    1.282   .     A
C903   O946    1.284   .     A
C903   C919    1.425   .     S
C904   C905    1.406   .     A
C904   C168    1.417   1_556 S
C904   C192    1.417   1_556 S
C905   C909    1.412   .     A
C905   C912    1.411   .     A
C906   C910    1.402   .     A
C907   C908    1.390   .     A
C907   C168    1.423   1_556 S
C907   C188    1.402   1_556 S
C908   C909    1.385   .     A
C908   H936    1.083   .     S
C909   H941    1.079   .     S
C910   C927    1.396   .     A
C910   O974    1.386   .     S
C911   C927    1.397   .     A
C911   H931    1.081   .     S
C911   C926    1.390   .     A
C912   C914    1.462   .     S
C912   C928    1.403   .     A
C913   C919    1.391   .     A
C913   H942    1.085   .     S
C913   C1161   1.379   .     S
C914   O948    1.292   .     A
C914   O947    1.292   .     A
C915   C916    1.421   .     A
C915   C955    1.484   .     S
C915   C1405   1.379   1_545 S
C916   C924    1.448   .     S
C916   C917    1.416   .     A
C917   C959    1.484   .     S
C917   C1410   1.375   1_545 S
C918   H932    1.084   .     S
C918   C919    1.390   .     A
C918   C1163   1.375   .     S
C920   N944    1.370   .     A
C920   O963    1.392   .     S
C920   C757    1.432   1_655 S
C921   H933    1.081   .     S
C921   N943    1.366   .     A
C922   N943    1.364   .     A
C922   H934    1.082   .     S
C923   H935    1.082   .     S
C923   N944    1.366   .     A
C923   C758    1.413   1_655 S
C924   O950    1.287   .     A
C924   O949    1.292   .     A
C925   O952    1.288   .     A
C925   C927    1.448   .     S
C925   O951    1.290   .     A
C928   C929    1.390   .     A
C928   H938    1.083   .     S
C929   C192    1.393   1_556 S
C929   H202    1.083   1_556 S
C930   H939    1.079   .     S
H937   C188    1.084   1_556 S
N943   Zn953   2.007   .     S
N944   Zn954   2.007   .     S
O945   Zn953   1.987   .     S
O946   Zn954   1.994   .     S
O947   Zn953   1.961   .     S
O948   Zn954   1.908   .     S
O949   Zn953   1.994   .     S
O950   Zn954   1.987   .     S
O951   Zn953   1.908   .     S
O952   Zn954   1.961   .     S
C955   O956    1.219   .     D
C955   O957    1.398   .     S
O957   H958    1.013   .     S
C959   O961    1.396   .     S
C959   O960    1.224   .     D
O961   H962    1.010   .     S
O963   C964    1.416   .     S
C964   C967    1.531   .     S
C964   H801    1.113   1_655 S
C964   H802    1.112   1_655 S
C967   H969    1.110   .     S
C967   C970    1.526   .     S
C967   H968    1.111   .     S
C970   H807    1.111   1_655 S
C970   H1464   1.111   1_545 S
C970   H1465   1.111   1_545 S
H972   C1216   1.111   .     S
H973   C1216   1.111   .     S
O974   C975    1.417   .     S
C975   H977    1.119   .     S
C975   H976    1.111   .     S
C975   C978    1.531   .     S
C978   C981    1.526   .     S
C978   H980    1.110   .     S
C978   H979    1.111   .     S
C981   H983    1.111   .     S
C981   H984    1.111   .     S
C981   H982    1.111   .     S
C985   O1027   1.282   .     A
C985   O1028   1.284   .     A
C985   C1001   1.425   .     S
C986   C987    1.406   .     A
C986   C250    1.417   1_556 S
C986   C274    1.417   1_556 S
C987   C991    1.412   .     A
C987   C994    1.411   .     A
C988   C992    1.402   .     A
C989   C990    1.390   .     A
C989   C250    1.423   1_556 S
C989   C270    1.402   1_556 S
C990   C991    1.385   .     A
C990   H1018   1.083   .     S
C991   H1023   1.079   .     S
C992   C1009   1.396   .     A
C992   O1056   1.386   .     S
C993   C1009   1.397   .     A
C993   H1013   1.081   .     S
C993   C1008   1.390   .     A
C994   C996    1.462   .     S
C994   C1010   1.403   .     A
C995   C1001   1.391   .     A
C995   H1024   1.085   .     S
C995   C1243   1.379   .     S
C996   O1030   1.292   .     A
C996   O1029   1.292   .     A
C997   C998    1.421   .     A
C997   C1037   1.484   .     S
C998   C1006   1.448   .     S
C998   C999    1.416   .     A
C999   C1041   1.484   .     S
C1000  H1014   1.084   .     S
C1000  C1001   1.390   .     A
C1000  C1245   1.375   .     S
C1002  N1026   1.370   .     A
C1002  O1045   1.392   .     S
C1002  C1085   1.432   .     S
C1003  H1015   1.081   .     S
C1003  N1025   1.366   .     A
C1003  C1166   1.432   1_455 S
C1004  N1025   1.364   .     A
C1004  H1016   1.082   .     S
C1004  C1169   1.413   1_455 S
C1005  H1017   1.082   .     S
C1005  N1026   1.366   .     A
C1005  C1086   1.413   .     S
C1006  O1032   1.287   .     A
C1006  O1031   1.292   .     A
C1007  O1034   1.288   .     A
C1007  C1009   1.448   .     S
C1007  O1033   1.290   .     A
C1010  C1011   1.390   .     A
C1010  H1020   1.083   .     S
C1011  C274    1.393   1_556 S
C1011  H284    1.083   1_556 S
C1012  H1021   1.079   .     S
H1019  C270    1.084   1_556 S
N1025  Zn1035  2.007   .     S
N1026  Zn1036  2.007   .     S
O1027  Zn1035  1.987   .     S
O1028  Zn1036  1.994   .     S
O1029  Zn1035  1.961   .     S
O1030  Zn1036  1.908   .     S
O1031  Zn1035  1.994   .     S
O1032  Zn1036  1.987   .     S
O1033  Zn1035  1.908   .     S
O1034  Zn1036  1.961   .     S
C1037  O1038   1.219   .     D
C1037  O1039   1.398   .     S
O1039  H1040   1.013   .     S
C1041  O1043   1.396   .     S
C1041  O1042   1.224   .     D
O1043  H1044   1.010   .     S
O1045  C1046   1.416   .     S
C1046  C1049   1.531   .     S
C1046  H1129   1.113   .     S
C1046  H1130   1.112   .     S
H1047  C1210   1.113   1_455 S
H1048  C1210   1.112   1_455 S
C1049  H1051   1.110   .     S
C1049  C1052   1.526   .     S
C1049  H1050   1.111   .     S
C1052  H1135   1.111   .     S
H1053  C1216   1.111   1_455 S
H1054  C1298   1.111   .     S
H1055  C1298   1.111   .     S
O1056  C1057   1.417   .     S
C1057  H1059   1.119   .     S
C1057  H1058   1.111   .     S
C1057  C1060   1.531   .     S
C1060  C1063   1.526   .     S
C1060  H1062   1.110   .     S
C1060  H1061   1.111   .     S
C1063  H1065   1.111   .     S
C1063  H1066   1.111   .     S
C1063  H1064   1.111   .     S
C1067  O1109   1.282   .     A
C1067  O1110   1.284   .     A
C1067  C1083   1.425   .     S
C1068  C1069   1.406   .     A
C1068  C332    1.417   1_556 S
C1068  C356    1.417   1_556 S
C1069  C1073   1.412   .     A
C1069  C1076   1.411   .     A
C1070  C1074   1.402   .     A
C1071  C1072   1.390   .     A
C1071  C332    1.423   1_556 S
C1071  C352    1.402   1_556 S
C1072  C1073   1.385   .     A
C1072  H1100   1.083   .     S
C1073  H1105   1.079   .     S
C1074  C1091   1.396   .     A
C1074  O1138   1.386   .     S
C1075  C1091   1.397   .     A
C1075  H1095   1.081   .     S
C1075  C1090   1.390   .     A
C1076  C1078   1.462   .     S
C1076  C1092   1.403   .     A
C1077  C1083   1.391   .     A
C1077  H1106   1.085   .     S
C1077  C1325   1.379   .     S
C1078  O1112   1.292   .     A
C1078  O1111   1.292   .     A
C1079  C1080   1.421   .     A
C1079  C1119   1.484   .     S
C1080  C1088   1.448   .     S
C1080  C1081   1.416   .     A
C1081  C1123   1.484   .     S
C1082  H1096   1.084   .     S
C1082  C1083   1.390   .     A
C1082  C1327   1.375   .     S
C1084  N1108   1.370   .     A
C1084  O1127   1.392   .     S
C1084  C1167   1.432   .     S
C1085  H1097   1.081   .     S
C1085  N1107   1.366   .     A
C1086  N1107   1.364   .     A
C1086  H1098   1.082   .     S
C1087  H1099   1.082   .     S
C1087  N1108   1.366   .     A
C1087  C1168   1.413   .     S
C1088  O1114   1.287   .     A
C1088  O1113   1.292   .     A
C1089  O1116   1.288   .     A
C1089  C1091   1.448   .     S
C1089  O1115   1.290   .     A
C1092  C1093   1.390   .     A
C1092  H1102   1.083   .     S
C1093  C356    1.393   1_556 S
C1093  H366    1.083   1_556 S
C1094  H1103   1.079   .     S
H1101  C352    1.084   1_556 S
N1107  Zn1117  2.007   .     S
N1108  Zn1118  2.007   .     S
O1109  Zn1117  1.987   .     S
O1110  Zn1118  1.994   .     S
O1111  Zn1117  1.961   .     S
O1112  Zn1118  1.908   .     S
O1113  Zn1117  1.994   .     S
O1114  Zn1118  1.987   .     S
O1115  Zn1117  1.908   .     S
O1116  Zn1118  1.961   .     S
C1119  O1120   1.219   .     D
C1119  O1121   1.398   .     S
O1121  H1122   1.013   .     S
C1123  O1125   1.396   .     S
C1123  O1124   1.224   .     D
O1125  H1126   1.010   .     S
O1127  C1128   1.416   .     S
C1128  C1131   1.531   .     S
C1128  H1211   1.113   .     S
C1128  H1212   1.112   .     S
C1131  H1133   1.110   .     S
C1131  C1134   1.526   .     S
C1131  H1132   1.111   .     S
C1134  H1217   1.111   .     S
H1136  C1380   1.111   .     S
H1137  C1380   1.111   .     S
O1138  C1139   1.417   .     S
C1139  H1141   1.119   .     S
C1139  H1140   1.111   .     S
C1139  C1142   1.531   .     S
C1142  C1145   1.526   .     S
C1142  H1144   1.110   .     S
C1142  H1143   1.111   .     S
C1145  H1147   1.111   .     S
C1145  H1148   1.111   .     S
C1145  H1146   1.111   .     S
C1149  O1191   1.282   .     A
C1149  O1192   1.284   .     A
C1149  C1165   1.425   .     S
C1150  C1151   1.406   .     A
C1150  C414    1.417   1_556 S
C1150  C438    1.417   1_556 S
C1151  C1155   1.412   .     A
C1151  C1158   1.411   .     A
C1152  C1156   1.402   .     A
C1153  C1154   1.390   .     A
C1153  C414    1.423   1_556 S
C1153  C434    1.402   1_556 S
C1154  C1155   1.385   .     A
C1154  H1182   1.083   .     S
C1155  H1187   1.079   .     S
C1156  C1173   1.396   .     A
C1156  O1220   1.386   .     S
C1157  C1173   1.397   .     A
C1157  H1177   1.081   .     S
C1157  C1172   1.390   .     A
C1158  C1160   1.462   .     S
C1158  C1174   1.403   .     A
C1159  C1165   1.391   .     A
C1159  H1188   1.085   .     S
C1159  C1407   1.379   .     S
C1160  O1194   1.292   .     A
C1160  O1193   1.292   .     A
C1161  C1162   1.421   .     A
C1161  C1201   1.484   .     S
C1162  C1170   1.448   .     S
C1162  C1163   1.416   .     A
C1163  C1205   1.484   .     S
C1164  H1178   1.084   .     S
C1164  C1165   1.390   .     A
C1164  C1409   1.375   .     S
C1166  N1190   1.370   .     A
C1166  O1209   1.392   .     S
C1166  C1003   1.432   1_655 S
C1167  H1179   1.081   .     S
C1167  N1189   1.366   .     A
C1168  N1189   1.364   .     A
C1168  H1180   1.082   .     S
C1169  H1181   1.082   .     S
C1169  N1190   1.366   .     A
C1169  C1004   1.413   1_655 S
C1170  O1196   1.287   .     A
C1170  O1195   1.292   .     A
C1171  O1198   1.288   .     A
C1171  C1173   1.448   .     S
C1171  O1197   1.290   .     A
C1174  C1175   1.390   .     A
C1174  H1184   1.083   .     S
C1175  C438    1.393   1_556 S
C1175  H448    1.083   1_556 S
C1176  H1185   1.079   .     S
H1183  C434    1.084   1_556 S
N1189  Zn1199  2.007   .     S
N1190  Zn1200  2.007   .     S
O1191  Zn1199  1.987   .     S
O1192  Zn1200  1.994   .     S
O1193  Zn1199  1.961   .     S
O1194  Zn1200  1.908   .     S
O1195  Zn1199  1.994   .     S
O1196  Zn1200  1.987   .     S
O1197  Zn1199  1.908   .     S
O1198  Zn1200  1.961   .     S
C1201  O1202   1.219   .     D
C1201  O1203   1.398   .     S
O1203  H1204   1.013   .     S
C1205  O1207   1.396   .     S
C1205  O1206   1.224   .     D
O1207  H1208   1.010   .     S
O1209  C1210   1.416   .     S
C1210  C1213   1.531   .     S
C1210  H1047   1.113   1_655 S
C1210  H1048   1.112   1_655 S
C1213  H1215   1.110   .     S
C1213  C1216   1.526   .     S
C1213  H1214   1.111   .     S
C1216  H1053   1.111   1_655 S
H1218  C1462   1.111   .     S
H1219  C1462   1.111   .     S
O1220  C1221   1.417   .     S
C1221  H1223   1.119   .     S
C1221  H1222   1.111   .     S
C1221  C1224   1.531   .     S
C1224  C1227   1.526   .     S
C1224  H1226   1.110   .     S
C1224  H1225   1.111   .     S
C1227  H1229   1.111   .     S
C1227  H1230   1.111   .     S
C1227  H1228   1.111   .     S
C1231  O1273   1.282   .     A
C1231  O1274   1.284   .     A
C1231  C1247   1.425   .     S
C1232  C1233   1.406   .     A
C1232  C496    1.417   1_556 S
C1232  C520    1.417   1_556 S
C1233  C1237   1.412   .     A
C1233  C1240   1.411   .     A
C1234  C1238   1.402   .     A
C1235  C1236   1.390   .     A
C1235  C496    1.423   1_556 S
C1235  C516    1.402   1_556 S
C1236  C1237   1.385   .     A
C1236  H1264   1.083   .     S
C1237  H1269   1.079   .     S
C1238  C1255   1.396   .     A
C1238  O1302   1.386   .     S
C1239  C1255   1.397   .     A
C1239  H1259   1.081   .     S
C1239  C1254   1.390   .     A
C1240  C1242   1.462   .     S
C1240  C1256   1.403   .     A
C1241  C1247   1.391   .     A
C1241  H1270   1.085   .     S
C1241  C751    1.379   1_565 S
C1242  O1276   1.292   .     A
C1242  O1275   1.292   .     A
C1243  C1244   1.421   .     A
C1243  C1283   1.484   .     S
C1244  C1252   1.448   .     S
C1244  C1245   1.416   .     A
C1245  C1287   1.484   .     S
C1246  H1260   1.084   .     S
C1246  C1247   1.390   .     A
C1246  C753    1.375   1_565 S
C1248  N1272   1.370   .     A
C1248  O1291   1.392   .     S
C1248  C1331   1.432   .     S
C1249  H1261   1.081   .     S
C1249  N1271   1.366   .     A
C1249  C1412   1.432   1_455 S
C1250  N1271   1.364   .     A
C1250  H1262   1.082   .     S
C1250  C1415   1.413   1_455 S
C1251  H1263   1.082   .     S
C1251  N1272   1.366   .     A
C1251  C1332   1.413   .     S
C1252  O1278   1.287   .     A
C1252  O1277   1.292   .     A
C1253  O1280   1.288   .     A
C1253  C1255   1.448   .     S
C1253  O1279   1.290   .     A
C1256  C1257   1.390   .     A
C1256  H1266   1.083   .     S
C1257  C520    1.393   1_556 S
C1257  H530    1.083   1_556 S
C1258  H1267   1.079   .     S
H1265  C516    1.084   1_556 S
N1271  Zn1281  2.007   .     S
N1272  Zn1282  2.007   .     S
O1273  Zn1281  1.987   .     S
O1274  Zn1282  1.994   .     S
O1275  Zn1281  1.961   .     S
O1276  Zn1282  1.908   .     S
O1277  Zn1281  1.994   .     S
O1278  Zn1282  1.987   .     S
O1279  Zn1281  1.908   .     S
O1280  Zn1282  1.961   .     S
C1283  O1284   1.219   .     D
C1283  O1285   1.398   .     S
O1285  H1286   1.013   .     S
C1287  O1289   1.396   .     S
C1287  O1288   1.224   .     D
O1289  H1290   1.010   .     S
O1291  C1292   1.416   .     S
C1292  C1295   1.531   .     S
C1292  H1375   1.113   .     S
C1292  H1376   1.112   .     S
H1293  C1456   1.113   1_455 S
H1294  C1456   1.112   1_455 S
C1295  H1297   1.110   .     S
C1295  C1298   1.526   .     S
C1295  H1296   1.111   .     S
C1298  H1381   1.111   .     S
H1299  C1462   1.111   1_455 S
H1300  C806    1.111   1_565 S
H1301  C806    1.111   1_565 S
O1302  C1303   1.417   .     S
C1303  H1305   1.119   .     S
C1303  H1304   1.111   .     S
C1303  C1306   1.531   .     S
C1306  C1309   1.526   .     S
C1306  H1308   1.110   .     S
C1306  H1307   1.111   .     S
C1309  H1311   1.111   .     S
C1309  H1312   1.111   .     S
C1309  H1310   1.111   .     S
C1313  O1355   1.282   .     A
C1313  O1356   1.284   .     A
C1313  C1329   1.425   .     S
C1314  C1315   1.406   .     A
C1314  C578    1.417   1_556 S
C1314  C602    1.417   1_556 S
C1315  C1319   1.412   .     A
C1315  C1322   1.411   .     A
C1316  C1320   1.402   .     A
C1317  C1318   1.390   .     A
C1317  C578    1.423   1_556 S
C1317  C598    1.402   1_556 S
C1318  C1319   1.385   .     A
C1318  H1346   1.083   .     S
C1319  H1351   1.079   .     S
C1320  C1337   1.396   .     A
C1320  O1384   1.386   .     S
C1321  C1337   1.397   .     A
C1321  H1341   1.081   .     S
C1321  C1336   1.390   .     A
C1322  C1324   1.462   .     S
C1322  C1338   1.403   .     A
C1323  C1329   1.391   .     A
C1323  H1352   1.085   .     S
C1323  C833    1.379   1_565 S
C1324  O1358   1.292   .     A
C1324  O1357   1.292   .     A
C1325  C1326   1.421   .     A
C1325  C1365   1.484   .     S
C1326  C1334   1.448   .     S
C1326  C1327   1.416   .     A
C1327  C1369   1.484   .     S
C1328  H1342   1.084   .     S
C1328  C1329   1.390   .     A
C1328  C835    1.375   1_565 S
C1330  N1354   1.370   .     A
C1330  O1373   1.392   .     S
C1330  C1413   1.432   .     S
C1331  H1343   1.081   .     S
C1331  N1353   1.366   .     A
C1332  N1353   1.364   .     A
C1332  H1344   1.082   .     S
C1333  H1345   1.082   .     S
C1333  N1354   1.366   .     A
C1333  C1414   1.413   .     S
C1334  O1360   1.287   .     A
C1334  O1359   1.292   .     A
C1335  O1362   1.288   .     A
C1335  C1337   1.448   .     S
C1335  O1361   1.290   .     A
C1338  C1339   1.390   .     A
C1338  H1348   1.083   .     S
C1339  C602    1.393   1_556 S
C1339  H612    1.083   1_556 S
C1340  H1349   1.079   .     S
H1347  C598    1.084   1_556 S
N1353  Zn1363  2.007   .     S
N1354  Zn1364  2.007   .     S
O1355  Zn1363  1.987   .     S
O1356  Zn1364  1.994   .     S
O1357  Zn1363  1.961   .     S
O1358  Zn1364  1.908   .     S
O1359  Zn1363  1.994   .     S
O1360  Zn1364  1.987   .     S
O1361  Zn1363  1.908   .     S
O1362  Zn1364  1.961   .     S
C1365  O1366   1.219   .     D
C1365  O1367   1.398   .     S
O1367  H1368   1.013   .     S
C1369  O1371   1.396   .     S
C1369  O1370   1.224   .     D
O1371  H1372   1.010   .     S
O1373  C1374   1.416   .     S
C1374  C1377   1.531   .     S
C1374  H1457   1.113   .     S
C1374  H1458   1.112   .     S
C1377  H1379   1.110   .     S
C1377  C1380   1.526   .     S
C1377  H1378   1.111   .     S
C1380  H1463   1.111   .     S
H1382  C888    1.111   1_565 S
H1383  C888    1.111   1_565 S
O1384  C1385   1.417   .     S
C1385  H1387   1.119   .     S
C1385  H1386   1.111   .     S
C1385  C1388   1.531   .     S
C1388  C1391   1.526   .     S
C1388  H1390   1.110   .     S
C1388  H1389   1.111   .     S
C1391  H1393   1.111   .     S
C1391  H1394   1.111   .     S
C1391  H1392   1.111   .     S
C1395  O1437   1.282   .     A
C1395  O1438   1.284   .     A
C1395  C1411   1.425   .     S
C1396  C1397   1.406   .     A
C1396  C660    1.417   1_556 S
C1396  C684    1.417   1_556 S
C1397  C1401   1.412   .     A
C1397  C1404   1.411   .     A
C1398  C1402   1.402   .     A
C1399  C1400   1.390   .     A
C1399  C660    1.423   1_556 S
C1399  C680    1.402   1_556 S
C1400  C1401   1.385   .     A
C1400  H1428   1.083   .     S
C1401  H1433   1.079   .     S
C1402  C1419   1.396   .     A
C1402  O1466   1.386   .     S
C1403  C1419   1.397   .     A
C1403  H1423   1.081   .     S
C1403  C1418   1.390   .     A
C1404  C1406   1.462   .     S
C1404  C1420   1.403   .     A
C1405  C1411   1.391   .     A
C1405  H1434   1.085   .     S
C1405  C915    1.379   1_565 S
C1406  O1440   1.292   .     A
C1406  O1439   1.292   .     A
C1407  C1408   1.421   .     A
C1407  C1447   1.484   .     S
C1408  C1416   1.448   .     S
C1408  C1409   1.416   .     A
C1409  C1451   1.484   .     S
C1410  H1424   1.084   .     S
C1410  C1411   1.390   .     A
C1410  C917    1.375   1_565 S
C1412  N1436   1.370   .     A
C1412  O1455   1.392   .     S
C1412  C1249   1.432   1_655 S
C1413  H1425   1.081   .     S
C1413  N1435   1.366   .     A
C1414  N1435   1.364   .     A
C1414  H1426   1.082   .     S
C1415  H1427   1.082   .     S
C1415  N1436   1.366   .     A
C1415  C1250   1.413   1_655 S
C1416  O1442   1.287   .     A
C1416  O1441   1.292   .     A
C1417  O1444   1.288   .     A
C1417  C1419   1.448   .     S
C1417  O1443   1.290   .     A
C1420  C1421   1.390   .     A
C1420  H1430   1.083   .     S
C1421  C684    1.393   1_556 S
C1421  H694    1.083   1_556 S
C1422  H1431   1.079   .     S
H1429  C680    1.084   1_556 S
N1435  Zn1445  2.007   .     S
N1436  Zn1446  2.007   .     S
O1437  Zn1445  1.987   .     S
O1438  Zn1446  1.994   .     S
O1439  Zn1445  1.961   .     S
O1440  Zn1446  1.908   .     S
O1441  Zn1445  1.994   .     S
O1442  Zn1446  1.987   .     S
O1443  Zn1445  1.908   .     S
O1444  Zn1446  1.961   .     S
C1447  O1448   1.219   .     D
C1447  O1449   1.398   .     S
O1449  H1450   1.013   .     S
C1451  O1453   1.396   .     S
C1451  O1452   1.224   .     D
O1453  H1454   1.010   .     S
O1455  C1456   1.416   .     S
C1456  C1459   1.531   .     S
C1456  H1293   1.113   1_655 S
C1456  H1294   1.112   1_655 S
C1459  H1461   1.110   .     S
C1459  C1462   1.526   .     S
C1459  H1460   1.111   .     S
C1462  H1299   1.111   1_655 S
H1464  C970    1.111   1_565 S
H1465  C970    1.111   1_565 S
O1466  C1467   1.417   .     S
C1467  H1469   1.119   .     S
C1467  H1468   1.111   .     S
C1467  C1470   1.531   .     S
C1470  C1473   1.526   .     S
C1470  H1472   1.110   .     S
C1470  H1471   1.111   .     S
C1473  H1475   1.111   .     S
C1473  H1476   1.111   .     S
C1473  H1474   1.111   .     S
