data_str_m3_o1_o10_pcu_sym.164
_audit_creation_date              2020-01-03
_audit_creation_method            'Materials Studio'
_symmetry_space_group_name_H-M    'P1'
_symmetry_Int_Tables_number       1
_symmetry_cell_setting            triclinic
loop_
_symmetry_equiv_pos_as_xyz
  x,y,z
_cell_length_a                    25.7791
_cell_length_b                    32.1712
_cell_length_c                    29.6972
_cell_angle_alpha                 90.5153
_cell_angle_beta                  99.1123
_cell_angle_gamma                 91.1298
loop_
_atom_site_label
_atom_site_type_symbol
_atom_site_fract_x
_atom_site_fract_y
_atom_site_fract_z
_atom_site_U_iso_or_equiv
_atom_site_adp_type
_atom_site_occupancy
C1     C     0.16664   0.08668   0.16653   0.00000  Uiso   1.00
C2     C     0.16670   0.24666   0.16680   0.00000  Uiso   1.00
C3     C     0.06705   0.16660   0.15463   0.00000  Uiso   1.00
C4     C     0.26629   0.16673   0.17870   0.00000  Uiso   1.00
C5     C     0.01187   0.16662   0.14827   0.00000  Uiso   1.00
C6     C     0.32147   0.16672   0.18507   0.00000  Uiso   1.00
C7     C     0.16222   0.02085   0.12509   0.00000  Uiso   1.00
C8     C     0.17111   0.31248   0.20824   0.00000  Uiso   1.00
C9     C     0.16218   0.31161   0.12523   0.00000  Uiso   1.00
C10    C     0.17115   0.02172   0.20810   0.00000  Uiso   1.00
C11    C     0.16664   0.29084   0.16681   0.00000  Uiso   1.00
C12    C     0.16670   0.04249   0.16652   0.00000  Uiso   1.00
C13    C     0.19757   0.19408   0.02900   0.00000  Uiso   1.00
C14    C     0.13577   0.13925   0.30433   0.00000  Uiso   1.00
C15    C     0.19802   0.19440   0.31453   0.00000  Uiso   1.00
C16    C     0.13531   0.13894   0.01880   0.00000  Uiso   1.00
H17    H     0.32428   0.16657   0.11344   0.00000  Uiso   1.00
H18    H     0.00905   0.16676   0.21989   0.00000  Uiso   1.00
H19    H     0.15862   0.03664   0.09271   0.00000  Uiso   1.00
H20    H     0.17471   0.29670   0.24062   0.00000  Uiso   1.00
H21    H     0.15855   0.29513   0.09287   0.00000  Uiso   1.00
H22    H     0.17479   0.03820   0.24047   0.00000  Uiso   1.00
H23    H     0.22219   0.21562   0.05157   0.00000  Uiso   1.00
H24    H     0.11114   0.11771   0.28176   0.00000  Uiso   1.00
N25    N     0.16665   0.16666   0.28573   0.00000  Uiso   1.00
N26    N     0.16668   0.16668   0.04760   0.00000  Uiso   1.00
O27    O     0.16666   0.10558   0.20487   0.00000  Uiso   1.00
O28    O     0.16667   0.22775   0.12846   0.00000  Uiso   1.00
O29    O     0.16666   0.10559   0.12843   0.00000  Uiso   1.00
O30    O     0.16667   0.22774   0.20490   0.00000  Uiso   1.00
O31    O     0.09058   0.16666   0.19595   0.00000  Uiso   1.00
O32    O     0.24275   0.16667   0.13739   0.00000  Uiso   1.00
O33    O     0.09058   0.16667   0.11950   0.00000  Uiso   1.00
O34    O     0.24275   0.16666   0.21383   0.00000  Uiso   1.00
Zn35   Zn    0.16667   0.16666   0.21771   0.00000  Uiso   1.00
Zn36   Zn    0.16667   0.16667   0.11563   0.00000  Uiso   1.00
C37    C     0.23334   0.22501   0.29696   0.00000  Uiso   1.00
H38    H     0.24065   0.22376   0.26243   0.00000  Uiso   1.00
O39    O     0.25567   0.25265   0.32162   0.00000  Uiso   1.00
C40    C     0.09998   0.10833   0.03637   0.00000  Uiso   1.00
H41    H     0.09269   0.10957   0.07090   0.00000  Uiso   1.00
O42    O     0.07762   0.08072   0.01171   0.00000  Uiso   1.00
C43    C     0.49997   0.08668   0.16653   0.00000  Uiso   1.00
C44    C     0.50003   0.24666   0.16680   0.00000  Uiso   1.00
C45    C     0.40038   0.16660   0.15463   0.00000  Uiso   1.00
C46    C     0.59962   0.16673   0.17870   0.00000  Uiso   1.00
C47    C     0.34520   0.16662   0.14827   0.00000  Uiso   1.00
C48    C     0.65480   0.16672   0.18507   0.00000  Uiso   1.00
C49    C     0.49556   0.02085   0.12509   0.00000  Uiso   1.00
C50    C     0.50444   0.31248   0.20824   0.00000  Uiso   1.00
C51    C     0.49552   0.31161   0.12523   0.00000  Uiso   1.00
C52    C     0.50449   0.02172   0.20810   0.00000  Uiso   1.00
C53    C     0.49997   0.29084   0.16681   0.00000  Uiso   1.00
C54    C     0.50003   0.04249   0.16652   0.00000  Uiso   1.00
C55    C     0.53090   0.19408   0.02900   0.00000  Uiso   1.00
C56    C     0.46910   0.13925   0.30433   0.00000  Uiso   1.00
C57    C     0.53136   0.19440   0.31453   0.00000  Uiso   1.00
C58    C     0.46864   0.13894   0.01880   0.00000  Uiso   1.00
H59    H     0.65762   0.16657   0.11344   0.00000  Uiso   1.00
H60    H     0.34238   0.16676   0.21989   0.00000  Uiso   1.00
H61    H     0.49196   0.03664   0.09271   0.00000  Uiso   1.00
H62    H     0.50805   0.29670   0.24062   0.00000  Uiso   1.00
H63    H     0.49188   0.29513   0.09287   0.00000  Uiso   1.00
H64    H     0.50812   0.03820   0.24047   0.00000  Uiso   1.00
H65    H     0.55552   0.21562   0.05157   0.00000  Uiso   1.00
H66    H     0.44448   0.11771   0.28176   0.00000  Uiso   1.00
N67    N     0.49999   0.16666   0.28573   0.00000  Uiso   1.00
N68    N     0.50001   0.16668   0.04760   0.00000  Uiso   1.00
O69    O     0.50000   0.10558   0.20487   0.00000  Uiso   1.00
O70    O     0.50000   0.22775   0.12846   0.00000  Uiso   1.00
O71    O     0.50000   0.10559   0.12843   0.00000  Uiso   1.00
O72    O     0.50000   0.22774   0.20490   0.00000  Uiso   1.00
O73    O     0.42392   0.16666   0.19595   0.00000  Uiso   1.00
O74    O     0.57608   0.16667   0.13739   0.00000  Uiso   1.00
O75    O     0.42392   0.16667   0.11950   0.00000  Uiso   1.00
O76    O     0.57608   0.16666   0.21383   0.00000  Uiso   1.00
Zn77   Zn    0.50000   0.16666   0.21771   0.00000  Uiso   1.00
Zn78   Zn    0.50000   0.16667   0.11563   0.00000  Uiso   1.00
C79    C     0.56667   0.22501   0.29696   0.00000  Uiso   1.00
H80    H     0.57398   0.22376   0.26243   0.00000  Uiso   1.00
O81    O     0.58901   0.25265   0.32162   0.00000  Uiso   1.00
C82    C     0.43331   0.10833   0.03637   0.00000  Uiso   1.00
H83    H     0.42602   0.10957   0.07090   0.00000  Uiso   1.00
O84    O     0.41096   0.08072   0.01171   0.00000  Uiso   1.00
C85    C     0.83330   0.08668   0.16653   0.00000  Uiso   1.00
C86    C     0.83336   0.24666   0.16680   0.00000  Uiso   1.00
C87    C     0.73371   0.16660   0.15463   0.00000  Uiso   1.00
C88    C     0.93295   0.16673   0.17870   0.00000  Uiso   1.00
C89    C     0.67853   0.16662   0.14827   0.00000  Uiso   1.00
C90    C     0.98813   0.16672   0.18507   0.00000  Uiso   1.00
C91    C     0.82889   0.02085   0.12509   0.00000  Uiso   1.00
C92    C     0.83778   0.31248   0.20824   0.00000  Uiso   1.00
C93    C     0.82885   0.31161   0.12523   0.00000  Uiso   1.00
C94    C     0.83782   0.02172   0.20810   0.00000  Uiso   1.00
C95    C     0.83330   0.29084   0.16681   0.00000  Uiso   1.00
C96    C     0.83337   0.04249   0.16652   0.00000  Uiso   1.00
C97    C     0.86423   0.19408   0.02900   0.00000  Uiso   1.00
C98    C     0.80243   0.13925   0.30433   0.00000  Uiso   1.00
C99    C     0.86469   0.19440   0.31453   0.00000  Uiso   1.00
C100   C     0.80197   0.13894   0.01880   0.00000  Uiso   1.00
H101   H     0.99095   0.16657   0.11344   0.00000  Uiso   1.00
H102   H     0.67572   0.16676   0.21989   0.00000  Uiso   1.00
H103   H     0.82529   0.03664   0.09271   0.00000  Uiso   1.00
H104   H     0.84138   0.29670   0.24062   0.00000  Uiso   1.00
H105   H     0.82521   0.29513   0.09287   0.00000  Uiso   1.00
H106   H     0.84146   0.03820   0.24047   0.00000  Uiso   1.00
H107   H     0.88885   0.21562   0.05157   0.00000  Uiso   1.00
H108   H     0.77781   0.11771   0.28176   0.00000  Uiso   1.00
N109   N     0.83332   0.16666   0.28573   0.00000  Uiso   1.00
N110   N     0.83335   0.16668   0.04760   0.00000  Uiso   1.00
O111   O     0.83333   0.10558   0.20487   0.00000  Uiso   1.00
O112   O     0.83334   0.22775   0.12846   0.00000  Uiso   1.00
O113   O     0.83333   0.10559   0.12843   0.00000  Uiso   1.00
O114   O     0.83334   0.22774   0.20490   0.00000  Uiso   1.00
O115   O     0.75725   0.16666   0.19595   0.00000  Uiso   1.00
O116   O     0.90942   0.16667   0.13739   0.00000  Uiso   1.00
O117   O     0.75725   0.16667   0.11950   0.00000  Uiso   1.00
O118   O     0.90942   0.16666   0.21383   0.00000  Uiso   1.00
Zn119  Zn    0.83333   0.16666   0.21771   0.00000  Uiso   1.00
Zn120  Zn    0.83333   0.16667   0.11563   0.00000  Uiso   1.00
C121   C     0.90001   0.22501   0.29696   0.00000  Uiso   1.00
H122   H     0.90731   0.22376   0.26243   0.00000  Uiso   1.00
O123   O     0.92234   0.25265   0.32162   0.00000  Uiso   1.00
C124   C     0.76665   0.10833   0.03637   0.00000  Uiso   1.00
H125   H     0.75936   0.10957   0.07090   0.00000  Uiso   1.00
O126   O     0.74429   0.08072   0.01171   0.00000  Uiso   1.00
C127   C     0.16664   0.42001   0.16653   0.00000  Uiso   1.00
C128   C     0.16670   0.57999   0.16680   0.00000  Uiso   1.00
C129   C     0.06705   0.49993   0.15463   0.00000  Uiso   1.00
C130   C     0.26629   0.50006   0.17870   0.00000  Uiso   1.00
C131   C     0.01187   0.49995   0.14827   0.00000  Uiso   1.00
C132   C     0.32147   0.50005   0.18507   0.00000  Uiso   1.00
C133   C     0.16222   0.35418   0.12509   0.00000  Uiso   1.00
C134   C     0.17111   0.64582   0.20824   0.00000  Uiso   1.00
C135   C     0.16218   0.64494   0.12523   0.00000  Uiso   1.00
C136   C     0.17115   0.35506   0.20810   0.00000  Uiso   1.00
C137   C     0.16664   0.62417   0.16681   0.00000  Uiso   1.00
C138   C     0.16670   0.37583   0.16652   0.00000  Uiso   1.00
C139   C     0.19757   0.52742   0.02900   0.00000  Uiso   1.00
C140   C     0.13577   0.47258   0.30433   0.00000  Uiso   1.00
C141   C     0.19802   0.52773   0.31453   0.00000  Uiso   1.00
C142   C     0.13531   0.47227   0.01880   0.00000  Uiso   1.00
H143   H     0.32428   0.49990   0.11344   0.00000  Uiso   1.00
H144   H     0.00905   0.50010   0.21989   0.00000  Uiso   1.00
H145   H     0.15862   0.36997   0.09271   0.00000  Uiso   1.00
H146   H     0.17471   0.63003   0.24062   0.00000  Uiso   1.00
H147   H     0.15855   0.62846   0.09287   0.00000  Uiso   1.00
H148   H     0.17479   0.37154   0.24047   0.00000  Uiso   1.00
H149   H     0.22219   0.54895   0.05157   0.00000  Uiso   1.00
H150   H     0.11114   0.45105   0.28176   0.00000  Uiso   1.00
N151   N     0.16665   0.49999   0.28573   0.00000  Uiso   1.00
N152   N     0.16668   0.50001   0.04760   0.00000  Uiso   1.00
O153   O     0.16666   0.43892   0.20487   0.00000  Uiso   1.00
O154   O     0.16667   0.56108   0.12846   0.00000  Uiso   1.00
O155   O     0.16666   0.43893   0.12843   0.00000  Uiso   1.00
O156   O     0.16667   0.56107   0.20490   0.00000  Uiso   1.00
O157   O     0.09058   0.50000   0.19595   0.00000  Uiso   1.00
O158   O     0.24275   0.50000   0.13739   0.00000  Uiso   1.00
O159   O     0.09058   0.50000   0.11950   0.00000  Uiso   1.00
O160   O     0.24275   0.50000   0.21383   0.00000  Uiso   1.00
Zn161  Zn    0.16667   0.49999   0.21771   0.00000  Uiso   1.00
Zn162  Zn    0.16667   0.50001   0.11563   0.00000  Uiso   1.00
C163   C     0.23334   0.55835   0.29696   0.00000  Uiso   1.00
H164   H     0.24065   0.55709   0.26243   0.00000  Uiso   1.00
O165   O     0.25567   0.58598   0.32162   0.00000  Uiso   1.00
C166   C     0.09998   0.44166   0.03637   0.00000  Uiso   1.00
H167   H     0.09269   0.44290   0.07090   0.00000  Uiso   1.00
O168   O     0.07762   0.41405   0.01171   0.00000  Uiso   1.00
C169   C     0.49997   0.42001   0.16653   0.00000  Uiso   1.00
C170   C     0.50003   0.57999   0.16680   0.00000  Uiso   1.00
C171   C     0.40038   0.49993   0.15463   0.00000  Uiso   1.00
C172   C     0.59962   0.50006   0.17870   0.00000  Uiso   1.00
C173   C     0.34520   0.49995   0.14827   0.00000  Uiso   1.00
C174   C     0.65480   0.50005   0.18507   0.00000  Uiso   1.00
C175   C     0.49556   0.35418   0.12509   0.00000  Uiso   1.00
C176   C     0.50444   0.64582   0.20824   0.00000  Uiso   1.00
C177   C     0.49552   0.64494   0.12523   0.00000  Uiso   1.00
C178   C     0.50449   0.35506   0.20810   0.00000  Uiso   1.00
C179   C     0.49997   0.62417   0.16681   0.00000  Uiso   1.00
C180   C     0.50003   0.37583   0.16652   0.00000  Uiso   1.00
C181   C     0.53090   0.52742   0.02900   0.00000  Uiso   1.00
C182   C     0.46910   0.47258   0.30433   0.00000  Uiso   1.00
C183   C     0.53136   0.52773   0.31453   0.00000  Uiso   1.00
C184   C     0.46864   0.47227   0.01880   0.00000  Uiso   1.00
H185   H     0.65762   0.49990   0.11344   0.00000  Uiso   1.00
H186   H     0.34238   0.50010   0.21989   0.00000  Uiso   1.00
H187   H     0.49196   0.36997   0.09271   0.00000  Uiso   1.00
H188   H     0.50805   0.63003   0.24062   0.00000  Uiso   1.00
H189   H     0.49188   0.62846   0.09287   0.00000  Uiso   1.00
H190   H     0.50812   0.37154   0.24047   0.00000  Uiso   1.00
H191   H     0.55552   0.54895   0.05157   0.00000  Uiso   1.00
H192   H     0.44448   0.45105   0.28176   0.00000  Uiso   1.00
N193   N     0.49999   0.49999   0.28573   0.00000  Uiso   1.00
N194   N     0.50001   0.50001   0.04760   0.00000  Uiso   1.00
O195   O     0.50000   0.43892   0.20487   0.00000  Uiso   1.00
O196   O     0.50000   0.56108   0.12846   0.00000  Uiso   1.00
O197   O     0.50000   0.43893   0.12843   0.00000  Uiso   1.00
O198   O     0.50000   0.56107   0.20490   0.00000  Uiso   1.00
O199   O     0.42392   0.50000   0.19595   0.00000  Uiso   1.00
O200   O     0.57608   0.50000   0.13739   0.00000  Uiso   1.00
O201   O     0.42392   0.50000   0.11950   0.00000  Uiso   1.00
O202   O     0.57608   0.50000   0.21383   0.00000  Uiso   1.00
Zn203  Zn    0.50000   0.49999   0.21771   0.00000  Uiso   1.00
Zn204  Zn    0.50000   0.50001   0.11563   0.00000  Uiso   1.00
C205   C     0.56667   0.55835   0.29696   0.00000  Uiso   1.00
H206   H     0.57398   0.55709   0.26243   0.00000  Uiso   1.00
O207   O     0.58901   0.58598   0.32162   0.00000  Uiso   1.00
C208   C     0.43331   0.44166   0.03637   0.00000  Uiso   1.00
H209   H     0.42602   0.44290   0.07090   0.00000  Uiso   1.00
O210   O     0.41096   0.41405   0.01171   0.00000  Uiso   1.00
C211   C     0.83330   0.42001   0.16653   0.00000  Uiso   1.00
C212   C     0.83336   0.57999   0.16680   0.00000  Uiso   1.00
C213   C     0.73371   0.49993   0.15463   0.00000  Uiso   1.00
C214   C     0.93295   0.50006   0.17870   0.00000  Uiso   1.00
C215   C     0.67853   0.49995   0.14827   0.00000  Uiso   1.00
C216   C     0.98813   0.50005   0.18507   0.00000  Uiso   1.00
C217   C     0.82889   0.35418   0.12509   0.00000  Uiso   1.00
C218   C     0.83778   0.64582   0.20824   0.00000  Uiso   1.00
C219   C     0.82885   0.64494   0.12523   0.00000  Uiso   1.00
C220   C     0.83782   0.35506   0.20810   0.00000  Uiso   1.00
C221   C     0.83330   0.62417   0.16681   0.00000  Uiso   1.00
C222   C     0.83337   0.37583   0.16652   0.00000  Uiso   1.00
C223   C     0.86423   0.52742   0.02900   0.00000  Uiso   1.00
C224   C     0.80243   0.47258   0.30433   0.00000  Uiso   1.00
C225   C     0.86469   0.52773   0.31453   0.00000  Uiso   1.00
C226   C     0.80197   0.47227   0.01880   0.00000  Uiso   1.00
H227   H     0.99095   0.49990   0.11344   0.00000  Uiso   1.00
H228   H     0.67572   0.50010   0.21989   0.00000  Uiso   1.00
H229   H     0.82529   0.36997   0.09271   0.00000  Uiso   1.00
H230   H     0.84138   0.63003   0.24062   0.00000  Uiso   1.00
H231   H     0.82521   0.62846   0.09287   0.00000  Uiso   1.00
H232   H     0.84146   0.37154   0.24047   0.00000  Uiso   1.00
H233   H     0.88885   0.54895   0.05157   0.00000  Uiso   1.00
H234   H     0.77781   0.45105   0.28176   0.00000  Uiso   1.00
N235   N     0.83332   0.49999   0.28573   0.00000  Uiso   1.00
N236   N     0.83335   0.50001   0.04760   0.00000  Uiso   1.00
O237   O     0.83333   0.43892   0.20487   0.00000  Uiso   1.00
O238   O     0.83334   0.56108   0.12846   0.00000  Uiso   1.00
O239   O     0.83333   0.43893   0.12843   0.00000  Uiso   1.00
O240   O     0.83334   0.56107   0.20490   0.00000  Uiso   1.00
O241   O     0.75725   0.50000   0.19595   0.00000  Uiso   1.00
O242   O     0.90942   0.50000   0.13739   0.00000  Uiso   1.00
O243   O     0.75725   0.50000   0.11950   0.00000  Uiso   1.00
O244   O     0.90942   0.50000   0.21383   0.00000  Uiso   1.00
Zn245  Zn    0.83333   0.49999   0.21771   0.00000  Uiso   1.00
Zn246  Zn    0.83333   0.50001   0.11563   0.00000  Uiso   1.00
C247   C     0.90001   0.55835   0.29696   0.00000  Uiso   1.00
H248   H     0.90731   0.55709   0.26243   0.00000  Uiso   1.00
O249   O     0.92234   0.58598   0.32162   0.00000  Uiso   1.00
C250   C     0.76665   0.44166   0.03637   0.00000  Uiso   1.00
H251   H     0.75936   0.44290   0.07090   0.00000  Uiso   1.00
O252   O     0.74429   0.41405   0.01171   0.00000  Uiso   1.00
C253   C     0.16664   0.75334   0.16653   0.00000  Uiso   1.00
C254   C     0.16670   0.91332   0.16680   0.00000  Uiso   1.00
C255   C     0.06705   0.83327   0.15463   0.00000  Uiso   1.00
C256   C     0.26629   0.83340   0.17870   0.00000  Uiso   1.00
C257   C     0.01187   0.83328   0.14827   0.00000  Uiso   1.00
C258   C     0.32147   0.83338   0.18507   0.00000  Uiso   1.00
C259   C     0.16222   0.68752   0.12509   0.00000  Uiso   1.00
C260   C     0.17111   0.97915   0.20824   0.00000  Uiso   1.00
C261   C     0.16218   0.97828   0.12523   0.00000  Uiso   1.00
C262   C     0.17115   0.68839   0.20810   0.00000  Uiso   1.00
C263   C     0.16664   0.95751   0.16681   0.00000  Uiso   1.00
C264   C     0.16670   0.70916   0.16652   0.00000  Uiso   1.00
C265   C     0.19757   0.86075   0.02900   0.00000  Uiso   1.00
C266   C     0.13577   0.80592   0.30433   0.00000  Uiso   1.00
C267   C     0.19802   0.86106   0.31453   0.00000  Uiso   1.00
C268   C     0.13531   0.80561   0.01880   0.00000  Uiso   1.00
H269   H     0.32428   0.83323   0.11344   0.00000  Uiso   1.00
H270   H     0.00905   0.83343   0.21989   0.00000  Uiso   1.00
H271   H     0.15862   0.70330   0.09271   0.00000  Uiso   1.00
H272   H     0.17471   0.96336   0.24062   0.00000  Uiso   1.00
H273   H     0.15855   0.96180   0.09287   0.00000  Uiso   1.00
H274   H     0.17479   0.70487   0.24047   0.00000  Uiso   1.00
H275   H     0.22219   0.88229   0.05157   0.00000  Uiso   1.00
H276   H     0.11114   0.78438   0.28176   0.00000  Uiso   1.00
N277   N     0.16665   0.83332   0.28573   0.00000  Uiso   1.00
N278   N     0.16668   0.83334   0.04760   0.00000  Uiso   1.00
O279   O     0.16666   0.77225   0.20487   0.00000  Uiso   1.00
O280   O     0.16667   0.89442   0.12846   0.00000  Uiso   1.00
O281   O     0.16666   0.77226   0.12843   0.00000  Uiso   1.00
O282   O     0.16667   0.89441   0.20490   0.00000  Uiso   1.00
O283   O     0.09058   0.83333   0.19595   0.00000  Uiso   1.00
O284   O     0.24275   0.83334   0.13739   0.00000  Uiso   1.00
O285   O     0.09058   0.83334   0.11950   0.00000  Uiso   1.00
O286   O     0.24275   0.83333   0.21383   0.00000  Uiso   1.00
Zn287  Zn    0.16667   0.83333   0.21771   0.00000  Uiso   1.00
Zn288  Zn    0.16667   0.83334   0.11563   0.00000  Uiso   1.00
C289   C     0.23334   0.89168   0.29696   0.00000  Uiso   1.00
H290   H     0.24065   0.89042   0.26243   0.00000  Uiso   1.00
O291   O     0.25567   0.91932   0.32162   0.00000  Uiso   1.00
C292   C     0.09998   0.77500   0.03637   0.00000  Uiso   1.00
H293   H     0.09269   0.77624   0.07090   0.00000  Uiso   1.00
O294   O     0.07762   0.74739   0.01171   0.00000  Uiso   1.00
C295   C     0.49997   0.75334   0.16653   0.00000  Uiso   1.00
C296   C     0.50003   0.91332   0.16680   0.00000  Uiso   1.00
C297   C     0.40038   0.83327   0.15463   0.00000  Uiso   1.00
C298   C     0.59962   0.83340   0.17870   0.00000  Uiso   1.00
C299   C     0.34520   0.83328   0.14827   0.00000  Uiso   1.00
C300   C     0.65480   0.83338   0.18507   0.00000  Uiso   1.00
C301   C     0.49556   0.68752   0.12509   0.00000  Uiso   1.00
C302   C     0.50444   0.97915   0.20824   0.00000  Uiso   1.00
C303   C     0.49552   0.97828   0.12523   0.00000  Uiso   1.00
C304   C     0.50449   0.68839   0.20810   0.00000  Uiso   1.00
C305   C     0.49997   0.95751   0.16681   0.00000  Uiso   1.00
C306   C     0.50003   0.70916   0.16652   0.00000  Uiso   1.00
C307   C     0.53090   0.86075   0.02900   0.00000  Uiso   1.00
C308   C     0.46910   0.80592   0.30433   0.00000  Uiso   1.00
C309   C     0.53136   0.86106   0.31453   0.00000  Uiso   1.00
C310   C     0.46864   0.80561   0.01880   0.00000  Uiso   1.00
H311   H     0.65762   0.83323   0.11344   0.00000  Uiso   1.00
H312   H     0.34238   0.83343   0.21989   0.00000  Uiso   1.00
H313   H     0.49196   0.70330   0.09271   0.00000  Uiso   1.00
H314   H     0.50805   0.96336   0.24062   0.00000  Uiso   1.00
H315   H     0.49188   0.96180   0.09287   0.00000  Uiso   1.00
H316   H     0.50812   0.70487   0.24047   0.00000  Uiso   1.00
H317   H     0.55552   0.88229   0.05157   0.00000  Uiso   1.00
H318   H     0.44448   0.78438   0.28176   0.00000  Uiso   1.00
N319   N     0.49999   0.83332   0.28573   0.00000  Uiso   1.00
N320   N     0.50001   0.83334   0.04760   0.00000  Uiso   1.00
O321   O     0.50000   0.77225   0.20487   0.00000  Uiso   1.00
O322   O     0.50000   0.89442   0.12846   0.00000  Uiso   1.00
O323   O     0.50000   0.77226   0.12843   0.00000  Uiso   1.00
O324   O     0.50000   0.89441   0.20490   0.00000  Uiso   1.00
O325   O     0.42392   0.83333   0.19595   0.00000  Uiso   1.00
O326   O     0.57608   0.83334   0.13739   0.00000  Uiso   1.00
O327   O     0.42392   0.83334   0.11950   0.00000  Uiso   1.00
O328   O     0.57608   0.83333   0.21383   0.00000  Uiso   1.00
Zn329  Zn    0.50000   0.83333   0.21771   0.00000  Uiso   1.00
Zn330  Zn    0.50000   0.83334   0.11563   0.00000  Uiso   1.00
C331   C     0.56667   0.89168   0.29696   0.00000  Uiso   1.00
H332   H     0.57398   0.89042   0.26243   0.00000  Uiso   1.00
O333   O     0.58901   0.91932   0.32162   0.00000  Uiso   1.00
C334   C     0.43331   0.77500   0.03637   0.00000  Uiso   1.00
H335   H     0.42602   0.77624   0.07090   0.00000  Uiso   1.00
O336   O     0.41096   0.74739   0.01171   0.00000  Uiso   1.00
C337   C     0.83330   0.75334   0.16653   0.00000  Uiso   1.00
C338   C     0.83336   0.91332   0.16680   0.00000  Uiso   1.00
C339   C     0.73371   0.83327   0.15463   0.00000  Uiso   1.00
C340   C     0.93295   0.83340   0.17870   0.00000  Uiso   1.00
C341   C     0.67853   0.83328   0.14827   0.00000  Uiso   1.00
C342   C     0.98813   0.83338   0.18507   0.00000  Uiso   1.00
C343   C     0.82889   0.68752   0.12509   0.00000  Uiso   1.00
C344   C     0.83778   0.97915   0.20824   0.00000  Uiso   1.00
C345   C     0.82885   0.97828   0.12523   0.00000  Uiso   1.00
C346   C     0.83782   0.68839   0.20810   0.00000  Uiso   1.00
C347   C     0.83330   0.95751   0.16681   0.00000  Uiso   1.00
C348   C     0.83337   0.70916   0.16652   0.00000  Uiso   1.00
C349   C     0.86423   0.86075   0.02900   0.00000  Uiso   1.00
C350   C     0.80243   0.80592   0.30433   0.00000  Uiso   1.00
C351   C     0.86469   0.86106   0.31453   0.00000  Uiso   1.00
C352   C     0.80197   0.80561   0.01880   0.00000  Uiso   1.00
H353   H     0.99095   0.83323   0.11344   0.00000  Uiso   1.00
H354   H     0.67572   0.83343   0.21989   0.00000  Uiso   1.00
H355   H     0.82529   0.70330   0.09271   0.00000  Uiso   1.00
H356   H     0.84138   0.96336   0.24062   0.00000  Uiso   1.00
H357   H     0.82521   0.96180   0.09287   0.00000  Uiso   1.00
H358   H     0.84146   0.70487   0.24047   0.00000  Uiso   1.00
H359   H     0.88885   0.88229   0.05157   0.00000  Uiso   1.00
H360   H     0.77781   0.78438   0.28176   0.00000  Uiso   1.00
N361   N     0.83332   0.83332   0.28573   0.00000  Uiso   1.00
N362   N     0.83335   0.83334   0.04760   0.00000  Uiso   1.00
O363   O     0.83333   0.77225   0.20487   0.00000  Uiso   1.00
O364   O     0.83334   0.89442   0.12846   0.00000  Uiso   1.00
O365   O     0.83333   0.77226   0.12843   0.00000  Uiso   1.00
O366   O     0.83334   0.89441   0.20490   0.00000  Uiso   1.00
O367   O     0.75725   0.83333   0.19595   0.00000  Uiso   1.00
O368   O     0.90942   0.83334   0.13739   0.00000  Uiso   1.00
O369   O     0.75725   0.83334   0.11950   0.00000  Uiso   1.00
O370   O     0.90942   0.83333   0.21383   0.00000  Uiso   1.00
Zn371  Zn    0.83333   0.83333   0.21771   0.00000  Uiso   1.00
Zn372  Zn    0.83333   0.83334   0.11563   0.00000  Uiso   1.00
C373   C     0.90001   0.89168   0.29696   0.00000  Uiso   1.00
H374   H     0.90731   0.89042   0.26243   0.00000  Uiso   1.00
O375   O     0.92234   0.91932   0.32162   0.00000  Uiso   1.00
C376   C     0.76665   0.77500   0.03637   0.00000  Uiso   1.00
H377   H     0.75936   0.77624   0.07090   0.00000  Uiso   1.00
O378   O     0.74429   0.74739   0.01171   0.00000  Uiso   1.00
C379   C     0.16664   0.08668   0.49986   0.00000  Uiso   1.00
C380   C     0.16670   0.24666   0.50014   0.00000  Uiso   1.00
C381   C     0.06705   0.16660   0.48796   0.00000  Uiso   1.00
C382   C     0.26629   0.16673   0.51204   0.00000  Uiso   1.00
C383   C     0.01187   0.16662   0.48160   0.00000  Uiso   1.00
C384   C     0.32147   0.16672   0.51840   0.00000  Uiso   1.00
C385   C     0.16222   0.02085   0.45843   0.00000  Uiso   1.00
C386   C     0.17111   0.31248   0.54157   0.00000  Uiso   1.00
C387   C     0.16218   0.31161   0.45856   0.00000  Uiso   1.00
C388   C     0.17115   0.02172   0.54144   0.00000  Uiso   1.00
C389   C     0.16664   0.29084   0.50015   0.00000  Uiso   1.00
C390   C     0.16670   0.04249   0.49985   0.00000  Uiso   1.00
C391   C     0.19757   0.19408   0.36234   0.00000  Uiso   1.00
C392   C     0.13577   0.13925   0.63766   0.00000  Uiso   1.00
C393   C     0.19802   0.19440   0.64787   0.00000  Uiso   1.00
C394   C     0.13531   0.13894   0.35213   0.00000  Uiso   1.00
H395   H     0.32428   0.16657   0.44678   0.00000  Uiso   1.00
H396   H     0.00905   0.16676   0.55322   0.00000  Uiso   1.00
H397   H     0.15862   0.03664   0.42605   0.00000  Uiso   1.00
H398   H     0.17471   0.29670   0.57395   0.00000  Uiso   1.00
H399   H     0.15855   0.29513   0.42620   0.00000  Uiso   1.00
H400   H     0.17479   0.03820   0.57380   0.00000  Uiso   1.00
H401   H     0.22219   0.21562   0.38491   0.00000  Uiso   1.00
H402   H     0.11114   0.11771   0.61509   0.00000  Uiso   1.00
N403   N     0.16665   0.16666   0.61907   0.00000  Uiso   1.00
N404   N     0.16668   0.16668   0.38093   0.00000  Uiso   1.00
O405   O     0.16666   0.10558   0.53821   0.00000  Uiso   1.00
O406   O     0.16667   0.22775   0.46179   0.00000  Uiso   1.00
O407   O     0.16666   0.10559   0.46176   0.00000  Uiso   1.00
O408   O     0.16667   0.22774   0.53824   0.00000  Uiso   1.00
O409   O     0.09058   0.16666   0.52928   0.00000  Uiso   1.00
O410   O     0.24275   0.16667   0.47072   0.00000  Uiso   1.00
O411   O     0.09058   0.16667   0.45284   0.00000  Uiso   1.00
O412   O     0.24275   0.16666   0.54716   0.00000  Uiso   1.00
Zn413  Zn    0.16667   0.16666   0.55104   0.00000  Uiso   1.00
Zn414  Zn    0.16667   0.16667   0.44896   0.00000  Uiso   1.00
C415   C     0.23334   0.22501   0.63029   0.00000  Uiso   1.00
H416   H     0.24065   0.22376   0.59577   0.00000  Uiso   1.00
O417   O     0.25567   0.25265   0.65496   0.00000  Uiso   1.00
C418   C     0.09998   0.10833   0.36971   0.00000  Uiso   1.00
H419   H     0.09269   0.10957   0.40423   0.00000  Uiso   1.00
O420   O     0.07762   0.08072   0.34504   0.00000  Uiso   1.00
C421   C     0.49997   0.08668   0.49986   0.00000  Uiso   1.00
C422   C     0.50003   0.24666   0.50014   0.00000  Uiso   1.00
C423   C     0.40038   0.16660   0.48796   0.00000  Uiso   1.00
C424   C     0.59962   0.16673   0.51204   0.00000  Uiso   1.00
C425   C     0.34520   0.16662   0.48160   0.00000  Uiso   1.00
C426   C     0.65480   0.16672   0.51840   0.00000  Uiso   1.00
C427   C     0.49556   0.02085   0.45843   0.00000  Uiso   1.00
C428   C     0.50444   0.31248   0.54157   0.00000  Uiso   1.00
C429   C     0.49552   0.31161   0.45856   0.00000  Uiso   1.00
C430   C     0.50449   0.02172   0.54144   0.00000  Uiso   1.00
C431   C     0.49997   0.29084   0.50015   0.00000  Uiso   1.00
C432   C     0.50003   0.04249   0.49985   0.00000  Uiso   1.00
C433   C     0.53090   0.19408   0.36234   0.00000  Uiso   1.00
C434   C     0.46910   0.13925   0.63766   0.00000  Uiso   1.00
C435   C     0.53136   0.19440   0.64787   0.00000  Uiso   1.00
C436   C     0.46864   0.13894   0.35213   0.00000  Uiso   1.00
H437   H     0.65762   0.16657   0.44678   0.00000  Uiso   1.00
H438   H     0.34238   0.16676   0.55322   0.00000  Uiso   1.00
H439   H     0.49196   0.03664   0.42605   0.00000  Uiso   1.00
H440   H     0.50805   0.29670   0.57395   0.00000  Uiso   1.00
H441   H     0.49188   0.29513   0.42620   0.00000  Uiso   1.00
H442   H     0.50812   0.03820   0.57380   0.00000  Uiso   1.00
H443   H     0.55552   0.21562   0.38491   0.00000  Uiso   1.00
H444   H     0.44448   0.11771   0.61509   0.00000  Uiso   1.00
N445   N     0.49999   0.16666   0.61907   0.00000  Uiso   1.00
N446   N     0.50001   0.16668   0.38093   0.00000  Uiso   1.00
O447   O     0.50000   0.10558   0.53821   0.00000  Uiso   1.00
O448   O     0.50000   0.22775   0.46179   0.00000  Uiso   1.00
O449   O     0.50000   0.10559   0.46176   0.00000  Uiso   1.00
O450   O     0.50000   0.22774   0.53824   0.00000  Uiso   1.00
O451   O     0.42392   0.16666   0.52928   0.00000  Uiso   1.00
O452   O     0.57608   0.16667   0.47072   0.00000  Uiso   1.00
O453   O     0.42392   0.16667   0.45284   0.00000  Uiso   1.00
O454   O     0.57608   0.16666   0.54716   0.00000  Uiso   1.00
Zn455  Zn    0.50000   0.16666   0.55104   0.00000  Uiso   1.00
Zn456  Zn    0.50000   0.16667   0.44896   0.00000  Uiso   1.00
C457   C     0.56667   0.22501   0.63029   0.00000  Uiso   1.00
H458   H     0.57398   0.22376   0.59577   0.00000  Uiso   1.00
O459   O     0.58901   0.25265   0.65496   0.00000  Uiso   1.00
C460   C     0.43331   0.10833   0.36971   0.00000  Uiso   1.00
H461   H     0.42602   0.10957   0.40423   0.00000  Uiso   1.00
O462   O     0.41096   0.08072   0.34504   0.00000  Uiso   1.00
C463   C     0.83330   0.08668   0.49986   0.00000  Uiso   1.00
C464   C     0.83336   0.24666   0.50014   0.00000  Uiso   1.00
C465   C     0.73371   0.16660   0.48796   0.00000  Uiso   1.00
C466   C     0.93295   0.16673   0.51204   0.00000  Uiso   1.00
C467   C     0.67853   0.16662   0.48160   0.00000  Uiso   1.00
C468   C     0.98813   0.16672   0.51840   0.00000  Uiso   1.00
C469   C     0.82889   0.02085   0.45843   0.00000  Uiso   1.00
C470   C     0.83778   0.31248   0.54157   0.00000  Uiso   1.00
C471   C     0.82885   0.31161   0.45856   0.00000  Uiso   1.00
C472   C     0.83782   0.02172   0.54144   0.00000  Uiso   1.00
C473   C     0.83330   0.29084   0.50015   0.00000  Uiso   1.00
C474   C     0.83337   0.04249   0.49985   0.00000  Uiso   1.00
C475   C     0.86423   0.19408   0.36234   0.00000  Uiso   1.00
C476   C     0.80243   0.13925   0.63766   0.00000  Uiso   1.00
C477   C     0.86469   0.19440   0.64787   0.00000  Uiso   1.00
C478   C     0.80197   0.13894   0.35213   0.00000  Uiso   1.00
H479   H     0.99095   0.16657   0.44678   0.00000  Uiso   1.00
H480   H     0.67572   0.16676   0.55322   0.00000  Uiso   1.00
H481   H     0.82529   0.03664   0.42605   0.00000  Uiso   1.00
H482   H     0.84138   0.29670   0.57395   0.00000  Uiso   1.00
H483   H     0.82521   0.29513   0.42620   0.00000  Uiso   1.00
H484   H     0.84146   0.03820   0.57380   0.00000  Uiso   1.00
H485   H     0.88885   0.21562   0.38491   0.00000  Uiso   1.00
H486   H     0.77781   0.11771   0.61509   0.00000  Uiso   1.00
N487   N     0.83332   0.16666   0.61907   0.00000  Uiso   1.00
N488   N     0.83335   0.16668   0.38093   0.00000  Uiso   1.00
O489   O     0.83333   0.10558   0.53821   0.00000  Uiso   1.00
O490   O     0.83334   0.22775   0.46179   0.00000  Uiso   1.00
O491   O     0.83333   0.10559   0.46176   0.00000  Uiso   1.00
O492   O     0.83334   0.22774   0.53824   0.00000  Uiso   1.00
O493   O     0.75725   0.16666   0.52928   0.00000  Uiso   1.00
O494   O     0.90942   0.16667   0.47072   0.00000  Uiso   1.00
O495   O     0.75725   0.16667   0.45284   0.00000  Uiso   1.00
O496   O     0.90942   0.16666   0.54716   0.00000  Uiso   1.00
Zn497  Zn    0.83333   0.16666   0.55104   0.00000  Uiso   1.00
Zn498  Zn    0.83333   0.16667   0.44896   0.00000  Uiso   1.00
C499   C     0.90001   0.22501   0.63029   0.00000  Uiso   1.00
H500   H     0.90731   0.22376   0.59577   0.00000  Uiso   1.00
O501   O     0.92234   0.25265   0.65496   0.00000  Uiso   1.00
C502   C     0.76665   0.10833   0.36971   0.00000  Uiso   1.00
H503   H     0.75936   0.10957   0.40423   0.00000  Uiso   1.00
O504   O     0.74429   0.08072   0.34504   0.00000  Uiso   1.00
C505   C     0.16664   0.42001   0.49986   0.00000  Uiso   1.00
C506   C     0.16670   0.57999   0.50014   0.00000  Uiso   1.00
C507   C     0.06705   0.49993   0.48796   0.00000  Uiso   1.00
C508   C     0.26629   0.50006   0.51204   0.00000  Uiso   1.00
C509   C     0.01187   0.49995   0.48160   0.00000  Uiso   1.00
C510   C     0.32147   0.50005   0.51840   0.00000  Uiso   1.00
C511   C     0.16222   0.35418   0.45843   0.00000  Uiso   1.00
C512   C     0.17111   0.64582   0.54157   0.00000  Uiso   1.00
C513   C     0.16218   0.64494   0.45856   0.00000  Uiso   1.00
C514   C     0.17115   0.35506   0.54144   0.00000  Uiso   1.00
C515   C     0.16664   0.62417   0.50015   0.00000  Uiso   1.00
C516   C     0.16670   0.37583   0.49985   0.00000  Uiso   1.00
C517   C     0.19757   0.52742   0.36234   0.00000  Uiso   1.00
C518   C     0.13577   0.47258   0.63766   0.00000  Uiso   1.00
C519   C     0.19802   0.52773   0.64787   0.00000  Uiso   1.00
C520   C     0.13531   0.47227   0.35213   0.00000  Uiso   1.00
H521   H     0.32428   0.49990   0.44678   0.00000  Uiso   1.00
H522   H     0.00905   0.50010   0.55322   0.00000  Uiso   1.00
H523   H     0.15862   0.36997   0.42605   0.00000  Uiso   1.00
H524   H     0.17471   0.63003   0.57395   0.00000  Uiso   1.00
H525   H     0.15855   0.62846   0.42620   0.00000  Uiso   1.00
H526   H     0.17479   0.37154   0.57380   0.00000  Uiso   1.00
H527   H     0.22219   0.54895   0.38491   0.00000  Uiso   1.00
H528   H     0.11114   0.45105   0.61509   0.00000  Uiso   1.00
N529   N     0.16665   0.49999   0.61907   0.00000  Uiso   1.00
N530   N     0.16668   0.50001   0.38093   0.00000  Uiso   1.00
O531   O     0.16666   0.43892   0.53821   0.00000  Uiso   1.00
O532   O     0.16667   0.56108   0.46179   0.00000  Uiso   1.00
O533   O     0.16666   0.43893   0.46176   0.00000  Uiso   1.00
O534   O     0.16667   0.56107   0.53824   0.00000  Uiso   1.00
O535   O     0.09058   0.50000   0.52928   0.00000  Uiso   1.00
O536   O     0.24275   0.50000   0.47072   0.00000  Uiso   1.00
O537   O     0.09058   0.50000   0.45284   0.00000  Uiso   1.00
O538   O     0.24275   0.50000   0.54716   0.00000  Uiso   1.00
Zn539  Zn    0.16667   0.49999   0.55104   0.00000  Uiso   1.00
Zn540  Zn    0.16667   0.50001   0.44896   0.00000  Uiso   1.00
C541   C     0.23334   0.55835   0.63029   0.00000  Uiso   1.00
H542   H     0.24065   0.55709   0.59577   0.00000  Uiso   1.00
O543   O     0.25567   0.58598   0.65496   0.00000  Uiso   1.00
C544   C     0.09998   0.44166   0.36971   0.00000  Uiso   1.00
H545   H     0.09269   0.44290   0.40423   0.00000  Uiso   1.00
O546   O     0.07762   0.41405   0.34504   0.00000  Uiso   1.00
C547   C     0.49997   0.42001   0.49986   0.00000  Uiso   1.00
C548   C     0.50003   0.57999   0.50014   0.00000  Uiso   1.00
C549   C     0.40038   0.49993   0.48796   0.00000  Uiso   1.00
C550   C     0.59962   0.50006   0.51204   0.00000  Uiso   1.00
C551   C     0.34520   0.49995   0.48160   0.00000  Uiso   1.00
C552   C     0.65480   0.50005   0.51840   0.00000  Uiso   1.00
C553   C     0.49556   0.35418   0.45843   0.00000  Uiso   1.00
C554   C     0.50444   0.64582   0.54157   0.00000  Uiso   1.00
C555   C     0.49552   0.64494   0.45856   0.00000  Uiso   1.00
C556   C     0.50449   0.35506   0.54144   0.00000  Uiso   1.00
C557   C     0.49997   0.62417   0.50015   0.00000  Uiso   1.00
C558   C     0.50003   0.37583   0.49985   0.00000  Uiso   1.00
C559   C     0.53090   0.52742   0.36234   0.00000  Uiso   1.00
C560   C     0.46910   0.47258   0.63766   0.00000  Uiso   1.00
C561   C     0.53136   0.52773   0.64787   0.00000  Uiso   1.00
C562   C     0.46864   0.47227   0.35213   0.00000  Uiso   1.00
H563   H     0.65762   0.49990   0.44678   0.00000  Uiso   1.00
H564   H     0.34238   0.50010   0.55322   0.00000  Uiso   1.00
H565   H     0.49196   0.36997   0.42605   0.00000  Uiso   1.00
H566   H     0.50805   0.63003   0.57395   0.00000  Uiso   1.00
H567   H     0.49188   0.62846   0.42620   0.00000  Uiso   1.00
H568   H     0.50812   0.37154   0.57380   0.00000  Uiso   1.00
H569   H     0.55552   0.54895   0.38491   0.00000  Uiso   1.00
H570   H     0.44448   0.45105   0.61509   0.00000  Uiso   1.00
N571   N     0.49999   0.49999   0.61907   0.00000  Uiso   1.00
N572   N     0.50001   0.50001   0.38093   0.00000  Uiso   1.00
O573   O     0.50000   0.43892   0.53821   0.00000  Uiso   1.00
O574   O     0.50000   0.56108   0.46179   0.00000  Uiso   1.00
O575   O     0.50000   0.43893   0.46176   0.00000  Uiso   1.00
O576   O     0.50000   0.56107   0.53824   0.00000  Uiso   1.00
O577   O     0.42392   0.50000   0.52928   0.00000  Uiso   1.00
O578   O     0.57608   0.50000   0.47072   0.00000  Uiso   1.00
O579   O     0.42392   0.50000   0.45284   0.00000  Uiso   1.00
O580   O     0.57608   0.50000   0.54716   0.00000  Uiso   1.00
Zn581  Zn    0.50000   0.49999   0.55104   0.00000  Uiso   1.00
Zn582  Zn    0.50000   0.50001   0.44896   0.00000  Uiso   1.00
C583   C     0.56667   0.55835   0.63029   0.00000  Uiso   1.00
H584   H     0.57398   0.55709   0.59577   0.00000  Uiso   1.00
O585   O     0.58901   0.58598   0.65496   0.00000  Uiso   1.00
C586   C     0.43331   0.44166   0.36971   0.00000  Uiso   1.00
H587   H     0.42602   0.44290   0.40423   0.00000  Uiso   1.00
O588   O     0.41096   0.41405   0.34504   0.00000  Uiso   1.00
C589   C     0.83330   0.42001   0.49986   0.00000  Uiso   1.00
C590   C     0.83336   0.57999   0.50014   0.00000  Uiso   1.00
C591   C     0.73371   0.49993   0.48796   0.00000  Uiso   1.00
C592   C     0.93295   0.50006   0.51204   0.00000  Uiso   1.00
C593   C     0.67853   0.49995   0.48160   0.00000  Uiso   1.00
C594   C     0.98813   0.50005   0.51840   0.00000  Uiso   1.00
C595   C     0.82889   0.35418   0.45843   0.00000  Uiso   1.00
C596   C     0.83778   0.64582   0.54157   0.00000  Uiso   1.00
C597   C     0.82885   0.64494   0.45856   0.00000  Uiso   1.00
C598   C     0.83782   0.35506   0.54144   0.00000  Uiso   1.00
C599   C     0.83330   0.62417   0.50015   0.00000  Uiso   1.00
C600   C     0.83337   0.37583   0.49985   0.00000  Uiso   1.00
C601   C     0.86423   0.52742   0.36234   0.00000  Uiso   1.00
C602   C     0.80243   0.47258   0.63766   0.00000  Uiso   1.00
C603   C     0.86469   0.52773   0.64787   0.00000  Uiso   1.00
C604   C     0.80197   0.47227   0.35213   0.00000  Uiso   1.00
H605   H     0.99095   0.49990   0.44678   0.00000  Uiso   1.00
H606   H     0.67572   0.50010   0.55322   0.00000  Uiso   1.00
H607   H     0.82529   0.36997   0.42605   0.00000  Uiso   1.00
H608   H     0.84138   0.63003   0.57395   0.00000  Uiso   1.00
H609   H     0.82521   0.62846   0.42620   0.00000  Uiso   1.00
H610   H     0.84146   0.37154   0.57380   0.00000  Uiso   1.00
H611   H     0.88885   0.54895   0.38491   0.00000  Uiso   1.00
H612   H     0.77781   0.45105   0.61509   0.00000  Uiso   1.00
N613   N     0.83332   0.49999   0.61907   0.00000  Uiso   1.00
N614   N     0.83335   0.50001   0.38093   0.00000  Uiso   1.00
O615   O     0.83333   0.43892   0.53821   0.00000  Uiso   1.00
O616   O     0.83334   0.56108   0.46179   0.00000  Uiso   1.00
O617   O     0.83333   0.43893   0.46176   0.00000  Uiso   1.00
O618   O     0.83334   0.56107   0.53824   0.00000  Uiso   1.00
O619   O     0.75725   0.50000   0.52928   0.00000  Uiso   1.00
O620   O     0.90942   0.50000   0.47072   0.00000  Uiso   1.00
O621   O     0.75725   0.50000   0.45284   0.00000  Uiso   1.00
O622   O     0.90942   0.50000   0.54716   0.00000  Uiso   1.00
Zn623  Zn    0.83333   0.49999   0.55104   0.00000  Uiso   1.00
Zn624  Zn    0.83333   0.50001   0.44896   0.00000  Uiso   1.00
C625   C     0.90001   0.55835   0.63029   0.00000  Uiso   1.00
H626   H     0.90731   0.55709   0.59577   0.00000  Uiso   1.00
O627   O     0.92234   0.58598   0.65496   0.00000  Uiso   1.00
C628   C     0.76665   0.44166   0.36971   0.00000  Uiso   1.00
H629   H     0.75936   0.44290   0.40423   0.00000  Uiso   1.00
O630   O     0.74429   0.41405   0.34504   0.00000  Uiso   1.00
C631   C     0.16664   0.75334   0.49986   0.00000  Uiso   1.00
C632   C     0.16670   0.91332   0.50014   0.00000  Uiso   1.00
C633   C     0.06705   0.83327   0.48796   0.00000  Uiso   1.00
C634   C     0.26629   0.83340   0.51204   0.00000  Uiso   1.00
C635   C     0.01187   0.83328   0.48160   0.00000  Uiso   1.00
C636   C     0.32147   0.83338   0.51840   0.00000  Uiso   1.00
C637   C     0.16222   0.68752   0.45843   0.00000  Uiso   1.00
C638   C     0.17111   0.97915   0.54157   0.00000  Uiso   1.00
C639   C     0.16218   0.97828   0.45856   0.00000  Uiso   1.00
C640   C     0.17115   0.68839   0.54144   0.00000  Uiso   1.00
C641   C     0.16664   0.95751   0.50015   0.00000  Uiso   1.00
C642   C     0.16670   0.70916   0.49985   0.00000  Uiso   1.00
C643   C     0.19757   0.86075   0.36234   0.00000  Uiso   1.00
C644   C     0.13577   0.80592   0.63766   0.00000  Uiso   1.00
C645   C     0.19802   0.86106   0.64787   0.00000  Uiso   1.00
C646   C     0.13531   0.80561   0.35213   0.00000  Uiso   1.00
H647   H     0.32428   0.83323   0.44678   0.00000  Uiso   1.00
H648   H     0.00905   0.83343   0.55322   0.00000  Uiso   1.00
H649   H     0.15862   0.70330   0.42605   0.00000  Uiso   1.00
H650   H     0.17471   0.96336   0.57395   0.00000  Uiso   1.00
H651   H     0.15855   0.96180   0.42620   0.00000  Uiso   1.00
H652   H     0.17479   0.70487   0.57380   0.00000  Uiso   1.00
H653   H     0.22219   0.88229   0.38491   0.00000  Uiso   1.00
H654   H     0.11114   0.78438   0.61509   0.00000  Uiso   1.00
N655   N     0.16665   0.83332   0.61907   0.00000  Uiso   1.00
N656   N     0.16668   0.83334   0.38093   0.00000  Uiso   1.00
O657   O     0.16666   0.77225   0.53821   0.00000  Uiso   1.00
O658   O     0.16667   0.89442   0.46179   0.00000  Uiso   1.00
O659   O     0.16666   0.77226   0.46176   0.00000  Uiso   1.00
O660   O     0.16667   0.89441   0.53824   0.00000  Uiso   1.00
O661   O     0.09058   0.83333   0.52928   0.00000  Uiso   1.00
O662   O     0.24275   0.83334   0.47072   0.00000  Uiso   1.00
O663   O     0.09058   0.83334   0.45284   0.00000  Uiso   1.00
O664   O     0.24275   0.83333   0.54716   0.00000  Uiso   1.00
Zn665  Zn    0.16667   0.83333   0.55104   0.00000  Uiso   1.00
Zn666  Zn    0.16667   0.83334   0.44896   0.00000  Uiso   1.00
C667   C     0.23334   0.89168   0.63029   0.00000  Uiso   1.00
H668   H     0.24065   0.89042   0.59577   0.00000  Uiso   1.00
O669   O     0.25567   0.91932   0.65496   0.00000  Uiso   1.00
C670   C     0.09998   0.77500   0.36971   0.00000  Uiso   1.00
H671   H     0.09269   0.77624   0.40423   0.00000  Uiso   1.00
O672   O     0.07762   0.74739   0.34504   0.00000  Uiso   1.00
C673   C     0.49997   0.75334   0.49986   0.00000  Uiso   1.00
C674   C     0.50003   0.91332   0.50014   0.00000  Uiso   1.00
C675   C     0.40038   0.83327   0.48796   0.00000  Uiso   1.00
C676   C     0.59962   0.83340   0.51204   0.00000  Uiso   1.00
C677   C     0.34520   0.83328   0.48160   0.00000  Uiso   1.00
C678   C     0.65480   0.83338   0.51840   0.00000  Uiso   1.00
C679   C     0.49556   0.68752   0.45843   0.00000  Uiso   1.00
C680   C     0.50444   0.97915   0.54157   0.00000  Uiso   1.00
C681   C     0.49552   0.97828   0.45856   0.00000  Uiso   1.00
C682   C     0.50449   0.68839   0.54144   0.00000  Uiso   1.00
C683   C     0.49997   0.95751   0.50015   0.00000  Uiso   1.00
C684   C     0.50003   0.70916   0.49985   0.00000  Uiso   1.00
C685   C     0.53090   0.86075   0.36234   0.00000  Uiso   1.00
C686   C     0.46910   0.80592   0.63766   0.00000  Uiso   1.00
C687   C     0.53136   0.86106   0.64787   0.00000  Uiso   1.00
C688   C     0.46864   0.80561   0.35213   0.00000  Uiso   1.00
H689   H     0.65762   0.83323   0.44678   0.00000  Uiso   1.00
H690   H     0.34238   0.83343   0.55322   0.00000  Uiso   1.00
H691   H     0.49196   0.70330   0.42605   0.00000  Uiso   1.00
H692   H     0.50805   0.96336   0.57395   0.00000  Uiso   1.00
H693   H     0.49188   0.96180   0.42620   0.00000  Uiso   1.00
H694   H     0.50812   0.70487   0.57380   0.00000  Uiso   1.00
H695   H     0.55552   0.88229   0.38491   0.00000  Uiso   1.00
H696   H     0.44448   0.78438   0.61509   0.00000  Uiso   1.00
N697   N     0.49999   0.83332   0.61907   0.00000  Uiso   1.00
N698   N     0.50001   0.83334   0.38093   0.00000  Uiso   1.00
O699   O     0.50000   0.77225   0.53821   0.00000  Uiso   1.00
O700   O     0.50000   0.89442   0.46179   0.00000  Uiso   1.00
O701   O     0.50000   0.77226   0.46176   0.00000  Uiso   1.00
O702   O     0.50000   0.89441   0.53824   0.00000  Uiso   1.00
O703   O     0.42392   0.83333   0.52928   0.00000  Uiso   1.00
O704   O     0.57608   0.83334   0.47072   0.00000  Uiso   1.00
O705   O     0.42392   0.83334   0.45284   0.00000  Uiso   1.00
O706   O     0.57608   0.83333   0.54716   0.00000  Uiso   1.00
Zn707  Zn    0.50000   0.83333   0.55104   0.00000  Uiso   1.00
Zn708  Zn    0.50000   0.83334   0.44896   0.00000  Uiso   1.00
C709   C     0.56667   0.89168   0.63029   0.00000  Uiso   1.00
H710   H     0.57398   0.89042   0.59577   0.00000  Uiso   1.00
O711   O     0.58901   0.91932   0.65496   0.00000  Uiso   1.00
C712   C     0.43331   0.77500   0.36971   0.00000  Uiso   1.00
H713   H     0.42602   0.77624   0.40423   0.00000  Uiso   1.00
O714   O     0.41096   0.74739   0.34504   0.00000  Uiso   1.00
C715   C     0.83330   0.75334   0.49986   0.00000  Uiso   1.00
C716   C     0.83336   0.91332   0.50014   0.00000  Uiso   1.00
C717   C     0.73371   0.83327   0.48796   0.00000  Uiso   1.00
C718   C     0.93295   0.83340   0.51204   0.00000  Uiso   1.00
C719   C     0.67853   0.83328   0.48160   0.00000  Uiso   1.00
C720   C     0.98813   0.83338   0.51840   0.00000  Uiso   1.00
C721   C     0.82889   0.68752   0.45843   0.00000  Uiso   1.00
C722   C     0.83778   0.97915   0.54157   0.00000  Uiso   1.00
C723   C     0.82885   0.97828   0.45856   0.00000  Uiso   1.00
C724   C     0.83782   0.68839   0.54144   0.00000  Uiso   1.00
C725   C     0.83330   0.95751   0.50015   0.00000  Uiso   1.00
C726   C     0.83337   0.70916   0.49985   0.00000  Uiso   1.00
C727   C     0.86423   0.86075   0.36234   0.00000  Uiso   1.00
C728   C     0.80243   0.80592   0.63766   0.00000  Uiso   1.00
C729   C     0.86469   0.86106   0.64787   0.00000  Uiso   1.00
C730   C     0.80197   0.80561   0.35213   0.00000  Uiso   1.00
H731   H     0.99095   0.83323   0.44678   0.00000  Uiso   1.00
H732   H     0.67572   0.83343   0.55322   0.00000  Uiso   1.00
H733   H     0.82529   0.70330   0.42605   0.00000  Uiso   1.00
H734   H     0.84138   0.96336   0.57395   0.00000  Uiso   1.00
H735   H     0.82521   0.96180   0.42620   0.00000  Uiso   1.00
H736   H     0.84146   0.70487   0.57380   0.00000  Uiso   1.00
H737   H     0.88885   0.88229   0.38491   0.00000  Uiso   1.00
H738   H     0.77781   0.78438   0.61509   0.00000  Uiso   1.00
N739   N     0.83332   0.83332   0.61907   0.00000  Uiso   1.00
N740   N     0.83335   0.83334   0.38093   0.00000  Uiso   1.00
O741   O     0.83333   0.77225   0.53821   0.00000  Uiso   1.00
O742   O     0.83334   0.89442   0.46179   0.00000  Uiso   1.00
O743   O     0.83333   0.77226   0.46176   0.00000  Uiso   1.00
O744   O     0.83334   0.89441   0.53824   0.00000  Uiso   1.00
O745   O     0.75725   0.83333   0.52928   0.00000  Uiso   1.00
O746   O     0.90942   0.83334   0.47072   0.00000  Uiso   1.00
O747   O     0.75725   0.83334   0.45284   0.00000  Uiso   1.00
O748   O     0.90942   0.83333   0.54716   0.00000  Uiso   1.00
Zn749  Zn    0.83333   0.83333   0.55104   0.00000  Uiso   1.00
Zn750  Zn    0.83333   0.83334   0.44896   0.00000  Uiso   1.00
C751   C     0.90001   0.89168   0.63029   0.00000  Uiso   1.00
H752   H     0.90731   0.89042   0.59577   0.00000  Uiso   1.00
O753   O     0.92234   0.91932   0.65496   0.00000  Uiso   1.00
C754   C     0.76665   0.77500   0.36971   0.00000  Uiso   1.00
H755   H     0.75936   0.77624   0.40423   0.00000  Uiso   1.00
O756   O     0.74429   0.74739   0.34504   0.00000  Uiso   1.00
C757   C     0.16664   0.08668   0.83320   0.00000  Uiso   1.00
C758   C     0.16670   0.24666   0.83347   0.00000  Uiso   1.00
C759   C     0.06705   0.16660   0.82130   0.00000  Uiso   1.00
C760   C     0.26629   0.16673   0.84537   0.00000  Uiso   1.00
C761   C     0.01187   0.16662   0.81493   0.00000  Uiso   1.00
C762   C     0.32147   0.16672   0.85173   0.00000  Uiso   1.00
C763   C     0.16222   0.02085   0.79176   0.00000  Uiso   1.00
C764   C     0.17111   0.31248   0.87491   0.00000  Uiso   1.00
C765   C     0.16218   0.31161   0.79190   0.00000  Uiso   1.00
C766   C     0.17115   0.02172   0.87477   0.00000  Uiso   1.00
C767   C     0.16664   0.29084   0.83348   0.00000  Uiso   1.00
C768   C     0.16670   0.04249   0.83319   0.00000  Uiso   1.00
C769   C     0.19757   0.19408   0.69567   0.00000  Uiso   1.00
C770   C     0.13577   0.13925   0.97100   0.00000  Uiso   1.00
C771   C     0.19802   0.19440   0.98120   0.00000  Uiso   1.00
C772   C     0.13531   0.13894   0.68547   0.00000  Uiso   1.00
H773   H     0.32428   0.16657   0.78011   0.00000  Uiso   1.00
H774   H     0.00905   0.16676   0.88656   0.00000  Uiso   1.00
H775   H     0.15862   0.03664   0.75938   0.00000  Uiso   1.00
H776   H     0.17471   0.29670   0.90729   0.00000  Uiso   1.00
H777   H     0.15855   0.29513   0.75953   0.00000  Uiso   1.00
H778   H     0.17479   0.03820   0.90713   0.00000  Uiso   1.00
H779   H     0.22219   0.21562   0.71824   0.00000  Uiso   1.00
H780   H     0.11114   0.11771   0.94842   0.00000  Uiso   1.00
N781   N     0.16665   0.16666   0.95240   0.00000  Uiso   1.00
N782   N     0.16668   0.16668   0.71427   0.00000  Uiso   1.00
O783   O     0.16666   0.10558   0.87154   0.00000  Uiso   1.00
O784   O     0.16667   0.22775   0.79513   0.00000  Uiso   1.00
O785   O     0.16666   0.10559   0.79510   0.00000  Uiso   1.00
O786   O     0.16667   0.22774   0.87157   0.00000  Uiso   1.00
O787   O     0.09058   0.16666   0.86261   0.00000  Uiso   1.00
O788   O     0.24275   0.16667   0.80405   0.00000  Uiso   1.00
O789   O     0.09058   0.16667   0.78617   0.00000  Uiso   1.00
O790   O     0.24275   0.16666   0.88050   0.00000  Uiso   1.00
Zn791  Zn    0.16667   0.16666   0.88437   0.00000  Uiso   1.00
Zn792  Zn    0.16667   0.16667   0.78229   0.00000  Uiso   1.00
C793   C     0.23334   0.22501   0.96362   0.00000  Uiso   1.00
H794   H     0.24065   0.22376   0.92910   0.00000  Uiso   1.00
O795   O     0.25567   0.25265   0.98829   0.00000  Uiso   1.00
C796   C     0.09998   0.10833   0.70304   0.00000  Uiso   1.00
H797   H     0.09269   0.10957   0.73756   0.00000  Uiso   1.00
O798   O     0.07762   0.08072   0.67837   0.00000  Uiso   1.00
C799   C     0.49997   0.08668   0.83320   0.00000  Uiso   1.00
C800   C     0.50003   0.24666   0.83347   0.00000  Uiso   1.00
C801   C     0.40038   0.16660   0.82130   0.00000  Uiso   1.00
C802   C     0.59962   0.16673   0.84537   0.00000  Uiso   1.00
C803   C     0.34520   0.16662   0.81493   0.00000  Uiso   1.00
C804   C     0.65480   0.16672   0.85173   0.00000  Uiso   1.00
C805   C     0.49556   0.02085   0.79176   0.00000  Uiso   1.00
C806   C     0.50444   0.31248   0.87491   0.00000  Uiso   1.00
C807   C     0.49552   0.31161   0.79190   0.00000  Uiso   1.00
C808   C     0.50449   0.02172   0.87477   0.00000  Uiso   1.00
C809   C     0.49997   0.29084   0.83348   0.00000  Uiso   1.00
C810   C     0.50003   0.04249   0.83319   0.00000  Uiso   1.00
C811   C     0.53090   0.19408   0.69567   0.00000  Uiso   1.00
C812   C     0.46910   0.13925   0.97100   0.00000  Uiso   1.00
C813   C     0.53136   0.19440   0.98120   0.00000  Uiso   1.00
C814   C     0.46864   0.13894   0.68547   0.00000  Uiso   1.00
H815   H     0.65762   0.16657   0.78011   0.00000  Uiso   1.00
H816   H     0.34238   0.16676   0.88656   0.00000  Uiso   1.00
H817   H     0.49196   0.03664   0.75938   0.00000  Uiso   1.00
H818   H     0.50805   0.29670   0.90729   0.00000  Uiso   1.00
H819   H     0.49188   0.29513   0.75953   0.00000  Uiso   1.00
H820   H     0.50812   0.03820   0.90713   0.00000  Uiso   1.00
H821   H     0.55552   0.21562   0.71824   0.00000  Uiso   1.00
H822   H     0.44448   0.11771   0.94842   0.00000  Uiso   1.00
N823   N     0.49999   0.16666   0.95240   0.00000  Uiso   1.00
N824   N     0.50001   0.16668   0.71427   0.00000  Uiso   1.00
O825   O     0.50000   0.10558   0.87154   0.00000  Uiso   1.00
O826   O     0.50000   0.22775   0.79513   0.00000  Uiso   1.00
O827   O     0.50000   0.10559   0.79510   0.00000  Uiso   1.00
O828   O     0.50000   0.22774   0.87157   0.00000  Uiso   1.00
O829   O     0.42392   0.16666   0.86261   0.00000  Uiso   1.00
O830   O     0.57608   0.16667   0.80405   0.00000  Uiso   1.00
O831   O     0.42392   0.16667   0.78617   0.00000  Uiso   1.00
O832   O     0.57608   0.16666   0.88050   0.00000  Uiso   1.00
Zn833  Zn    0.50000   0.16666   0.88437   0.00000  Uiso   1.00
Zn834  Zn    0.50000   0.16667   0.78229   0.00000  Uiso   1.00
C835   C     0.56667   0.22501   0.96362   0.00000  Uiso   1.00
H836   H     0.57398   0.22376   0.92910   0.00000  Uiso   1.00
O837   O     0.58901   0.25265   0.98829   0.00000  Uiso   1.00
C838   C     0.43331   0.10833   0.70304   0.00000  Uiso   1.00
H839   H     0.42602   0.10957   0.73756   0.00000  Uiso   1.00
O840   O     0.41096   0.08072   0.67837   0.00000  Uiso   1.00
C841   C     0.83330   0.08668   0.83320   0.00000  Uiso   1.00
C842   C     0.83336   0.24666   0.83347   0.00000  Uiso   1.00
C843   C     0.73371   0.16660   0.82130   0.00000  Uiso   1.00
C844   C     0.93295   0.16673   0.84537   0.00000  Uiso   1.00
C845   C     0.67853   0.16662   0.81493   0.00000  Uiso   1.00
C846   C     0.98813   0.16672   0.85173   0.00000  Uiso   1.00
C847   C     0.82889   0.02085   0.79176   0.00000  Uiso   1.00
C848   C     0.83778   0.31248   0.87491   0.00000  Uiso   1.00
C849   C     0.82885   0.31161   0.79190   0.00000  Uiso   1.00
C850   C     0.83782   0.02172   0.87477   0.00000  Uiso   1.00
C851   C     0.83330   0.29084   0.83348   0.00000  Uiso   1.00
C852   C     0.83337   0.04249   0.83319   0.00000  Uiso   1.00
C853   C     0.86423   0.19408   0.69567   0.00000  Uiso   1.00
C854   C     0.80243   0.13925   0.97100   0.00000  Uiso   1.00
C855   C     0.86469   0.19440   0.98120   0.00000  Uiso   1.00
C856   C     0.80197   0.13894   0.68547   0.00000  Uiso   1.00
H857   H     0.99095   0.16657   0.78011   0.00000  Uiso   1.00
H858   H     0.67572   0.16676   0.88656   0.00000  Uiso   1.00
H859   H     0.82529   0.03664   0.75938   0.00000  Uiso   1.00
H860   H     0.84138   0.29670   0.90729   0.00000  Uiso   1.00
H861   H     0.82521   0.29513   0.75953   0.00000  Uiso   1.00
H862   H     0.84146   0.03820   0.90713   0.00000  Uiso   1.00
H863   H     0.88885   0.21562   0.71824   0.00000  Uiso   1.00
H864   H     0.77781   0.11771   0.94842   0.00000  Uiso   1.00
N865   N     0.83332   0.16666   0.95240   0.00000  Uiso   1.00
N866   N     0.83335   0.16668   0.71427   0.00000  Uiso   1.00
O867   O     0.83333   0.10558   0.87154   0.00000  Uiso   1.00
O868   O     0.83334   0.22775   0.79513   0.00000  Uiso   1.00
O869   O     0.83333   0.10559   0.79510   0.00000  Uiso   1.00
O870   O     0.83334   0.22774   0.87157   0.00000  Uiso   1.00
O871   O     0.75725   0.16666   0.86261   0.00000  Uiso   1.00
O872   O     0.90942   0.16667   0.80405   0.00000  Uiso   1.00
O873   O     0.75725   0.16667   0.78617   0.00000  Uiso   1.00
O874   O     0.90942   0.16666   0.88050   0.00000  Uiso   1.00
Zn875  Zn    0.83333   0.16666   0.88437   0.00000  Uiso   1.00
Zn876  Zn    0.83333   0.16667   0.78229   0.00000  Uiso   1.00
C877   C     0.90001   0.22501   0.96362   0.00000  Uiso   1.00
H878   H     0.90731   0.22376   0.92910   0.00000  Uiso   1.00
O879   O     0.92234   0.25265   0.98829   0.00000  Uiso   1.00
C880   C     0.76665   0.10833   0.70304   0.00000  Uiso   1.00
H881   H     0.75936   0.10957   0.73756   0.00000  Uiso   1.00
O882   O     0.74429   0.08072   0.67837   0.00000  Uiso   1.00
C883   C     0.16664   0.42001   0.83320   0.00000  Uiso   1.00
C884   C     0.16670   0.57999   0.83347   0.00000  Uiso   1.00
C885   C     0.06705   0.49993   0.82130   0.00000  Uiso   1.00
C886   C     0.26629   0.50006   0.84537   0.00000  Uiso   1.00
C887   C     0.01187   0.49995   0.81493   0.00000  Uiso   1.00
C888   C     0.32147   0.50005   0.85173   0.00000  Uiso   1.00
C889   C     0.16222   0.35418   0.79176   0.00000  Uiso   1.00
C890   C     0.17111   0.64582   0.87491   0.00000  Uiso   1.00
C891   C     0.16218   0.64494   0.79190   0.00000  Uiso   1.00
C892   C     0.17115   0.35506   0.87477   0.00000  Uiso   1.00
C893   C     0.16664   0.62417   0.83348   0.00000  Uiso   1.00
C894   C     0.16670   0.37583   0.83319   0.00000  Uiso   1.00
C895   C     0.19757   0.52742   0.69567   0.00000  Uiso   1.00
C896   C     0.13577   0.47258   0.97100   0.00000  Uiso   1.00
C897   C     0.19802   0.52773   0.98120   0.00000  Uiso   1.00
C898   C     0.13531   0.47227   0.68547   0.00000  Uiso   1.00
H899   H     0.32428   0.49990   0.78011   0.00000  Uiso   1.00
H900   H     0.00905   0.50010   0.88656   0.00000  Uiso   1.00
H901   H     0.15862   0.36997   0.75938   0.00000  Uiso   1.00
H902   H     0.17471   0.63003   0.90729   0.00000  Uiso   1.00
H903   H     0.15855   0.62846   0.75953   0.00000  Uiso   1.00
H904   H     0.17479   0.37154   0.90713   0.00000  Uiso   1.00
H905   H     0.22219   0.54895   0.71824   0.00000  Uiso   1.00
H906   H     0.11114   0.45105   0.94842   0.00000  Uiso   1.00
N907   N     0.16665   0.49999   0.95240   0.00000  Uiso   1.00
N908   N     0.16668   0.50001   0.71427   0.00000  Uiso   1.00
O909   O     0.16666   0.43892   0.87154   0.00000  Uiso   1.00
O910   O     0.16667   0.56108   0.79513   0.00000  Uiso   1.00
O911   O     0.16666   0.43893   0.79510   0.00000  Uiso   1.00
O912   O     0.16667   0.56107   0.87157   0.00000  Uiso   1.00
O913   O     0.09058   0.50000   0.86261   0.00000  Uiso   1.00
O914   O     0.24275   0.50000   0.80405   0.00000  Uiso   1.00
O915   O     0.09058   0.50000   0.78617   0.00000  Uiso   1.00
O916   O     0.24275   0.50000   0.88050   0.00000  Uiso   1.00
Zn917  Zn    0.16667   0.49999   0.88437   0.00000  Uiso   1.00
Zn918  Zn    0.16667   0.50001   0.78229   0.00000  Uiso   1.00
C919   C     0.23334   0.55835   0.96362   0.00000  Uiso   1.00
H920   H     0.24065   0.55709   0.92910   0.00000  Uiso   1.00
O921   O     0.25567   0.58598   0.98829   0.00000  Uiso   1.00
C922   C     0.09998   0.44166   0.70304   0.00000  Uiso   1.00
H923   H     0.09269   0.44290   0.73756   0.00000  Uiso   1.00
O924   O     0.07762   0.41405   0.67837   0.00000  Uiso   1.00
C925   C     0.49997   0.42001   0.83320   0.00000  Uiso   1.00
C926   C     0.50003   0.57999   0.83347   0.00000  Uiso   1.00
C927   C     0.40038   0.49993   0.82130   0.00000  Uiso   1.00
C928   C     0.59962   0.50006   0.84537   0.00000  Uiso   1.00
C929   C     0.34520   0.49995   0.81493   0.00000  Uiso   1.00
C930   C     0.65480   0.50005   0.85173   0.00000  Uiso   1.00
C931   C     0.49556   0.35418   0.79176   0.00000  Uiso   1.00
C932   C     0.50444   0.64582   0.87491   0.00000  Uiso   1.00
C933   C     0.49552   0.64494   0.79190   0.00000  Uiso   1.00
C934   C     0.50449   0.35506   0.87477   0.00000  Uiso   1.00
C935   C     0.49997   0.62417   0.83348   0.00000  Uiso   1.00
C936   C     0.50003   0.37583   0.83319   0.00000  Uiso   1.00
C937   C     0.53090   0.52742   0.69567   0.00000  Uiso   1.00
C938   C     0.46910   0.47258   0.97100   0.00000  Uiso   1.00
C939   C     0.53136   0.52773   0.98120   0.00000  Uiso   1.00
C940   C     0.46864   0.47227   0.68547   0.00000  Uiso   1.00
H941   H     0.65762   0.49990   0.78011   0.00000  Uiso   1.00
H942   H     0.34238   0.50010   0.88656   0.00000  Uiso   1.00
H943   H     0.49196   0.36997   0.75938   0.00000  Uiso   1.00
H944   H     0.50805   0.63003   0.90729   0.00000  Uiso   1.00
H945   H     0.49188   0.62846   0.75953   0.00000  Uiso   1.00
H946   H     0.50812   0.37154   0.90713   0.00000  Uiso   1.00
H947   H     0.55552   0.54895   0.71824   0.00000  Uiso   1.00
H948   H     0.44448   0.45105   0.94842   0.00000  Uiso   1.00
N949   N     0.49999   0.49999   0.95240   0.00000  Uiso   1.00
N950   N     0.50001   0.50001   0.71427   0.00000  Uiso   1.00
O951   O     0.50000   0.43892   0.87154   0.00000  Uiso   1.00
O952   O     0.50000   0.56108   0.79513   0.00000  Uiso   1.00
O953   O     0.50000   0.43893   0.79510   0.00000  Uiso   1.00
O954   O     0.50000   0.56107   0.87157   0.00000  Uiso   1.00
O955   O     0.42392   0.50000   0.86261   0.00000  Uiso   1.00
O956   O     0.57608   0.50000   0.80405   0.00000  Uiso   1.00
O957   O     0.42392   0.50000   0.78617   0.00000  Uiso   1.00
O958   O     0.57608   0.50000   0.88050   0.00000  Uiso   1.00
Zn959  Zn    0.50000   0.49999   0.88437   0.00000  Uiso   1.00
Zn960  Zn    0.50000   0.50001   0.78229   0.00000  Uiso   1.00
C961   C     0.56667   0.55835   0.96362   0.00000  Uiso   1.00
H962   H     0.57398   0.55709   0.92910   0.00000  Uiso   1.00
O963   O     0.58901   0.58598   0.98829   0.00000  Uiso   1.00
C964   C     0.43331   0.44166   0.70304   0.00000  Uiso   1.00
H965   H     0.42602   0.44290   0.73756   0.00000  Uiso   1.00
O966   O     0.41096   0.41405   0.67837   0.00000  Uiso   1.00
C967   C     0.83330   0.42001   0.83320   0.00000  Uiso   1.00
C968   C     0.83336   0.57999   0.83347   0.00000  Uiso   1.00
C969   C     0.73371   0.49993   0.82130   0.00000  Uiso   1.00
C970   C     0.93295   0.50006   0.84537   0.00000  Uiso   1.00
C971   C     0.67853   0.49995   0.81493   0.00000  Uiso   1.00
C972   C     0.98813   0.50005   0.85173   0.00000  Uiso   1.00
C973   C     0.82889   0.35418   0.79176   0.00000  Uiso   1.00
C974   C     0.83778   0.64582   0.87491   0.00000  Uiso   1.00
C975   C     0.82885   0.64494   0.79190   0.00000  Uiso   1.00
C976   C     0.83782   0.35506   0.87477   0.00000  Uiso   1.00
C977   C     0.83330   0.62417   0.83348   0.00000  Uiso   1.00
C978   C     0.83337   0.37583   0.83319   0.00000  Uiso   1.00
C979   C     0.86423   0.52742   0.69567   0.00000  Uiso   1.00
C980   C     0.80243   0.47258   0.97100   0.00000  Uiso   1.00
C981   C     0.86469   0.52773   0.98120   0.00000  Uiso   1.00
C982   C     0.80197   0.47227   0.68547   0.00000  Uiso   1.00
H983   H     0.99095   0.49990   0.78011   0.00000  Uiso   1.00
H984   H     0.67572   0.50010   0.88656   0.00000  Uiso   1.00
H985   H     0.82529   0.36997   0.75938   0.00000  Uiso   1.00
H986   H     0.84138   0.63003   0.90729   0.00000  Uiso   1.00
H987   H     0.82521   0.62846   0.75953   0.00000  Uiso   1.00
H988   H     0.84146   0.37154   0.90713   0.00000  Uiso   1.00
H989   H     0.88885   0.54895   0.71824   0.00000  Uiso   1.00
H990   H     0.77781   0.45105   0.94842   0.00000  Uiso   1.00
N991   N     0.83332   0.49999   0.95240   0.00000  Uiso   1.00
N992   N     0.83335   0.50001   0.71427   0.00000  Uiso   1.00
O993   O     0.83333   0.43892   0.87154   0.00000  Uiso   1.00
O994   O     0.83334   0.56108   0.79513   0.00000  Uiso   1.00
O995   O     0.83333   0.43893   0.79510   0.00000  Uiso   1.00
O996   O     0.83334   0.56107   0.87157   0.00000  Uiso   1.00
O997   O     0.75725   0.50000   0.86261   0.00000  Uiso   1.00
O998   O     0.90942   0.50000   0.80405   0.00000  Uiso   1.00
O999   O     0.75725   0.50000   0.78617   0.00000  Uiso   1.00
O1000  O     0.90942   0.50000   0.88050   0.00000  Uiso   1.00
Zn1001 Zn    0.83333   0.49999   0.88437   0.00000  Uiso   1.00
Zn1002 Zn    0.83333   0.50001   0.78229   0.00000  Uiso   1.00
C1003  C     0.90001   0.55835   0.96362   0.00000  Uiso   1.00
H1004  H     0.90731   0.55709   0.92910   0.00000  Uiso   1.00
O1005  O     0.92234   0.58598   0.98829   0.00000  Uiso   1.00
C1006  C     0.76665   0.44166   0.70304   0.00000  Uiso   1.00
H1007  H     0.75936   0.44290   0.73756   0.00000  Uiso   1.00
O1008  O     0.74429   0.41405   0.67837   0.00000  Uiso   1.00
C1009  C     0.16664   0.75334   0.83320   0.00000  Uiso   1.00
C1010  C     0.16670   0.91332   0.83347   0.00000  Uiso   1.00
C1011  C     0.06705   0.83327   0.82130   0.00000  Uiso   1.00
C1012  C     0.26629   0.83340   0.84537   0.00000  Uiso   1.00
C1013  C     0.01187   0.83328   0.81493   0.00000  Uiso   1.00
C1014  C     0.32147   0.83338   0.85173   0.00000  Uiso   1.00
C1015  C     0.16222   0.68752   0.79176   0.00000  Uiso   1.00
C1016  C     0.17111   0.97915   0.87491   0.00000  Uiso   1.00
C1017  C     0.16218   0.97828   0.79190   0.00000  Uiso   1.00
C1018  C     0.17115   0.68839   0.87477   0.00000  Uiso   1.00
C1019  C     0.16664   0.95751   0.83348   0.00000  Uiso   1.00
C1020  C     0.16670   0.70916   0.83319   0.00000  Uiso   1.00
C1021  C     0.19757   0.86075   0.69567   0.00000  Uiso   1.00
C1022  C     0.13577   0.80592   0.97100   0.00000  Uiso   1.00
C1023  C     0.19802   0.86106   0.98120   0.00000  Uiso   1.00
C1024  C     0.13531   0.80561   0.68547   0.00000  Uiso   1.00
H1025  H     0.32428   0.83323   0.78011   0.00000  Uiso   1.00
H1026  H     0.00905   0.83343   0.88656   0.00000  Uiso   1.00
H1027  H     0.15862   0.70330   0.75938   0.00000  Uiso   1.00
H1028  H     0.17471   0.96336   0.90729   0.00000  Uiso   1.00
H1029  H     0.15855   0.96180   0.75953   0.00000  Uiso   1.00
H1030  H     0.17479   0.70487   0.90713   0.00000  Uiso   1.00
H1031  H     0.22219   0.88229   0.71824   0.00000  Uiso   1.00
H1032  H     0.11114   0.78438   0.94842   0.00000  Uiso   1.00
N1033  N     0.16665   0.83332   0.95240   0.00000  Uiso   1.00
N1034  N     0.16668   0.83334   0.71427   0.00000  Uiso   1.00
O1035  O     0.16666   0.77225   0.87154   0.00000  Uiso   1.00
O1036  O     0.16667   0.89442   0.79513   0.00000  Uiso   1.00
O1037  O     0.16666   0.77226   0.79510   0.00000  Uiso   1.00
O1038  O     0.16667   0.89441   0.87157   0.00000  Uiso   1.00
O1039  O     0.09058   0.83333   0.86261   0.00000  Uiso   1.00
O1040  O     0.24275   0.83334   0.80405   0.00000  Uiso   1.00
O1041  O     0.09058   0.83334   0.78617   0.00000  Uiso   1.00
O1042  O     0.24275   0.83333   0.88050   0.00000  Uiso   1.00
Zn1043 Zn    0.16667   0.83333   0.88437   0.00000  Uiso   1.00
Zn1044 Zn    0.16667   0.83334   0.78229   0.00000  Uiso   1.00
C1045  C     0.23334   0.89168   0.96362   0.00000  Uiso   1.00
H1046  H     0.24065   0.89042   0.92910   0.00000  Uiso   1.00
O1047  O     0.25567   0.91932   0.98829   0.00000  Uiso   1.00
C1048  C     0.09998   0.77500   0.70304   0.00000  Uiso   1.00
H1049  H     0.09269   0.77624   0.73756   0.00000  Uiso   1.00
O1050  O     0.07762   0.74739   0.67837   0.00000  Uiso   1.00
C1051  C     0.49997   0.75334   0.83320   0.00000  Uiso   1.00
C1052  C     0.50003   0.91332   0.83347   0.00000  Uiso   1.00
C1053  C     0.40038   0.83327   0.82130   0.00000  Uiso   1.00
C1054  C     0.59962   0.83340   0.84537   0.00000  Uiso   1.00
C1055  C     0.34520   0.83328   0.81493   0.00000  Uiso   1.00
C1056  C     0.65480   0.83338   0.85173   0.00000  Uiso   1.00
C1057  C     0.49556   0.68752   0.79176   0.00000  Uiso   1.00
C1058  C     0.50444   0.97915   0.87491   0.00000  Uiso   1.00
C1059  C     0.49552   0.97828   0.79190   0.00000  Uiso   1.00
C1060  C     0.50449   0.68839   0.87477   0.00000  Uiso   1.00
C1061  C     0.49997   0.95751   0.83348   0.00000  Uiso   1.00
C1062  C     0.50003   0.70916   0.83319   0.00000  Uiso   1.00
C1063  C     0.53090   0.86075   0.69567   0.00000  Uiso   1.00
C1064  C     0.46910   0.80592   0.97100   0.00000  Uiso   1.00
C1065  C     0.53136   0.86106   0.98120   0.00000  Uiso   1.00
C1066  C     0.46864   0.80561   0.68547   0.00000  Uiso   1.00
H1067  H     0.65762   0.83323   0.78011   0.00000  Uiso   1.00
H1068  H     0.34238   0.83343   0.88656   0.00000  Uiso   1.00
H1069  H     0.49196   0.70330   0.75938   0.00000  Uiso   1.00
H1070  H     0.50805   0.96336   0.90729   0.00000  Uiso   1.00
H1071  H     0.49188   0.96180   0.75953   0.00000  Uiso   1.00
H1072  H     0.50812   0.70487   0.90713   0.00000  Uiso   1.00
H1073  H     0.55552   0.88229   0.71824   0.00000  Uiso   1.00
H1074  H     0.44448   0.78438   0.94842   0.00000  Uiso   1.00
N1075  N     0.49999   0.83332   0.95240   0.00000  Uiso   1.00
N1076  N     0.50001   0.83334   0.71427   0.00000  Uiso   1.00
O1077  O     0.50000   0.77225   0.87154   0.00000  Uiso   1.00
O1078  O     0.50000   0.89442   0.79513   0.00000  Uiso   1.00
O1079  O     0.50000   0.77226   0.79510   0.00000  Uiso   1.00
O1080  O     0.50000   0.89441   0.87157   0.00000  Uiso   1.00
O1081  O     0.42392   0.83333   0.86261   0.00000  Uiso   1.00
O1082  O     0.57608   0.83334   0.80405   0.00000  Uiso   1.00
O1083  O     0.42392   0.83334   0.78617   0.00000  Uiso   1.00
O1084  O     0.57608   0.83333   0.88050   0.00000  Uiso   1.00
Zn1085 Zn    0.50000   0.83333   0.88437   0.00000  Uiso   1.00
Zn1086 Zn    0.50000   0.83334   0.78229   0.00000  Uiso   1.00
C1087  C     0.56667   0.89168   0.96362   0.00000  Uiso   1.00
H1088  H     0.57398   0.89042   0.92910   0.00000  Uiso   1.00
O1089  O     0.58901   0.91932   0.98829   0.00000  Uiso   1.00
C1090  C     0.43331   0.77500   0.70304   0.00000  Uiso   1.00
H1091  H     0.42602   0.77624   0.73756   0.00000  Uiso   1.00
O1092  O     0.41096   0.74739   0.67837   0.00000  Uiso   1.00
C1093  C     0.83330   0.75334   0.83320   0.00000  Uiso   1.00
C1094  C     0.83336   0.91332   0.83347   0.00000  Uiso   1.00
C1095  C     0.73371   0.83327   0.82130   0.00000  Uiso   1.00
C1096  C     0.93295   0.83340   0.84537   0.00000  Uiso   1.00
C1097  C     0.67853   0.83328   0.81493   0.00000  Uiso   1.00
C1098  C     0.98813   0.83338   0.85173   0.00000  Uiso   1.00
C1099  C     0.82889   0.68752   0.79176   0.00000  Uiso   1.00
C1100  C     0.83778   0.97915   0.87491   0.00000  Uiso   1.00
C1101  C     0.82885   0.97828   0.79190   0.00000  Uiso   1.00
C1102  C     0.83782   0.68839   0.87477   0.00000  Uiso   1.00
C1103  C     0.83330   0.95751   0.83348   0.00000  Uiso   1.00
C1104  C     0.83337   0.70916   0.83319   0.00000  Uiso   1.00
C1105  C     0.86423   0.86075   0.69567   0.00000  Uiso   1.00
C1106  C     0.80243   0.80592   0.97100   0.00000  Uiso   1.00
C1107  C     0.86469   0.86106   0.98120   0.00000  Uiso   1.00
C1108  C     0.80197   0.80561   0.68547   0.00000  Uiso   1.00
H1109  H     0.99095   0.83323   0.78011   0.00000  Uiso   1.00
H1110  H     0.67572   0.83343   0.88656   0.00000  Uiso   1.00
H1111  H     0.82529   0.70330   0.75938   0.00000  Uiso   1.00
H1112  H     0.84138   0.96336   0.90729   0.00000  Uiso   1.00
H1113  H     0.82521   0.96180   0.75953   0.00000  Uiso   1.00
H1114  H     0.84146   0.70487   0.90713   0.00000  Uiso   1.00
H1115  H     0.88885   0.88229   0.71824   0.00000  Uiso   1.00
H1116  H     0.77781   0.78438   0.94842   0.00000  Uiso   1.00
N1117  N     0.83332   0.83332   0.95240   0.00000  Uiso   1.00
N1118  N     0.83335   0.83334   0.71427   0.00000  Uiso   1.00
O1119  O     0.83333   0.77225   0.87154   0.00000  Uiso   1.00
O1120  O     0.83334   0.89442   0.79513   0.00000  Uiso   1.00
O1121  O     0.83333   0.77226   0.79510   0.00000  Uiso   1.00
O1122  O     0.83334   0.89441   0.87157   0.00000  Uiso   1.00
O1123  O     0.75725   0.83333   0.86261   0.00000  Uiso   1.00
O1124  O     0.90942   0.83334   0.80405   0.00000  Uiso   1.00
O1125  O     0.75725   0.83334   0.78617   0.00000  Uiso   1.00
O1126  O     0.90942   0.83333   0.88050   0.00000  Uiso   1.00
Zn1127 Zn    0.83333   0.83333   0.88437   0.00000  Uiso   1.00
Zn1128 Zn    0.83333   0.83334   0.78229   0.00000  Uiso   1.00
C1129  C     0.90001   0.89168   0.96362   0.00000  Uiso   1.00
H1130  H     0.90731   0.89042   0.92910   0.00000  Uiso   1.00
O1131  O     0.92234   0.91932   0.98829   0.00000  Uiso   1.00
C1132  C     0.76665   0.77500   0.70304   0.00000  Uiso   1.00
H1133  H     0.75936   0.77624   0.73756   0.00000  Uiso   1.00
O1134  O     0.74429   0.74739   0.67837   0.00000  Uiso   1.00
loop_
_geom_bond_atom_site_label_1
_geom_bond_atom_site_label_2
_geom_bond_distance
_geom_bond_site_symmetry_2
_ccdc_geom_bond_type
C1     O29     1.290   .     A
C1     C12     1.422   .     S
C1     O27     1.286   .     A
C2     O30     1.290   .     A
C2     C11     1.422   .     S
C2     O28     1.286   .     A
C3     O31     1.280   .     A
C3     O33     1.287   .     A
C3     C5      1.405   .     S
C4     O34     1.287   .     A
C4     O32     1.280   .     A
C4     C6      1.405   .     S
C5     C90     1.334   1_455 S
C5     H101    1.088   1_455 S
C6     C47     1.334   .     S
C6     H60     1.088   .     S
C7     H19     1.083   .     S
C7     C12     1.396   .     A
C7     C261    1.370   1_545 S
C8     H20     1.083   .     S
C8     C11     1.396   .     A
C8     C136    1.370   .     S
C9     C11     1.399   .     A
C9     H21     1.083   .     S
C9     C133    1.370   .     S
C10    H22     1.083   .     S
C10    C12     1.399   .     A
C10    C260    1.370   1_545 S
C13    H23     1.082   .     S
C13    N26     1.355   .     A
C13    C771    1.422   1_554 S
C14    N25     1.355   .     A
C14    H24     1.082   .     S
C14    C394    1.422   .     S
C15    N25     1.386   .     A
C15    C37     1.482   .     S
C15    C391    1.422   .     S
C16    C40     1.482   .     S
C16    N26     1.386   .     A
C16    C770    1.422   1_554 S
H17    C47     1.088   .     S
H18    C90     1.088   1_455 S
N25    Zn35    2.020   .     S
N26    Zn36    2.020   .     S
O27    Zn35    1.998   .     S
O28    Zn36    1.998   .     S
O29    Zn36    2.005   .     S
O30    Zn35    2.005   .     S
O31    Zn35    1.965   .     S
O32    Zn36    1.965   .     S
O33    Zn36    1.983   .     S
O34    Zn35    1.983   .     S
C37    H38     1.072   .     S
C37    O39     1.222   .     D
C40    O42     1.222   .     D
C40    H41     1.072   .     S
C43    O71     1.290   .     A
C43    C54     1.422   .     S
C43    O69     1.286   .     A
C44    O72     1.290   .     A
C44    C53     1.422   .     S
C44    O70     1.286   .     A
C45    O73     1.280   .     A
C45    O75     1.287   .     A
C45    C47     1.405   .     S
C46    O76     1.287   .     A
C46    O74     1.280   .     A
C46    C48     1.405   .     S
C48    C89     1.334   .     S
C48    H102    1.088   .     S
C49    H61     1.083   .     S
C49    C54     1.396   .     A
C49    C303    1.370   1_545 S
C50    H62     1.083   .     S
C50    C53     1.396   .     A
C50    C178    1.370   .     S
C51    C53     1.399   .     A
C51    H63     1.083   .     S
C51    C175    1.370   .     S
C52    H64     1.083   .     S
C52    C54     1.399   .     A
C52    C302    1.370   1_545 S
C55    H65     1.082   .     S
C55    N68     1.355   .     A
C55    C813    1.422   1_554 S
C56    N67     1.355   .     A
C56    H66     1.082   .     S
C56    C436    1.422   .     S
C57    N67     1.386   .     A
C57    C79     1.482   .     S
C57    C433    1.422   .     S
C58    C82     1.482   .     S
C58    N68     1.386   .     A
C58    C812    1.422   1_554 S
H59    C89     1.088   .     S
N67    Zn77    2.020   .     S
N68    Zn78    2.020   .     S
O69    Zn77    1.998   .     S
O70    Zn78    1.998   .     S
O71    Zn78    2.005   .     S
O72    Zn77    2.005   .     S
O73    Zn77    1.965   .     S
O74    Zn78    1.965   .     S
O75    Zn78    1.983   .     S
O76    Zn77    1.983   .     S
C79    H80     1.072   .     S
C79    O81     1.222   .     D
C82    O84     1.222   .     D
C82    H83     1.072   .     S
C85    O113    1.290   .     A
C85    C96     1.422   .     S
C85    O111    1.286   .     A
C86    O114    1.290   .     A
C86    C95     1.422   .     S
C86    O112    1.286   .     A
C87    O115    1.280   .     A
C87    O117    1.287   .     A
C87    C89     1.405   .     S
C88    O118    1.287   .     A
C88    O116    1.280   .     A
C88    C90     1.405   .     S
C90    C5      1.334   1_655 S
C90    H18     1.088   1_655 S
C91    H103    1.083   .     S
C91    C96     1.396   .     A
C91    C345    1.370   1_545 S
C92    H104    1.083   .     S
C92    C95     1.396   .     A
C92    C220    1.370   .     S
C93    C95     1.399   .     A
C93    H105    1.083   .     S
C93    C217    1.370   .     S
C94    H106    1.083   .     S
C94    C96     1.399   .     A
C94    C344    1.370   1_545 S
C97    H107    1.082   .     S
C97    N110    1.355   .     A
C97    C855    1.422   1_554 S
C98    N109    1.355   .     A
C98    H108    1.082   .     S
C98    C478    1.422   .     S
C99    N109    1.386   .     A
C99    C121    1.482   .     S
C99    C475    1.422   .     S
C100   C124    1.482   .     S
C100   N110    1.386   .     A
C100   C854    1.422   1_554 S
H101   C5      1.088   1_655 S
N109   Zn119   2.020   .     S
N110   Zn120   2.020   .     S
O111   Zn119   1.998   .     S
O112   Zn120   1.998   .     S
O113   Zn120   2.005   .     S
O114   Zn119   2.005   .     S
O115   Zn119   1.965   .     S
O116   Zn120   1.965   .     S
O117   Zn120   1.983   .     S
O118   Zn119   1.983   .     S
C121   H122    1.072   .     S
C121   O123    1.222   .     D
C124   O126    1.222   .     D
C124   H125    1.072   .     S
C127   O155    1.290   .     A
C127   C138    1.422   .     S
C127   O153    1.286   .     A
C128   O156    1.290   .     A
C128   C137    1.422   .     S
C128   O154    1.286   .     A
C129   O157    1.280   .     A
C129   O159    1.287   .     A
C129   C131    1.405   .     S
C130   O160    1.287   .     A
C130   O158    1.280   .     A
C130   C132    1.405   .     S
C131   C216    1.334   1_455 S
C131   H227    1.088   1_455 S
C132   C173    1.334   .     S
C132   H186    1.088   .     S
C133   H145    1.083   .     S
C133   C138    1.396   .     A
C134   H146    1.083   .     S
C134   C137    1.396   .     A
C134   C262    1.370   .     S
C135   C137    1.399   .     A
C135   H147    1.083   .     S
C135   C259    1.370   .     S
C136   H148    1.083   .     S
C136   C138    1.399   .     A
C139   H149    1.082   .     S
C139   N152    1.355   .     A
C139   C897    1.422   1_554 S
C140   N151    1.355   .     A
C140   H150    1.082   .     S
C140   C520    1.422   .     S
C141   N151    1.386   .     A
C141   C163    1.482   .     S
C141   C517    1.422   .     S
C142   C166    1.482   .     S
C142   N152    1.386   .     A
C142   C896    1.422   1_554 S
H143   C173    1.088   .     S
H144   C216    1.088   1_455 S
N151   Zn161   2.020   .     S
N152   Zn162   2.020   .     S
O153   Zn161   1.998   .     S
O154   Zn162   1.998   .     S
O155   Zn162   2.005   .     S
O156   Zn161   2.005   .     S
O157   Zn161   1.965   .     S
O158   Zn162   1.965   .     S
O159   Zn162   1.983   .     S
O160   Zn161   1.983   .     S
C163   H164    1.072   .     S
C163   O165    1.222   .     D
C166   O168    1.222   .     D
C166   H167    1.072   .     S
C169   O197    1.290   .     A
C169   C180    1.422   .     S
C169   O195    1.286   .     A
C170   O198    1.290   .     A
C170   C179    1.422   .     S
C170   O196    1.286   .     A
C171   O199    1.280   .     A
C171   O201    1.287   .     A
C171   C173    1.405   .     S
C172   O202    1.287   .     A
C172   O200    1.280   .     A
C172   C174    1.405   .     S
C174   C215    1.334   .     S
C174   H228    1.088   .     S
C175   H187    1.083   .     S
C175   C180    1.396   .     A
C176   H188    1.083   .     S
C176   C179    1.396   .     A
C176   C304    1.370   .     S
C177   C179    1.399   .     A
C177   H189    1.083   .     S
C177   C301    1.370   .     S
C178   H190    1.083   .     S
C178   C180    1.399   .     A
C181   H191    1.082   .     S
C181   N194    1.355   .     A
C181   C939    1.422   1_554 S
C182   N193    1.355   .     A
C182   H192    1.082   .     S
C182   C562    1.422   .     S
C183   N193    1.386   .     A
C183   C205    1.482   .     S
C183   C559    1.422   .     S
C184   C208    1.482   .     S
C184   N194    1.386   .     A
C184   C938    1.422   1_554 S
H185   C215    1.088   .     S
N193   Zn203   2.020   .     S
N194   Zn204   2.020   .     S
O195   Zn203   1.998   .     S
O196   Zn204   1.998   .     S
O197   Zn204   2.005   .     S
O198   Zn203   2.005   .     S
O199   Zn203   1.965   .     S
O200   Zn204   1.965   .     S
O201   Zn204   1.983   .     S
O202   Zn203   1.983   .     S
C205   H206    1.072   .     S
C205   O207    1.222   .     D
C208   O210    1.222   .     D
C208   H209    1.072   .     S
C211   O239    1.290   .     A
C211   C222    1.422   .     S
C211   O237    1.286   .     A
C212   O240    1.290   .     A
C212   C221    1.422   .     S
C212   O238    1.286   .     A
C213   O241    1.280   .     A
C213   O243    1.287   .     A
C213   C215    1.405   .     S
C214   O244    1.287   .     A
C214   O242    1.280   .     A
C214   C216    1.405   .     S
C216   C131    1.334   1_655 S
C216   H144    1.088   1_655 S
C217   H229    1.083   .     S
C217   C222    1.396   .     A
C218   H230    1.083   .     S
C218   C221    1.396   .     A
C218   C346    1.370   .     S
C219   C221    1.399   .     A
C219   H231    1.083   .     S
C219   C343    1.370   .     S
C220   H232    1.083   .     S
C220   C222    1.399   .     A
C223   H233    1.082   .     S
C223   N236    1.355   .     A
C223   C981    1.422   1_554 S
C224   N235    1.355   .     A
C224   H234    1.082   .     S
C224   C604    1.422   .     S
C225   N235    1.386   .     A
C225   C247    1.482   .     S
C225   C601    1.422   .     S
C226   C250    1.482   .     S
C226   N236    1.386   .     A
C226   C980    1.422   1_554 S
H227   C131    1.088   1_655 S
N235   Zn245   2.020   .     S
N236   Zn246   2.020   .     S
O237   Zn245   1.998   .     S
O238   Zn246   1.998   .     S
O239   Zn246   2.005   .     S
O240   Zn245   2.005   .     S
O241   Zn245   1.965   .     S
O242   Zn246   1.965   .     S
O243   Zn246   1.983   .     S
O244   Zn245   1.983   .     S
C247   H248    1.072   .     S
C247   O249    1.222   .     D
C250   O252    1.222   .     D
C250   H251    1.072   .     S
C253   O281    1.290   .     A
C253   C264    1.422   .     S
C253   O279    1.286   .     A
C254   O282    1.290   .     A
C254   C263    1.422   .     S
C254   O280    1.286   .     A
C255   O283    1.280   .     A
C255   O285    1.287   .     A
C255   C257    1.405   .     S
C256   O286    1.287   .     A
C256   O284    1.280   .     A
C256   C258    1.405   .     S
C257   C342    1.334   1_455 S
C257   H353    1.088   1_455 S
C258   C299    1.334   .     S
C258   H312    1.088   .     S
C259   H271    1.083   .     S
C259   C264    1.396   .     A
C260   H272    1.083   .     S
C260   C263    1.396   .     A
C260   C10     1.370   1_565 S
C261   C263    1.399   .     A
C261   H273    1.083   .     S
C261   C7      1.370   1_565 S
C262   H274    1.083   .     S
C262   C264    1.399   .     A
C265   H275    1.082   .     S
C265   N278    1.355   .     A
C265   C1023   1.422   1_554 S
C266   N277    1.355   .     A
C266   H276    1.082   .     S
C266   C646    1.422   .     S
C267   N277    1.386   .     A
C267   C289    1.482   .     S
C267   C643    1.422   .     S
C268   C292    1.482   .     S
C268   N278    1.386   .     A
C268   C1022   1.422   1_554 S
H269   C299    1.088   .     S
H270   C342    1.088   1_455 S
N277   Zn287   2.020   .     S
N278   Zn288   2.020   .     S
O279   Zn287   1.998   .     S
O280   Zn288   1.998   .     S
O281   Zn288   2.005   .     S
O282   Zn287   2.005   .     S
O283   Zn287   1.965   .     S
O284   Zn288   1.965   .     S
O285   Zn288   1.983   .     S
O286   Zn287   1.983   .     S
C289   H290    1.072   .     S
C289   O291    1.222   .     D
C292   O294    1.222   .     D
C292   H293    1.072   .     S
C295   O323    1.290   .     A
C295   C306    1.422   .     S
C295   O321    1.286   .     A
C296   O324    1.290   .     A
C296   C305    1.422   .     S
C296   O322    1.286   .     A
C297   O325    1.280   .     A
C297   O327    1.287   .     A
C297   C299    1.405   .     S
C298   O328    1.287   .     A
C298   O326    1.280   .     A
C298   C300    1.405   .     S
C300   C341    1.334   .     S
C300   H354    1.088   .     S
C301   H313    1.083   .     S
C301   C306    1.396   .     A
C302   H314    1.083   .     S
C302   C305    1.396   .     A
C302   C52     1.370   1_565 S
C303   C305    1.399   .     A
C303   H315    1.083   .     S
C303   C49     1.370   1_565 S
C304   H316    1.083   .     S
C304   C306    1.399   .     A
C307   H317    1.082   .     S
C307   N320    1.355   .     A
C307   C1065   1.422   1_554 S
C308   N319    1.355   .     A
C308   H318    1.082   .     S
C308   C688    1.422   .     S
C309   N319    1.386   .     A
C309   C331    1.482   .     S
C309   C685    1.422   .     S
C310   C334    1.482   .     S
C310   N320    1.386   .     A
C310   C1064   1.422   1_554 S
H311   C341    1.088   .     S
N319   Zn329   2.020   .     S
N320   Zn330   2.020   .     S
O321   Zn329   1.998   .     S
O322   Zn330   1.998   .     S
O323   Zn330   2.005   .     S
O324   Zn329   2.005   .     S
O325   Zn329   1.965   .     S
O326   Zn330   1.965   .     S
O327   Zn330   1.983   .     S
O328   Zn329   1.983   .     S
C331   H332    1.072   .     S
C331   O333    1.222   .     D
C334   O336    1.222   .     D
C334   H335    1.072   .     S
C337   O365    1.290   .     A
C337   C348    1.422   .     S
C337   O363    1.286   .     A
C338   O366    1.290   .     A
C338   C347    1.422   .     S
C338   O364    1.286   .     A
C339   O367    1.280   .     A
C339   O369    1.287   .     A
C339   C341    1.405   .     S
C340   O370    1.287   .     A
C340   O368    1.280   .     A
C340   C342    1.405   .     S
C342   C257    1.334   1_655 S
C342   H270    1.088   1_655 S
C343   H355    1.083   .     S
C343   C348    1.396   .     A
C344   H356    1.083   .     S
C344   C347    1.396   .     A
C344   C94     1.370   1_565 S
C345   C347    1.399   .     A
C345   H357    1.083   .     S
C345   C91     1.370   1_565 S
C346   H358    1.083   .     S
C346   C348    1.399   .     A
C349   H359    1.082   .     S
C349   N362    1.355   .     A
C349   C1107   1.422   1_554 S
C350   N361    1.355   .     A
C350   H360    1.082   .     S
C350   C730    1.422   .     S
C351   N361    1.386   .     A
C351   C373    1.482   .     S
C351   C727    1.422   .     S
C352   C376    1.482   .     S
C352   N362    1.386   .     A
C352   C1106   1.422   1_554 S
H353   C257    1.088   1_655 S
N361   Zn371   2.020   .     S
N362   Zn372   2.020   .     S
O363   Zn371   1.998   .     S
O364   Zn372   1.998   .     S
O365   Zn372   2.005   .     S
O366   Zn371   2.005   .     S
O367   Zn371   1.965   .     S
O368   Zn372   1.965   .     S
O369   Zn372   1.983   .     S
O370   Zn371   1.983   .     S
C373   H374    1.072   .     S
C373   O375    1.222   .     D
C376   O378    1.222   .     D
C376   H377    1.072   .     S
C379   O407    1.290   .     A
C379   C390    1.422   .     S
C379   O405    1.286   .     A
C380   O408    1.290   .     A
C380   C389    1.422   .     S
C380   O406    1.286   .     A
C381   O409    1.280   .     A
C381   O411    1.287   .     A
C381   C383    1.405   .     S
C382   O412    1.287   .     A
C382   O410    1.280   .     A
C382   C384    1.405   .     S
C383   C468    1.334   1_455 S
C383   H479    1.088   1_455 S
C384   C425    1.334   .     S
C384   H438    1.088   .     S
C385   H397    1.083   .     S
C385   C390    1.396   .     A
C385   C639    1.370   1_545 S
C386   H398    1.083   .     S
C386   C389    1.396   .     A
C386   C514    1.370   .     S
C387   C389    1.399   .     A
C387   H399    1.083   .     S
C387   C511    1.370   .     S
C388   H400    1.083   .     S
C388   C390    1.399   .     A
C388   C638    1.370   1_545 S
C391   H401    1.082   .     S
C391   N404    1.355   .     A
C392   N403    1.355   .     A
C392   H402    1.082   .     S
C392   C772    1.422   .     S
C393   N403    1.386   .     A
C393   C415    1.482   .     S
C393   C769    1.422   .     S
C394   C418    1.482   .     S
C394   N404    1.386   .     A
H395   C425    1.088   .     S
H396   C468    1.088   1_455 S
N403   Zn413   2.020   .     S
N404   Zn414   2.020   .     S
O405   Zn413   1.998   .     S
O406   Zn414   1.998   .     S
O407   Zn414   2.005   .     S
O408   Zn413   2.005   .     S
O409   Zn413   1.965   .     S
O410   Zn414   1.965   .     S
O411   Zn414   1.983   .     S
O412   Zn413   1.983   .     S
C415   H416    1.072   .     S
C415   O417    1.222   .     D
C418   O420    1.222   .     D
C418   H419    1.072   .     S
C421   O449    1.290   .     A
C421   C432    1.422   .     S
C421   O447    1.286   .     A
C422   O450    1.290   .     A
C422   C431    1.422   .     S
C422   O448    1.286   .     A
C423   O451    1.280   .     A
C423   O453    1.287   .     A
C423   C425    1.405   .     S
C424   O454    1.287   .     A
C424   O452    1.280   .     A
C424   C426    1.405   .     S
C426   C467    1.334   .     S
C426   H480    1.088   .     S
C427   H439    1.083   .     S
C427   C432    1.396   .     A
C427   C681    1.370   1_545 S
C428   H440    1.083   .     S
C428   C431    1.396   .     A
C428   C556    1.370   .     S
C429   C431    1.399   .     A
C429   H441    1.083   .     S
C429   C553    1.370   .     S
C430   H442    1.083   .     S
C430   C432    1.399   .     A
C430   C680    1.370   1_545 S
C433   H443    1.082   .     S
C433   N446    1.355   .     A
C434   N445    1.355   .     A
C434   H444    1.082   .     S
C434   C814    1.422   .     S
C435   N445    1.386   .     A
C435   C457    1.482   .     S
C435   C811    1.422   .     S
C436   C460    1.482   .     S
C436   N446    1.386   .     A
H437   C467    1.088   .     S
N445   Zn455   2.020   .     S
N446   Zn456   2.020   .     S
O447   Zn455   1.998   .     S
O448   Zn456   1.998   .     S
O449   Zn456   2.005   .     S
O450   Zn455   2.005   .     S
O451   Zn455   1.965   .     S
O452   Zn456   1.965   .     S
O453   Zn456   1.983   .     S
O454   Zn455   1.983   .     S
C457   H458    1.072   .     S
C457   O459    1.222   .     D
C460   O462    1.222   .     D
C460   H461    1.072   .     S
C463   O491    1.290   .     A
C463   C474    1.422   .     S
C463   O489    1.286   .     A
C464   O492    1.290   .     A
C464   C473    1.422   .     S
C464   O490    1.286   .     A
C465   O493    1.280   .     A
C465   O495    1.287   .     A
C465   C467    1.405   .     S
C466   O496    1.287   .     A
C466   O494    1.280   .     A
C466   C468    1.405   .     S
C468   C383    1.334   1_655 S
C468   H396    1.088   1_655 S
C469   H481    1.083   .     S
C469   C474    1.396   .     A
C469   C723    1.370   1_545 S
C470   H482    1.083   .     S
C470   C473    1.396   .     A
C470   C598    1.370   .     S
C471   C473    1.399   .     A
C471   H483    1.083   .     S
C471   C595    1.370   .     S
C472   H484    1.083   .     S
C472   C474    1.399   .     A
C472   C722    1.370   1_545 S
C475   H485    1.082   .     S
C475   N488    1.355   .     A
C476   N487    1.355   .     A
C476   H486    1.082   .     S
C476   C856    1.422   .     S
C477   N487    1.386   .     A
C477   C499    1.482   .     S
C477   C853    1.422   .     S
C478   C502    1.482   .     S
C478   N488    1.386   .     A
H479   C383    1.088   1_655 S
N487   Zn497   2.020   .     S
N488   Zn498   2.020   .     S
O489   Zn497   1.998   .     S
O490   Zn498   1.998   .     S
O491   Zn498   2.005   .     S
O492   Zn497   2.005   .     S
O493   Zn497   1.965   .     S
O494   Zn498   1.965   .     S
O495   Zn498   1.983   .     S
O496   Zn497   1.983   .     S
C499   H500    1.072   .     S
C499   O501    1.222   .     D
C502   O504    1.222   .     D
C502   H503    1.072   .     S
C505   O533    1.290   .     A
C505   C516    1.422   .     S
C505   O531    1.286   .     A
C506   O534    1.290   .     A
C506   C515    1.422   .     S
C506   O532    1.286   .     A
C507   O535    1.280   .     A
C507   O537    1.287   .     A
C507   C509    1.405   .     S
C508   O538    1.287   .     A
C508   O536    1.280   .     A
C508   C510    1.405   .     S
C509   C594    1.334   1_455 S
C509   H605    1.088   1_455 S
C510   C551    1.334   .     S
C510   H564    1.088   .     S
C511   H523    1.083   .     S
C511   C516    1.396   .     A
C512   H524    1.083   .     S
C512   C515    1.396   .     A
C512   C640    1.370   .     S
C513   C515    1.399   .     A
C513   H525    1.083   .     S
C513   C637    1.370   .     S
C514   H526    1.083   .     S
C514   C516    1.399   .     A
C517   H527    1.082   .     S
C517   N530    1.355   .     A
C518   N529    1.355   .     A
C518   H528    1.082   .     S
C518   C898    1.422   .     S
C519   N529    1.386   .     A
C519   C541    1.482   .     S
C519   C895    1.422   .     S
C520   C544    1.482   .     S
C520   N530    1.386   .     A
H521   C551    1.088   .     S
H522   C594    1.088   1_455 S
N529   Zn539   2.020   .     S
N530   Zn540   2.020   .     S
O531   Zn539   1.998   .     S
O532   Zn540   1.998   .     S
O533   Zn540   2.005   .     S
O534   Zn539   2.005   .     S
O535   Zn539   1.965   .     S
O536   Zn540   1.965   .     S
O537   Zn540   1.983   .     S
O538   Zn539   1.983   .     S
C541   H542    1.072   .     S
C541   O543    1.222   .     D
C544   O546    1.222   .     D
C544   H545    1.072   .     S
C547   O575    1.290   .     A
C547   C558    1.422   .     S
C547   O573    1.286   .     A
C548   O576    1.290   .     A
C548   C557    1.422   .     S
C548   O574    1.286   .     A
C549   O577    1.280   .     A
C549   O579    1.287   .     A
C549   C551    1.405   .     S
C550   O580    1.287   .     A
C550   O578    1.280   .     A
C550   C552    1.405   .     S
C552   C593    1.334   .     S
C552   H606    1.088   .     S
C553   H565    1.083   .     S
C553   C558    1.396   .     A
C554   H566    1.083   .     S
C554   C557    1.396   .     A
C554   C682    1.370   .     S
C555   C557    1.399   .     A
C555   H567    1.083   .     S
C555   C679    1.370   .     S
C556   H568    1.083   .     S
C556   C558    1.399   .     A
C559   H569    1.082   .     S
C559   N572    1.355   .     A
C560   N571    1.355   .     A
C560   H570    1.082   .     S
C560   C940    1.422   .     S
C561   N571    1.386   .     A
C561   C583    1.482   .     S
C561   C937    1.422   .     S
C562   C586    1.482   .     S
C562   N572    1.386   .     A
H563   C593    1.088   .     S
N571   Zn581   2.020   .     S
N572   Zn582   2.020   .     S
O573   Zn581   1.998   .     S
O574   Zn582   1.998   .     S
O575   Zn582   2.005   .     S
O576   Zn581   2.005   .     S
O577   Zn581   1.965   .     S
O578   Zn582   1.965   .     S
O579   Zn582   1.983   .     S
O580   Zn581   1.983   .     S
C583   H584    1.072   .     S
C583   O585    1.222   .     D
C586   O588    1.222   .     D
C586   H587    1.072   .     S
C589   O617    1.290   .     A
C589   C600    1.422   .     S
C589   O615    1.286   .     A
C590   O618    1.290   .     A
C590   C599    1.422   .     S
C590   O616    1.286   .     A
C591   O619    1.280   .     A
C591   O621    1.287   .     A
C591   C593    1.405   .     S
C592   O622    1.287   .     A
C592   O620    1.280   .     A
C592   C594    1.405   .     S
C594   C509    1.334   1_655 S
C594   H522    1.088   1_655 S
C595   H607    1.083   .     S
C595   C600    1.396   .     A
C596   H608    1.083   .     S
C596   C599    1.396   .     A
C596   C724    1.370   .     S
C597   C599    1.399   .     A
C597   H609    1.083   .     S
C597   C721    1.370   .     S
C598   H610    1.083   .     S
C598   C600    1.399   .     A
C601   H611    1.082   .     S
C601   N614    1.355   .     A
C602   N613    1.355   .     A
C602   H612    1.082   .     S
C602   C982    1.422   .     S
C603   N613    1.386   .     A
C603   C625    1.482   .     S
C603   C979    1.422   .     S
C604   C628    1.482   .     S
C604   N614    1.386   .     A
H605   C509    1.088   1_655 S
N613   Zn623   2.020   .     S
N614   Zn624   2.020   .     S
O615   Zn623   1.998   .     S
O616   Zn624   1.998   .     S
O617   Zn624   2.005   .     S
O618   Zn623   2.005   .     S
O619   Zn623   1.965   .     S
O620   Zn624   1.965   .     S
O621   Zn624   1.983   .     S
O622   Zn623   1.983   .     S
C625   H626    1.072   .     S
C625   O627    1.222   .     D
C628   O630    1.222   .     D
C628   H629    1.072   .     S
C631   O659    1.290   .     A
C631   C642    1.422   .     S
C631   O657    1.286   .     A
C632   O660    1.290   .     A
C632   C641    1.422   .     S
C632   O658    1.286   .     A
C633   O661    1.280   .     A
C633   O663    1.287   .     A
C633   C635    1.405   .     S
C634   O664    1.287   .     A
C634   O662    1.280   .     A
C634   C636    1.405   .     S
C635   C720    1.334   1_455 S
C635   H731    1.088   1_455 S
C636   C677    1.334   .     S
C636   H690    1.088   .     S
C637   H649    1.083   .     S
C637   C642    1.396   .     A
C638   H650    1.083   .     S
C638   C641    1.396   .     A
C638   C388    1.370   1_565 S
C639   C641    1.399   .     A
C639   H651    1.083   .     S
C639   C385    1.370   1_565 S
C640   H652    1.083   .     S
C640   C642    1.399   .     A
C643   H653    1.082   .     S
C643   N656    1.355   .     A
C644   N655    1.355   .     A
C644   H654    1.082   .     S
C644   C1024   1.422   .     S
C645   N655    1.386   .     A
C645   C667    1.482   .     S
C645   C1021   1.422   .     S
C646   C670    1.482   .     S
C646   N656    1.386   .     A
H647   C677    1.088   .     S
H648   C720    1.088   1_455 S
N655   Zn665   2.020   .     S
N656   Zn666   2.020   .     S
O657   Zn665   1.998   .     S
O658   Zn666   1.998   .     S
O659   Zn666   2.005   .     S
O660   Zn665   2.005   .     S
O661   Zn665   1.965   .     S
O662   Zn666   1.965   .     S
O663   Zn666   1.983   .     S
O664   Zn665   1.983   .     S
C667   H668    1.072   .     S
C667   O669    1.222   .     D
C670   O672    1.222   .     D
C670   H671    1.072   .     S
C673   O701    1.290   .     A
C673   C684    1.422   .     S
C673   O699    1.286   .     A
C674   O702    1.290   .     A
C674   C683    1.422   .     S
C674   O700    1.286   .     A
C675   O703    1.280   .     A
C675   O705    1.287   .     A
C675   C677    1.405   .     S
C676   O706    1.287   .     A
C676   O704    1.280   .     A
C676   C678    1.405   .     S
C678   C719    1.334   .     S
C678   H732    1.088   .     S
C679   H691    1.083   .     S
C679   C684    1.396   .     A
C680   H692    1.083   .     S
C680   C683    1.396   .     A
C680   C430    1.370   1_565 S
C681   C683    1.399   .     A
C681   H693    1.083   .     S
C681   C427    1.370   1_565 S
C682   H694    1.083   .     S
C682   C684    1.399   .     A
C685   H695    1.082   .     S
C685   N698    1.355   .     A
C686   N697    1.355   .     A
C686   H696    1.082   .     S
C686   C1066   1.422   .     S
C687   N697    1.386   .     A
C687   C709    1.482   .     S
C687   C1063   1.422   .     S
C688   C712    1.482   .     S
C688   N698    1.386   .     A
H689   C719    1.088   .     S
N697   Zn707   2.020   .     S
N698   Zn708   2.020   .     S
O699   Zn707   1.998   .     S
O700   Zn708   1.998   .     S
O701   Zn708   2.005   .     S
O702   Zn707   2.005   .     S
O703   Zn707   1.965   .     S
O704   Zn708   1.965   .     S
O705   Zn708   1.983   .     S
O706   Zn707   1.983   .     S
C709   H710    1.072   .     S
C709   O711    1.222   .     D
C712   O714    1.222   .     D
C712   H713    1.072   .     S
C715   O743    1.290   .     A
C715   C726    1.422   .     S
C715   O741    1.286   .     A
C716   O744    1.290   .     A
C716   C725    1.422   .     S
C716   O742    1.286   .     A
C717   O745    1.280   .     A
C717   O747    1.287   .     A
C717   C719    1.405   .     S
C718   O748    1.287   .     A
C718   O746    1.280   .     A
C718   C720    1.405   .     S
C720   C635    1.334   1_655 S
C720   H648    1.088   1_655 S
C721   H733    1.083   .     S
C721   C726    1.396   .     A
C722   H734    1.083   .     S
C722   C725    1.396   .     A
C722   C472    1.370   1_565 S
C723   C725    1.399   .     A
C723   H735    1.083   .     S
C723   C469    1.370   1_565 S
C724   H736    1.083   .     S
C724   C726    1.399   .     A
C727   H737    1.082   .     S
C727   N740    1.355   .     A
C728   N739    1.355   .     A
C728   H738    1.082   .     S
C728   C1108   1.422   .     S
C729   N739    1.386   .     A
C729   C751    1.482   .     S
C729   C1105   1.422   .     S
C730   C754    1.482   .     S
C730   N740    1.386   .     A
H731   C635    1.088   1_655 S
N739   Zn749   2.020   .     S
N740   Zn750   2.020   .     S
O741   Zn749   1.998   .     S
O742   Zn750   1.998   .     S
O743   Zn750   2.005   .     S
O744   Zn749   2.005   .     S
O745   Zn749   1.965   .     S
O746   Zn750   1.965   .     S
O747   Zn750   1.983   .     S
O748   Zn749   1.983   .     S
C751   H752    1.072   .     S
C751   O753    1.222   .     D
C754   O756    1.222   .     D
C754   H755    1.072   .     S
C757   O785    1.290   .     A
C757   C768    1.422   .     S
C757   O783    1.286   .     A
C758   O786    1.290   .     A
C758   C767    1.422   .     S
C758   O784    1.286   .     A
C759   O787    1.280   .     A
C759   O789    1.287   .     A
C759   C761    1.405   .     S
C760   O790    1.287   .     A
C760   O788    1.280   .     A
C760   C762    1.405   .     S
C761   C846    1.334   1_455 S
C761   H857    1.088   1_455 S
C762   C803    1.334   .     S
C762   H816    1.088   .     S
C763   H775    1.083   .     S
C763   C768    1.396   .     A
C763   C1017   1.370   1_545 S
C764   H776    1.083   .     S
C764   C767    1.396   .     A
C764   C892    1.370   .     S
C765   C767    1.399   .     A
C765   H777    1.083   .     S
C765   C889    1.370   .     S
C766   H778    1.083   .     S
C766   C768    1.399   .     A
C766   C1016   1.370   1_545 S
C769   H779    1.082   .     S
C769   N782    1.355   .     A
C770   N781    1.355   .     A
C770   H780    1.082   .     S
C770   C16     1.422   1_556 S
C771   N781    1.386   .     A
C771   C793    1.482   .     S
C771   C13     1.422   1_556 S
C772   C796    1.482   .     S
C772   N782    1.386   .     A
H773   C803    1.088   .     S
H774   C846    1.088   1_455 S
N781   Zn791   2.020   .     S
N782   Zn792   2.020   .     S
O783   Zn791   1.998   .     S
O784   Zn792   1.998   .     S
O785   Zn792   2.005   .     S
O786   Zn791   2.005   .     S
O787   Zn791   1.965   .     S
O788   Zn792   1.965   .     S
O789   Zn792   1.983   .     S
O790   Zn791   1.983   .     S
C793   H794    1.072   .     S
C793   O795    1.222   .     D
C796   O798    1.222   .     D
C796   H797    1.072   .     S
C799   O827    1.290   .     A
C799   C810    1.422   .     S
C799   O825    1.286   .     A
C800   O828    1.290   .     A
C800   C809    1.422   .     S
C800   O826    1.286   .     A
C801   O829    1.280   .     A
C801   O831    1.287   .     A
C801   C803    1.405   .     S
C802   O832    1.287   .     A
C802   O830    1.280   .     A
C802   C804    1.405   .     S
C804   C845    1.334   .     S
C804   H858    1.088   .     S
C805   H817    1.083   .     S
C805   C810    1.396   .     A
C805   C1059   1.370   1_545 S
C806   H818    1.083   .     S
C806   C809    1.396   .     A
C806   C934    1.370   .     S
C807   C809    1.399   .     A
C807   H819    1.083   .     S
C807   C931    1.370   .     S
C808   H820    1.083   .     S
C808   C810    1.399   .     A
C808   C1058   1.370   1_545 S
C811   H821    1.082   .     S
C811   N824    1.355   .     A
C812   N823    1.355   .     A
C812   H822    1.082   .     S
C812   C58     1.422   1_556 S
C813   N823    1.386   .     A
C813   C835    1.482   .     S
C813   C55     1.422   1_556 S
C814   C838    1.482   .     S
C814   N824    1.386   .     A
H815   C845    1.088   .     S
N823   Zn833   2.020   .     S
N824   Zn834   2.020   .     S
O825   Zn833   1.998   .     S
O826   Zn834   1.998   .     S
O827   Zn834   2.005   .     S
O828   Zn833   2.005   .     S
O829   Zn833   1.965   .     S
O830   Zn834   1.965   .     S
O831   Zn834   1.983   .     S
O832   Zn833   1.983   .     S
C835   H836    1.072   .     S
C835   O837    1.222   .     D
C838   O840    1.222   .     D
C838   H839    1.072   .     S
C841   O869    1.290   .     A
C841   C852    1.422   .     S
C841   O867    1.286   .     A
C842   O870    1.290   .     A
C842   C851    1.422   .     S
C842   O868    1.286   .     A
C843   O871    1.280   .     A
C843   O873    1.287   .     A
C843   C845    1.405   .     S
C844   O874    1.287   .     A
C844   O872    1.280   .     A
C844   C846    1.405   .     S
C846   C761    1.334   1_655 S
C846   H774    1.088   1_655 S
C847   H859    1.083   .     S
C847   C852    1.396   .     A
C847   C1101   1.370   1_545 S
C848   H860    1.083   .     S
C848   C851    1.396   .     A
C848   C976    1.370   .     S
C849   C851    1.399   .     A
C849   H861    1.083   .     S
C849   C973    1.370   .     S
C850   H862    1.083   .     S
C850   C852    1.399   .     A
C850   C1100   1.370   1_545 S
C853   H863    1.082   .     S
C853   N866    1.355   .     A
C854   N865    1.355   .     A
C854   H864    1.082   .     S
C854   C100    1.422   1_556 S
C855   N865    1.386   .     A
C855   C877    1.482   .     S
C855   C97     1.422   1_556 S
C856   C880    1.482   .     S
C856   N866    1.386   .     A
H857   C761    1.088   1_655 S
N865   Zn875   2.020   .     S
N866   Zn876   2.020   .     S
O867   Zn875   1.998   .     S
O868   Zn876   1.998   .     S
O869   Zn876   2.005   .     S
O870   Zn875   2.005   .     S
O871   Zn875   1.965   .     S
O872   Zn876   1.965   .     S
O873   Zn876   1.983   .     S
O874   Zn875   1.983   .     S
C877   H878    1.072   .     S
C877   O879    1.222   .     D
C880   O882    1.222   .     D
C880   H881    1.072   .     S
C883   O911    1.290   .     A
C883   C894    1.422   .     S
C883   O909    1.286   .     A
C884   O912    1.290   .     A
C884   C893    1.422   .     S
C884   O910    1.286   .     A
C885   O913    1.280   .     A
C885   O915    1.287   .     A
C885   C887    1.405   .     S
C886   O916    1.287   .     A
C886   O914    1.280   .     A
C886   C888    1.405   .     S
C887   C972    1.334   1_455 S
C887   H983    1.088   1_455 S
C888   C929    1.334   .     S
C888   H942    1.088   .     S
C889   H901    1.083   .     S
C889   C894    1.396   .     A
C890   H902    1.083   .     S
C890   C893    1.396   .     A
C890   C1018   1.370   .     S
C891   C893    1.399   .     A
C891   H903    1.083   .     S
C891   C1015   1.370   .     S
C892   H904    1.083   .     S
C892   C894    1.399   .     A
C895   H905    1.082   .     S
C895   N908    1.355   .     A
C896   N907    1.355   .     A
C896   H906    1.082   .     S
C896   C142    1.422   1_556 S
C897   N907    1.386   .     A
C897   C919    1.482   .     S
C897   C139    1.422   1_556 S
C898   C922    1.482   .     S
C898   N908    1.386   .     A
H899   C929    1.088   .     S
H900   C972    1.088   1_455 S
N907   Zn917   2.020   .     S
N908   Zn918   2.020   .     S
O909   Zn917   1.998   .     S
O910   Zn918   1.998   .     S
O911   Zn918   2.005   .     S
O912   Zn917   2.005   .     S
O913   Zn917   1.965   .     S
O914   Zn918   1.965   .     S
O915   Zn918   1.983   .     S
O916   Zn917   1.983   .     S
C919   H920    1.072   .     S
C919   O921    1.222   .     D
C922   O924    1.222   .     D
C922   H923    1.072   .     S
C925   O953    1.290   .     A
C925   C936    1.422   .     S
C925   O951    1.286   .     A
C926   O954    1.290   .     A
C926   C935    1.422   .     S
C926   O952    1.286   .     A
C927   O955    1.280   .     A
C927   O957    1.287   .     A
C927   C929    1.405   .     S
C928   O958    1.287   .     A
C928   O956    1.280   .     A
C928   C930    1.405   .     S
C930   C971    1.334   .     S
C930   H984    1.088   .     S
C931   H943    1.083   .     S
C931   C936    1.396   .     A
C932   H944    1.083   .     S
C932   C935    1.396   .     A
C932   C1060   1.370   .     S
C933   C935    1.399   .     A
C933   H945    1.083   .     S
C933   C1057   1.370   .     S
C934   H946    1.083   .     S
C934   C936    1.399   .     A
C937   H947    1.082   .     S
C937   N950    1.355   .     A
C938   N949    1.355   .     A
C938   H948    1.082   .     S
C938   C184    1.422   1_556 S
C939   N949    1.386   .     A
C939   C961    1.482   .     S
C939   C181    1.422   1_556 S
C940   C964    1.482   .     S
C940   N950    1.386   .     A
H941   C971    1.088   .     S
N949   Zn959   2.020   .     S
N950   Zn960   2.020   .     S
O951   Zn959   1.998   .     S
O952   Zn960   1.998   .     S
O953   Zn960   2.005   .     S
O954   Zn959   2.005   .     S
O955   Zn959   1.965   .     S
O956   Zn960   1.965   .     S
O957   Zn960   1.983   .     S
O958   Zn959   1.983   .     S
C961   H962    1.072   .     S
C961   O963    1.222   .     D
C964   O966    1.222   .     D
C964   H965    1.072   .     S
C967   O995    1.290   .     A
C967   C978    1.422   .     S
C967   O993    1.286   .     A
C968   O996    1.290   .     A
C968   C977    1.422   .     S
C968   O994    1.286   .     A
C969   O997    1.280   .     A
C969   O999    1.287   .     A
C969   C971    1.405   .     S
C970   O1000   1.287   .     A
C970   O998    1.280   .     A
C970   C972    1.405   .     S
C972   C887    1.334   1_655 S
C972   H900    1.088   1_655 S
C973   H985    1.083   .     S
C973   C978    1.396   .     A
C974   H986    1.083   .     S
C974   C977    1.396   .     A
C974   C1102   1.370   .     S
C975   C977    1.399   .     A
C975   H987    1.083   .     S
C975   C1099   1.370   .     S
C976   H988    1.083   .     S
C976   C978    1.399   .     A
C979   H989    1.082   .     S
C979   N992    1.355   .     A
C980   N991    1.355   .     A
C980   H990    1.082   .     S
C980   C226    1.422   1_556 S
C981   N991    1.386   .     A
C981   C1003   1.482   .     S
C981   C223    1.422   1_556 S
C982   C1006   1.482   .     S
C982   N992    1.386   .     A
H983   C887    1.088   1_655 S
N991   Zn1001  2.020   .     S
N992   Zn1002  2.020   .     S
O993   Zn1001  1.998   .     S
O994   Zn1002  1.998   .     S
O995   Zn1002  2.005   .     S
O996   Zn1001  2.005   .     S
O997   Zn1001  1.965   .     S
O998   Zn1002  1.965   .     S
O999   Zn1002  1.983   .     S
O1000  Zn1001  1.983   .     S
C1003  H1004   1.072   .     S
C1003  O1005   1.222   .     D
C1006  O1008   1.222   .     D
C1006  H1007   1.072   .     S
C1009  O1037   1.290   .     A
C1009  C1020   1.422   .     S
C1009  O1035   1.286   .     A
C1010  O1038   1.290   .     A
C1010  C1019   1.422   .     S
C1010  O1036   1.286   .     A
C1011  O1039   1.280   .     A
C1011  O1041   1.287   .     A
C1011  C1013   1.405   .     S
C1012  O1042   1.287   .     A
C1012  O1040   1.280   .     A
C1012  C1014   1.405   .     S
C1013  C1098   1.334   1_455 S
C1013  H1109   1.088   1_455 S
C1014  C1055   1.334   .     S
C1014  H1068   1.088   .     S
C1015  H1027   1.083   .     S
C1015  C1020   1.396   .     A
C1016  H1028   1.083   .     S
C1016  C1019   1.396   .     A
C1016  C766    1.370   1_565 S
C1017  C1019   1.399   .     A
C1017  H1029   1.083   .     S
C1017  C763    1.370   1_565 S
C1018  H1030   1.083   .     S
C1018  C1020   1.399   .     A
C1021  H1031   1.082   .     S
C1021  N1034   1.355   .     A
C1022  N1033   1.355   .     A
C1022  H1032   1.082   .     S
C1022  C268    1.422   1_556 S
C1023  N1033   1.386   .     A
C1023  C1045   1.482   .     S
C1023  C265    1.422   1_556 S
C1024  C1048   1.482   .     S
C1024  N1034   1.386   .     A
H1025  C1055   1.088   .     S
H1026  C1098   1.088   1_455 S
N1033  Zn1043  2.020   .     S
N1034  Zn1044  2.020   .     S
O1035  Zn1043  1.998   .     S
O1036  Zn1044  1.998   .     S
O1037  Zn1044  2.005   .     S
O1038  Zn1043  2.005   .     S
O1039  Zn1043  1.965   .     S
O1040  Zn1044  1.965   .     S
O1041  Zn1044  1.983   .     S
O1042  Zn1043  1.983   .     S
C1045  H1046   1.072   .     S
C1045  O1047   1.222   .     D
C1048  O1050   1.222   .     D
C1048  H1049   1.072   .     S
C1051  O1079   1.290   .     A
C1051  C1062   1.422   .     S
C1051  O1077   1.286   .     A
C1052  O1080   1.290   .     A
C1052  C1061   1.422   .     S
C1052  O1078   1.286   .     A
C1053  O1081   1.280   .     A
C1053  O1083   1.287   .     A
C1053  C1055   1.405   .     S
C1054  O1084   1.287   .     A
C1054  O1082   1.280   .     A
C1054  C1056   1.405   .     S
C1056  C1097   1.334   .     S
C1056  H1110   1.088   .     S
C1057  H1069   1.083   .     S
C1057  C1062   1.396   .     A
C1058  H1070   1.083   .     S
C1058  C1061   1.396   .     A
C1058  C808    1.370   1_565 S
C1059  C1061   1.399   .     A
C1059  H1071   1.083   .     S
C1059  C805    1.370   1_565 S
C1060  H1072   1.083   .     S
C1060  C1062   1.399   .     A
C1063  H1073   1.082   .     S
C1063  N1076   1.355   .     A
C1064  N1075   1.355   .     A
C1064  H1074   1.082   .     S
C1064  C310    1.422   1_556 S
C1065  N1075   1.386   .     A
C1065  C1087   1.482   .     S
C1065  C307    1.422   1_556 S
C1066  C1090   1.482   .     S
C1066  N1076   1.386   .     A
H1067  C1097   1.088   .     S
N1075  Zn1085  2.020   .     S
N1076  Zn1086  2.020   .     S
O1077  Zn1085  1.998   .     S
O1078  Zn1086  1.998   .     S
O1079  Zn1086  2.005   .     S
O1080  Zn1085  2.005   .     S
O1081  Zn1085  1.965   .     S
O1082  Zn1086  1.965   .     S
O1083  Zn1086  1.983   .     S
O1084  Zn1085  1.983   .     S
C1087  H1088   1.072   .     S
C1087  O1089   1.222   .     D
C1090  O1092   1.222   .     D
C1090  H1091   1.072   .     S
C1093  O1121   1.290   .     A
C1093  C1104   1.422   .     S
C1093  O1119   1.286   .     A
C1094  O1122   1.290   .     A
C1094  C1103   1.422   .     S
C1094  O1120   1.286   .     A
C1095  O1123   1.280   .     A
C1095  O1125   1.287   .     A
C1095  C1097   1.405   .     S
C1096  O1126   1.287   .     A
C1096  O1124   1.280   .     A
C1096  C1098   1.405   .     S
C1098  C1013   1.334   1_655 S
C1098  H1026   1.088   1_655 S
C1099  H1111   1.083   .     S
C1099  C1104   1.396   .     A
C1100  H1112   1.083   .     S
C1100  C1103   1.396   .     A
C1100  C850    1.370   1_565 S
C1101  C1103   1.399   .     A
C1101  H1113   1.083   .     S
C1101  C847    1.370   1_565 S
C1102  H1114   1.083   .     S
C1102  C1104   1.399   .     A
C1105  H1115   1.082   .     S
C1105  N1118   1.355   .     A
C1106  N1117   1.355   .     A
C1106  H1116   1.082   .     S
C1106  C352    1.422   1_556 S
C1107  N1117   1.386   .     A
C1107  C1129   1.482   .     S
C1107  C349    1.422   1_556 S
C1108  C1132   1.482   .     S
C1108  N1118   1.386   .     A
H1109  C1013   1.088   1_655 S
N1117  Zn1127  2.020   .     S
N1118  Zn1128  2.020   .     S
O1119  Zn1127  1.998   .     S
O1120  Zn1128  1.998   .     S
O1121  Zn1128  2.005   .     S
O1122  Zn1127  2.005   .     S
O1123  Zn1127  1.965   .     S
O1124  Zn1128  1.965   .     S
O1125  Zn1128  1.983   .     S
O1126  Zn1127  1.983   .     S
C1129  H1130   1.072   .     S
C1129  O1131   1.222   .     D
C1132  O1134   1.222   .     D
C1132  H1133   1.072   .     S
