data_str_m3_o10_o18_pcu_sym.35
_audit_creation_date              2020-01-03
_audit_creation_method            'Materials Studio'
_symmetry_space_group_name_H-M    'P1'
_symmetry_Int_Tables_number       1
_symmetry_cell_setting            triclinic
loop_
_symmetry_equiv_pos_as_xyz
  x,y,z
_cell_length_a                    23.5141
_cell_length_b                    25.6916
_cell_length_c                    27.1673
_cell_angle_alpha                 93.4197
_cell_angle_beta                  92.3263
_cell_angle_gamma                 94.3613
loop_
_atom_site_label
_atom_site_type_symbol
_atom_site_fract_x
_atom_site_fract_y
_atom_site_fract_z
_atom_site_U_iso_or_equiv
_atom_site_adp_type
_atom_site_occupancy
C1     C     0.01510   0.26492   0.24876   0.00000  Uiso   1.00
C2     C     0.31275   0.16284   0.15856   0.00000  Uiso   1.00
C3     C     0.02970   0.17652   0.39491   0.00000  Uiso   1.00
C4     C     0.30323   0.15580   0.10518   0.00000  Uiso   1.00
C5     C     0.02177   0.22593   0.47270   0.00000  Uiso   1.00
C6     C     0.31133   0.10566   0.02778   0.00000  Uiso   1.00
C7     C     0.00300   0.21463   0.42344   0.00000  Uiso   1.00
C8     C     0.33028   0.11770   0.07694   0.00000  Uiso   1.00
C9     C     0.07181   0.14855   0.41667   0.00000  Uiso   1.00
C10    C     0.26049   0.18289   0.08327   0.00000  Uiso   1.00
C11    C     0.09949   0.16906   0.46110   0.00000  Uiso   1.00
C12    C     0.31822   0.06841   0.25119   0.00000  Uiso   1.00
C13    C     0.23267   0.16141   0.03926   0.00000  Uiso   1.00
C14    C     0.07080   0.20473   0.49109   0.00000  Uiso   1.00
C15    C     0.26166   0.12587   0.00943   0.00000  Uiso   1.00
C16    C     0.15480   0.15605   0.47634   0.00000  Uiso   1.00
C17    C     0.17708   0.17369   0.02420   0.00000  Uiso   1.00
C18    C     0.14186   0.20049   0.05643   0.00000  Uiso   1.00
C19    C     0.18993   0.12882   0.44432   0.00000  Uiso   1.00
C20    C     0.09092   0.21809   0.03933   0.00000  Uiso   1.00
C21    C     0.24118   0.11172   0.46142   0.00000  Uiso   1.00
C22    C     0.02294   0.31952   0.24801   0.00000  Uiso   1.00
C23    C     0.31038   0.01380   0.25185   0.00000  Uiso   1.00
C24    C     0.02053   0.17040   0.34145   0.00000  Uiso   1.00
H25    H     0.06686   0.24169   0.06413   0.00000  Uiso   1.00
H26    H     0.17095   0.20883   0.28645   0.00000  Uiso   1.00
H27    H     0.29117   0.25770   0.10200   0.00000  Uiso   1.00
H28    H     0.23743   0.23606   0.13688   0.00000  Uiso   1.00
H29    H     0.09448   0.09596   0.36243   0.00000  Uiso   1.00
H30    H     0.04021   0.07427   0.39672   0.00000  Uiso   1.00
H31    H     0.02507   0.06519   0.12251   0.00000  Uiso   1.00
H32    H     0.06173   0.06877   0.07098   0.00000  Uiso   1.00
H33    H     0.28191   0.27339   0.42619   0.00000  Uiso   1.00
H34    H     0.25450   0.21621   0.39907   0.00000  Uiso   1.00
H35    H     0.26530   0.08809   0.43672   0.00000  Uiso   1.00
H36    H     0.00021   0.25346   0.49573   0.00000  Uiso   1.00
H37    H     0.33303   0.07807   0.00493   0.00000  Uiso   1.00
H38    H     0.15265   0.20814   0.09523   0.00000  Uiso   1.00
H39    H     0.17915   0.12077   0.40558   0.00000  Uiso   1.00
H40    H     0.06612   0.00347   0.24435   0.00000  Uiso   1.00
H41    H     0.26719   0.32986   0.25550   0.00000  Uiso   1.00
H42    H     0.16239   0.12450   0.21356   0.00000  Uiso   1.00
N43    N     0.14695   0.15216   0.23740   0.00000  Uiso   1.00
N44    N     0.18638   0.18117   0.26261   0.00000  Uiso   1.00
N45    N     0.25193   0.23551   0.10109   0.00000  Uiso   1.00
N46    N     0.07975   0.09604   0.39813   0.00000  Uiso   1.00
N47    N     0.04284   0.09129   0.09820   0.00000  Uiso   1.00
N48    N     0.29119   0.24205   0.40229   0.00000  Uiso   1.00
O49    O     0.29719   0.24631   0.25310   0.00000  Uiso   1.00
O50    O     0.03614   0.08702   0.24691   0.00000  Uiso   1.00
O51    O     0.05822   0.23702   0.24502   0.00000  Uiso   1.00
O52    O     0.27512   0.09632   0.25499   0.00000  Uiso   1.00
O53    O     0.30328   0.17397   0.32247   0.00000  Uiso   1.00
O54    O     0.03005   0.15937   0.17753   0.00000  Uiso   1.00
O55    O     0.06431   0.16467   0.31439   0.00000  Uiso   1.00
O56    O     0.26902   0.16866   0.18561   0.00000  Uiso   1.00
Zn57   Zn    0.27033   0.17287   0.25540   0.00000  Uiso   1.00
Zn58   Zn    0.06300   0.16046   0.24461   0.00000  Uiso   1.00
C59    C     0.34844   0.26492   0.24876   0.00000  Uiso   1.00
C60    C     0.64608   0.16284   0.15856   0.00000  Uiso   1.00
C61    C     0.36303   0.17652   0.39491   0.00000  Uiso   1.00
C62    C     0.63657   0.15580   0.10518   0.00000  Uiso   1.00
C63    C     0.35511   0.22593   0.47270   0.00000  Uiso   1.00
C64    C     0.64466   0.10566   0.02778   0.00000  Uiso   1.00
C65    C     0.33633   0.21463   0.42344   0.00000  Uiso   1.00
C66    C     0.66361   0.11770   0.07694   0.00000  Uiso   1.00
C67    C     0.40514   0.14855   0.41667   0.00000  Uiso   1.00
C68    C     0.59382   0.18289   0.08327   0.00000  Uiso   1.00
C69    C     0.43282   0.16906   0.46110   0.00000  Uiso   1.00
C70    C     0.65156   0.06841   0.25119   0.00000  Uiso   1.00
C71    C     0.56600   0.16141   0.03926   0.00000  Uiso   1.00
C72    C     0.40413   0.20473   0.49109   0.00000  Uiso   1.00
C73    C     0.59500   0.12587   0.00943   0.00000  Uiso   1.00
C74    C     0.48813   0.15605   0.47634   0.00000  Uiso   1.00
C75    C     0.51041   0.17369   0.02420   0.00000  Uiso   1.00
C76    C     0.47520   0.20049   0.05643   0.00000  Uiso   1.00
C77    C     0.52326   0.12882   0.44432   0.00000  Uiso   1.00
C78    C     0.42425   0.21809   0.03933   0.00000  Uiso   1.00
C79    C     0.57451   0.11172   0.46142   0.00000  Uiso   1.00
C80    C     0.35627   0.31952   0.24801   0.00000  Uiso   1.00
C81    C     0.64371   0.01380   0.25185   0.00000  Uiso   1.00
C82    C     0.35387   0.17040   0.34145   0.00000  Uiso   1.00
H83    H     0.40019   0.24169   0.06413   0.00000  Uiso   1.00
H84    H     0.50428   0.20883   0.28645   0.00000  Uiso   1.00
H85    H     0.62451   0.25770   0.10200   0.00000  Uiso   1.00
H86    H     0.57076   0.23606   0.13688   0.00000  Uiso   1.00
H87    H     0.42781   0.09596   0.36243   0.00000  Uiso   1.00
H88    H     0.37355   0.07427   0.39672   0.00000  Uiso   1.00
H89    H     0.35841   0.06519   0.12251   0.00000  Uiso   1.00
H90    H     0.39507   0.06877   0.07098   0.00000  Uiso   1.00
H91    H     0.61524   0.27339   0.42619   0.00000  Uiso   1.00
H92    H     0.58784   0.21621   0.39907   0.00000  Uiso   1.00
H93    H     0.59864   0.08809   0.43672   0.00000  Uiso   1.00
H94    H     0.33355   0.25346   0.49573   0.00000  Uiso   1.00
H95    H     0.66636   0.07807   0.00493   0.00000  Uiso   1.00
H96    H     0.48598   0.20814   0.09523   0.00000  Uiso   1.00
H97    H     0.51249   0.12077   0.40558   0.00000  Uiso   1.00
H98    H     0.39946   0.00347   0.24435   0.00000  Uiso   1.00
H99    H     0.60052   0.32986   0.25550   0.00000  Uiso   1.00
H100   H     0.49572   0.12450   0.21356   0.00000  Uiso   1.00
N101   N     0.48029   0.15216   0.23740   0.00000  Uiso   1.00
N102   N     0.51971   0.18117   0.26261   0.00000  Uiso   1.00
N103   N     0.58526   0.23551   0.10109   0.00000  Uiso   1.00
N104   N     0.41308   0.09604   0.39813   0.00000  Uiso   1.00
N105   N     0.37617   0.09129   0.09820   0.00000  Uiso   1.00
N106   N     0.62453   0.24205   0.40229   0.00000  Uiso   1.00
O107   O     0.63052   0.24631   0.25310   0.00000  Uiso   1.00
O108   O     0.36948   0.08702   0.24691   0.00000  Uiso   1.00
O109   O     0.39155   0.23702   0.24502   0.00000  Uiso   1.00
O110   O     0.60845   0.09632   0.25499   0.00000  Uiso   1.00
O111   O     0.63662   0.17397   0.32247   0.00000  Uiso   1.00
O112   O     0.36338   0.15937   0.17753   0.00000  Uiso   1.00
O113   O     0.39764   0.16467   0.31439   0.00000  Uiso   1.00
O114   O     0.60236   0.16866   0.18561   0.00000  Uiso   1.00
Zn115  Zn    0.60366   0.17287   0.25540   0.00000  Uiso   1.00
Zn116  Zn    0.39634   0.16046   0.24461   0.00000  Uiso   1.00
C117   C     0.68177   0.26492   0.24876   0.00000  Uiso   1.00
C118   C     0.97942   0.16284   0.15856   0.00000  Uiso   1.00
C119   C     0.69636   0.17652   0.39491   0.00000  Uiso   1.00
C120   C     0.96990   0.15580   0.10518   0.00000  Uiso   1.00
C121   C     0.68844   0.22593   0.47270   0.00000  Uiso   1.00
C122   C     0.97800   0.10566   0.02778   0.00000  Uiso   1.00
C123   C     0.66967   0.21463   0.42344   0.00000  Uiso   1.00
C124   C     0.99695   0.11770   0.07694   0.00000  Uiso   1.00
C125   C     0.73848   0.14855   0.41667   0.00000  Uiso   1.00
C126   C     0.92716   0.18289   0.08327   0.00000  Uiso   1.00
C127   C     0.76615   0.16906   0.46110   0.00000  Uiso   1.00
C128   C     0.98489   0.06841   0.25119   0.00000  Uiso   1.00
C129   C     0.89933   0.16141   0.03926   0.00000  Uiso   1.00
C130   C     0.73746   0.20473   0.49109   0.00000  Uiso   1.00
C131   C     0.92833   0.12587   0.00943   0.00000  Uiso   1.00
C132   C     0.82147   0.15605   0.47634   0.00000  Uiso   1.00
C133   C     0.84374   0.17369   0.02420   0.00000  Uiso   1.00
C134   C     0.80853   0.20049   0.05643   0.00000  Uiso   1.00
C135   C     0.85659   0.12882   0.44432   0.00000  Uiso   1.00
C136   C     0.75758   0.21809   0.03933   0.00000  Uiso   1.00
C137   C     0.90784   0.11172   0.46142   0.00000  Uiso   1.00
C138   C     0.68960   0.31952   0.24801   0.00000  Uiso   1.00
C139   C     0.97704   0.01380   0.25185   0.00000  Uiso   1.00
C140   C     0.68720   0.17040   0.34145   0.00000  Uiso   1.00
H141   H     0.73353   0.24169   0.06413   0.00000  Uiso   1.00
H142   H     0.83762   0.20883   0.28645   0.00000  Uiso   1.00
H143   H     0.95784   0.25770   0.10200   0.00000  Uiso   1.00
H144   H     0.90409   0.23606   0.13688   0.00000  Uiso   1.00
H145   H     0.76115   0.09596   0.36243   0.00000  Uiso   1.00
H146   H     0.70688   0.07427   0.39672   0.00000  Uiso   1.00
H147   H     0.69174   0.06519   0.12251   0.00000  Uiso   1.00
H148   H     0.72840   0.06877   0.07098   0.00000  Uiso   1.00
H149   H     0.94858   0.27339   0.42619   0.00000  Uiso   1.00
H150   H     0.92117   0.21621   0.39907   0.00000  Uiso   1.00
H151   H     0.93197   0.08809   0.43672   0.00000  Uiso   1.00
H152   H     0.66688   0.25346   0.49573   0.00000  Uiso   1.00
H153   H     0.99970   0.07807   0.00493   0.00000  Uiso   1.00
H154   H     0.81932   0.20814   0.09523   0.00000  Uiso   1.00
H155   H     0.84582   0.12077   0.40558   0.00000  Uiso   1.00
H156   H     0.73279   0.00347   0.24435   0.00000  Uiso   1.00
H157   H     0.93385   0.32986   0.25550   0.00000  Uiso   1.00
H158   H     0.82905   0.12450   0.21356   0.00000  Uiso   1.00
N159   N     0.81362   0.15216   0.23740   0.00000  Uiso   1.00
N160   N     0.85305   0.18117   0.26261   0.00000  Uiso   1.00
N161   N     0.91859   0.23551   0.10109   0.00000  Uiso   1.00
N162   N     0.74641   0.09604   0.39813   0.00000  Uiso   1.00
N163   N     0.70951   0.09129   0.09820   0.00000  Uiso   1.00
N164   N     0.95786   0.24205   0.40229   0.00000  Uiso   1.00
O165   O     0.96386   0.24631   0.25310   0.00000  Uiso   1.00
O166   O     0.70281   0.08702   0.24691   0.00000  Uiso   1.00
O167   O     0.72488   0.23702   0.24502   0.00000  Uiso   1.00
O168   O     0.94178   0.09632   0.25499   0.00000  Uiso   1.00
O169   O     0.96995   0.17397   0.32247   0.00000  Uiso   1.00
O170   O     0.69672   0.15937   0.17753   0.00000  Uiso   1.00
O171   O     0.73098   0.16467   0.31439   0.00000  Uiso   1.00
O172   O     0.93569   0.16866   0.18561   0.00000  Uiso   1.00
Zn173  Zn    0.93700   0.17287   0.25540   0.00000  Uiso   1.00
Zn174  Zn    0.72967   0.16046   0.24461   0.00000  Uiso   1.00
C175   C     0.01510   0.59826   0.24876   0.00000  Uiso   1.00
C176   C     0.31275   0.49617   0.15856   0.00000  Uiso   1.00
C177   C     0.02970   0.50985   0.39491   0.00000  Uiso   1.00
C178   C     0.30323   0.48914   0.10518   0.00000  Uiso   1.00
C179   C     0.02177   0.55927   0.47270   0.00000  Uiso   1.00
C180   C     0.31133   0.43899   0.02778   0.00000  Uiso   1.00
C181   C     0.00300   0.54796   0.42344   0.00000  Uiso   1.00
C182   C     0.33028   0.45103   0.07694   0.00000  Uiso   1.00
C183   C     0.07181   0.48188   0.41667   0.00000  Uiso   1.00
C184   C     0.26049   0.51623   0.08327   0.00000  Uiso   1.00
C185   C     0.09949   0.50239   0.46110   0.00000  Uiso   1.00
C186   C     0.31822   0.40174   0.25119   0.00000  Uiso   1.00
C187   C     0.23267   0.49474   0.03926   0.00000  Uiso   1.00
C188   C     0.07080   0.53807   0.49109   0.00000  Uiso   1.00
C189   C     0.26166   0.45921   0.00943   0.00000  Uiso   1.00
C190   C     0.15480   0.48938   0.47634   0.00000  Uiso   1.00
C191   C     0.17708   0.50702   0.02420   0.00000  Uiso   1.00
C192   C     0.14186   0.53383   0.05643   0.00000  Uiso   1.00
C193   C     0.18993   0.46216   0.44432   0.00000  Uiso   1.00
C194   C     0.09092   0.55143   0.03933   0.00000  Uiso   1.00
C195   C     0.24118   0.44505   0.46142   0.00000  Uiso   1.00
C196   C     0.02294   0.65286   0.24801   0.00000  Uiso   1.00
C197   C     0.31038   0.34713   0.25185   0.00000  Uiso   1.00
C198   C     0.02053   0.50373   0.34145   0.00000  Uiso   1.00
H199   H     0.06686   0.57502   0.06413   0.00000  Uiso   1.00
H200   H     0.17095   0.54216   0.28645   0.00000  Uiso   1.00
H201   H     0.29117   0.59104   0.10200   0.00000  Uiso   1.00
H202   H     0.23743   0.56939   0.13688   0.00000  Uiso   1.00
H203   H     0.09448   0.42930   0.36243   0.00000  Uiso   1.00
H204   H     0.04021   0.40761   0.39672   0.00000  Uiso   1.00
H205   H     0.02507   0.39852   0.12251   0.00000  Uiso   1.00
H206   H     0.06173   0.40210   0.07098   0.00000  Uiso   1.00
H207   H     0.28191   0.60672   0.42619   0.00000  Uiso   1.00
H208   H     0.25450   0.54954   0.39907   0.00000  Uiso   1.00
H209   H     0.26530   0.42142   0.43672   0.00000  Uiso   1.00
H210   H     0.00021   0.58679   0.49573   0.00000  Uiso   1.00
H211   H     0.33303   0.41141   0.00493   0.00000  Uiso   1.00
H212   H     0.15265   0.54147   0.09523   0.00000  Uiso   1.00
H213   H     0.17915   0.45410   0.40558   0.00000  Uiso   1.00
H214   H     0.06612   0.33680   0.24435   0.00000  Uiso   1.00
H215   H     0.26719   0.66319   0.25550   0.00000  Uiso   1.00
H216   H     0.16239   0.45784   0.21356   0.00000  Uiso   1.00
N217   N     0.14695   0.48550   0.23740   0.00000  Uiso   1.00
N218   N     0.18638   0.51450   0.26261   0.00000  Uiso   1.00
N219   N     0.25193   0.56885   0.10109   0.00000  Uiso   1.00
N220   N     0.07975   0.42937   0.39813   0.00000  Uiso   1.00
N221   N     0.04284   0.42462   0.09820   0.00000  Uiso   1.00
N222   N     0.29119   0.57538   0.40229   0.00000  Uiso   1.00
O223   O     0.29719   0.57964   0.25310   0.00000  Uiso   1.00
O224   O     0.03614   0.42036   0.24691   0.00000  Uiso   1.00
O225   O     0.05822   0.57035   0.24502   0.00000  Uiso   1.00
O226   O     0.27512   0.42965   0.25499   0.00000  Uiso   1.00
O227   O     0.30328   0.50730   0.32247   0.00000  Uiso   1.00
O228   O     0.03005   0.49270   0.17753   0.00000  Uiso   1.00
O229   O     0.06431   0.49801   0.31439   0.00000  Uiso   1.00
O230   O     0.26902   0.50199   0.18561   0.00000  Uiso   1.00
Zn231  Zn    0.27033   0.50621   0.25540   0.00000  Uiso   1.00
Zn232  Zn    0.06300   0.49379   0.24461   0.00000  Uiso   1.00
C233   C     0.34844   0.59826   0.24876   0.00000  Uiso   1.00
C234   C     0.64608   0.49617   0.15856   0.00000  Uiso   1.00
C235   C     0.36303   0.50985   0.39491   0.00000  Uiso   1.00
C236   C     0.63657   0.48914   0.10518   0.00000  Uiso   1.00
C237   C     0.35511   0.55927   0.47270   0.00000  Uiso   1.00
C238   C     0.64466   0.43899   0.02778   0.00000  Uiso   1.00
C239   C     0.33633   0.54796   0.42344   0.00000  Uiso   1.00
C240   C     0.66361   0.45103   0.07694   0.00000  Uiso   1.00
C241   C     0.40514   0.48188   0.41667   0.00000  Uiso   1.00
C242   C     0.59382   0.51623   0.08327   0.00000  Uiso   1.00
C243   C     0.43282   0.50239   0.46110   0.00000  Uiso   1.00
C244   C     0.65156   0.40174   0.25119   0.00000  Uiso   1.00
C245   C     0.56600   0.49474   0.03926   0.00000  Uiso   1.00
C246   C     0.40413   0.53807   0.49109   0.00000  Uiso   1.00
C247   C     0.59500   0.45921   0.00943   0.00000  Uiso   1.00
C248   C     0.48813   0.48938   0.47634   0.00000  Uiso   1.00
C249   C     0.51041   0.50702   0.02420   0.00000  Uiso   1.00
C250   C     0.47520   0.53383   0.05643   0.00000  Uiso   1.00
C251   C     0.52326   0.46216   0.44432   0.00000  Uiso   1.00
C252   C     0.42425   0.55143   0.03933   0.00000  Uiso   1.00
C253   C     0.57451   0.44505   0.46142   0.00000  Uiso   1.00
C254   C     0.35627   0.65286   0.24801   0.00000  Uiso   1.00
C255   C     0.64371   0.34713   0.25185   0.00000  Uiso   1.00
C256   C     0.35387   0.50373   0.34145   0.00000  Uiso   1.00
H257   H     0.40019   0.57502   0.06413   0.00000  Uiso   1.00
H258   H     0.50428   0.54216   0.28645   0.00000  Uiso   1.00
H259   H     0.62451   0.59104   0.10200   0.00000  Uiso   1.00
H260   H     0.57076   0.56939   0.13688   0.00000  Uiso   1.00
H261   H     0.42781   0.42930   0.36243   0.00000  Uiso   1.00
H262   H     0.37355   0.40761   0.39672   0.00000  Uiso   1.00
H263   H     0.35841   0.39852   0.12251   0.00000  Uiso   1.00
H264   H     0.39507   0.40210   0.07098   0.00000  Uiso   1.00
H265   H     0.61524   0.60672   0.42619   0.00000  Uiso   1.00
H266   H     0.58784   0.54954   0.39907   0.00000  Uiso   1.00
H267   H     0.59864   0.42142   0.43672   0.00000  Uiso   1.00
H268   H     0.33355   0.58679   0.49573   0.00000  Uiso   1.00
H269   H     0.66636   0.41141   0.00493   0.00000  Uiso   1.00
H270   H     0.48598   0.54147   0.09523   0.00000  Uiso   1.00
H271   H     0.51249   0.45410   0.40558   0.00000  Uiso   1.00
H272   H     0.39946   0.33680   0.24435   0.00000  Uiso   1.00
H273   H     0.60052   0.66319   0.25550   0.00000  Uiso   1.00
H274   H     0.49572   0.45784   0.21356   0.00000  Uiso   1.00
N275   N     0.48029   0.48550   0.23740   0.00000  Uiso   1.00
N276   N     0.51971   0.51450   0.26261   0.00000  Uiso   1.00
N277   N     0.58526   0.56885   0.10109   0.00000  Uiso   1.00
N278   N     0.41308   0.42937   0.39813   0.00000  Uiso   1.00
N279   N     0.37617   0.42462   0.09820   0.00000  Uiso   1.00
N280   N     0.62453   0.57538   0.40229   0.00000  Uiso   1.00
O281   O     0.63052   0.57964   0.25310   0.00000  Uiso   1.00
O282   O     0.36948   0.42036   0.24691   0.00000  Uiso   1.00
O283   O     0.39155   0.57035   0.24502   0.00000  Uiso   1.00
O284   O     0.60845   0.42965   0.25499   0.00000  Uiso   1.00
O285   O     0.63662   0.50730   0.32247   0.00000  Uiso   1.00
O286   O     0.36338   0.49270   0.17753   0.00000  Uiso   1.00
O287   O     0.39764   0.49801   0.31439   0.00000  Uiso   1.00
O288   O     0.60236   0.50199   0.18561   0.00000  Uiso   1.00
Zn289  Zn    0.60366   0.50621   0.25540   0.00000  Uiso   1.00
Zn290  Zn    0.39634   0.49379   0.24461   0.00000  Uiso   1.00
C291   C     0.68177   0.59826   0.24876   0.00000  Uiso   1.00
C292   C     0.97942   0.49617   0.15856   0.00000  Uiso   1.00
C293   C     0.69636   0.50985   0.39491   0.00000  Uiso   1.00
C294   C     0.96990   0.48914   0.10518   0.00000  Uiso   1.00
C295   C     0.68844   0.55927   0.47270   0.00000  Uiso   1.00
C296   C     0.97800   0.43899   0.02778   0.00000  Uiso   1.00
C297   C     0.66967   0.54796   0.42344   0.00000  Uiso   1.00
C298   C     0.99695   0.45103   0.07694   0.00000  Uiso   1.00
C299   C     0.73848   0.48188   0.41667   0.00000  Uiso   1.00
C300   C     0.92716   0.51623   0.08327   0.00000  Uiso   1.00
C301   C     0.76615   0.50239   0.46110   0.00000  Uiso   1.00
C302   C     0.98489   0.40174   0.25119   0.00000  Uiso   1.00
C303   C     0.89933   0.49474   0.03926   0.00000  Uiso   1.00
C304   C     0.73746   0.53807   0.49109   0.00000  Uiso   1.00
C305   C     0.92833   0.45921   0.00943   0.00000  Uiso   1.00
C306   C     0.82147   0.48938   0.47634   0.00000  Uiso   1.00
C307   C     0.84374   0.50702   0.02420   0.00000  Uiso   1.00
C308   C     0.80853   0.53383   0.05643   0.00000  Uiso   1.00
C309   C     0.85659   0.46216   0.44432   0.00000  Uiso   1.00
C310   C     0.75758   0.55143   0.03933   0.00000  Uiso   1.00
C311   C     0.90784   0.44505   0.46142   0.00000  Uiso   1.00
C312   C     0.68960   0.65286   0.24801   0.00000  Uiso   1.00
C313   C     0.97704   0.34713   0.25185   0.00000  Uiso   1.00
C314   C     0.68720   0.50373   0.34145   0.00000  Uiso   1.00
H315   H     0.73353   0.57502   0.06413   0.00000  Uiso   1.00
H316   H     0.83762   0.54216   0.28645   0.00000  Uiso   1.00
H317   H     0.95784   0.59104   0.10200   0.00000  Uiso   1.00
H318   H     0.90409   0.56939   0.13688   0.00000  Uiso   1.00
H319   H     0.76115   0.42930   0.36243   0.00000  Uiso   1.00
H320   H     0.70688   0.40761   0.39672   0.00000  Uiso   1.00
H321   H     0.69174   0.39852   0.12251   0.00000  Uiso   1.00
H322   H     0.72840   0.40210   0.07098   0.00000  Uiso   1.00
H323   H     0.94858   0.60672   0.42619   0.00000  Uiso   1.00
H324   H     0.92117   0.54954   0.39907   0.00000  Uiso   1.00
H325   H     0.93197   0.42142   0.43672   0.00000  Uiso   1.00
H326   H     0.66688   0.58679   0.49573   0.00000  Uiso   1.00
H327   H     0.99970   0.41141   0.00493   0.00000  Uiso   1.00
H328   H     0.81932   0.54147   0.09523   0.00000  Uiso   1.00
H329   H     0.84582   0.45410   0.40558   0.00000  Uiso   1.00
H330   H     0.73279   0.33680   0.24435   0.00000  Uiso   1.00
H331   H     0.93385   0.66319   0.25550   0.00000  Uiso   1.00
H332   H     0.82905   0.45784   0.21356   0.00000  Uiso   1.00
N333   N     0.81362   0.48550   0.23740   0.00000  Uiso   1.00
N334   N     0.85305   0.51450   0.26261   0.00000  Uiso   1.00
N335   N     0.91859   0.56885   0.10109   0.00000  Uiso   1.00
N336   N     0.74641   0.42937   0.39813   0.00000  Uiso   1.00
N337   N     0.70951   0.42462   0.09820   0.00000  Uiso   1.00
N338   N     0.95786   0.57538   0.40229   0.00000  Uiso   1.00
O339   O     0.96386   0.57964   0.25310   0.00000  Uiso   1.00
O340   O     0.70281   0.42036   0.24691   0.00000  Uiso   1.00
O341   O     0.72488   0.57035   0.24502   0.00000  Uiso   1.00
O342   O     0.94178   0.42965   0.25499   0.00000  Uiso   1.00
O343   O     0.96995   0.50730   0.32247   0.00000  Uiso   1.00
O344   O     0.69672   0.49270   0.17753   0.00000  Uiso   1.00
O345   O     0.73098   0.49801   0.31439   0.00000  Uiso   1.00
O346   O     0.93569   0.50199   0.18561   0.00000  Uiso   1.00
Zn347  Zn    0.93700   0.50621   0.25540   0.00000  Uiso   1.00
Zn348  Zn    0.72967   0.49379   0.24461   0.00000  Uiso   1.00
C349   C     0.01510   0.93159   0.24876   0.00000  Uiso   1.00
C350   C     0.31275   0.82951   0.15856   0.00000  Uiso   1.00
C351   C     0.02970   0.84318   0.39491   0.00000  Uiso   1.00
C352   C     0.30323   0.82247   0.10518   0.00000  Uiso   1.00
C353   C     0.02177   0.89260   0.47270   0.00000  Uiso   1.00
C354   C     0.31133   0.77232   0.02778   0.00000  Uiso   1.00
C355   C     0.00300   0.88129   0.42344   0.00000  Uiso   1.00
C356   C     0.33028   0.78436   0.07694   0.00000  Uiso   1.00
C357   C     0.07181   0.81521   0.41667   0.00000  Uiso   1.00
C358   C     0.26049   0.84956   0.08327   0.00000  Uiso   1.00
C359   C     0.09949   0.83572   0.46110   0.00000  Uiso   1.00
C360   C     0.31822   0.73507   0.25119   0.00000  Uiso   1.00
C361   C     0.23267   0.82807   0.03926   0.00000  Uiso   1.00
C362   C     0.07080   0.87140   0.49109   0.00000  Uiso   1.00
C363   C     0.26166   0.79254   0.00943   0.00000  Uiso   1.00
C364   C     0.15480   0.82271   0.47634   0.00000  Uiso   1.00
C365   C     0.17708   0.84036   0.02420   0.00000  Uiso   1.00
C366   C     0.14186   0.86716   0.05643   0.00000  Uiso   1.00
C367   C     0.18993   0.79549   0.44432   0.00000  Uiso   1.00
C368   C     0.09092   0.88476   0.03933   0.00000  Uiso   1.00
C369   C     0.24118   0.77839   0.46142   0.00000  Uiso   1.00
C370   C     0.02294   0.98619   0.24801   0.00000  Uiso   1.00
C371   C     0.31038   0.68047   0.25185   0.00000  Uiso   1.00
C372   C     0.02053   0.83706   0.34145   0.00000  Uiso   1.00
H373   H     0.06686   0.90836   0.06413   0.00000  Uiso   1.00
H374   H     0.17095   0.87549   0.28645   0.00000  Uiso   1.00
H375   H     0.29117   0.92437   0.10200   0.00000  Uiso   1.00
H376   H     0.23743   0.90272   0.13688   0.00000  Uiso   1.00
H377   H     0.09448   0.76263   0.36243   0.00000  Uiso   1.00
H378   H     0.04021   0.74094   0.39672   0.00000  Uiso   1.00
H379   H     0.02507   0.73185   0.12251   0.00000  Uiso   1.00
H380   H     0.06173   0.73543   0.07098   0.00000  Uiso   1.00
H381   H     0.28191   0.94006   0.42619   0.00000  Uiso   1.00
H382   H     0.25450   0.88288   0.39907   0.00000  Uiso   1.00
H383   H     0.26530   0.75475   0.43672   0.00000  Uiso   1.00
H384   H     0.00021   0.92013   0.49573   0.00000  Uiso   1.00
H385   H     0.33303   0.74474   0.00493   0.00000  Uiso   1.00
H386   H     0.15265   0.87481   0.09523   0.00000  Uiso   1.00
H387   H     0.17915   0.78743   0.40558   0.00000  Uiso   1.00
H388   H     0.06612   0.67013   0.24435   0.00000  Uiso   1.00
H389   H     0.26719   0.99652   0.25550   0.00000  Uiso   1.00
H390   H     0.16239   0.79117   0.21356   0.00000  Uiso   1.00
N391   N     0.14695   0.81883   0.23740   0.00000  Uiso   1.00
N392   N     0.18638   0.84784   0.26261   0.00000  Uiso   1.00
N393   N     0.25193   0.90218   0.10109   0.00000  Uiso   1.00
N394   N     0.07975   0.76271   0.39813   0.00000  Uiso   1.00
N395   N     0.04284   0.75796   0.09820   0.00000  Uiso   1.00
N396   N     0.29119   0.90871   0.40229   0.00000  Uiso   1.00
O397   O     0.29719   0.91298   0.25310   0.00000  Uiso   1.00
O398   O     0.03614   0.75369   0.24691   0.00000  Uiso   1.00
O399   O     0.05822   0.90368   0.24502   0.00000  Uiso   1.00
O400   O     0.27512   0.76298   0.25499   0.00000  Uiso   1.00
O401   O     0.30328   0.84063   0.32247   0.00000  Uiso   1.00
O402   O     0.03005   0.82603   0.17753   0.00000  Uiso   1.00
O403   O     0.06431   0.83134   0.31439   0.00000  Uiso   1.00
O404   O     0.26902   0.83533   0.18561   0.00000  Uiso   1.00
Zn405  Zn    0.27033   0.83954   0.25540   0.00000  Uiso   1.00
Zn406  Zn    0.06300   0.82713   0.24461   0.00000  Uiso   1.00
C407   C     0.34844   0.93159   0.24876   0.00000  Uiso   1.00
C408   C     0.64608   0.82951   0.15856   0.00000  Uiso   1.00
C409   C     0.36303   0.84318   0.39491   0.00000  Uiso   1.00
C410   C     0.63657   0.82247   0.10518   0.00000  Uiso   1.00
C411   C     0.35511   0.89260   0.47270   0.00000  Uiso   1.00
C412   C     0.64466   0.77232   0.02778   0.00000  Uiso   1.00
C413   C     0.33633   0.88129   0.42344   0.00000  Uiso   1.00
C414   C     0.66361   0.78436   0.07694   0.00000  Uiso   1.00
C415   C     0.40514   0.81521   0.41667   0.00000  Uiso   1.00
C416   C     0.59382   0.84956   0.08327   0.00000  Uiso   1.00
C417   C     0.43282   0.83572   0.46110   0.00000  Uiso   1.00
C418   C     0.65156   0.73507   0.25119   0.00000  Uiso   1.00
C419   C     0.56600   0.82807   0.03926   0.00000  Uiso   1.00
C420   C     0.40413   0.87140   0.49109   0.00000  Uiso   1.00
C421   C     0.59500   0.79254   0.00943   0.00000  Uiso   1.00
C422   C     0.48813   0.82271   0.47634   0.00000  Uiso   1.00
C423   C     0.51041   0.84036   0.02420   0.00000  Uiso   1.00
C424   C     0.47520   0.86716   0.05643   0.00000  Uiso   1.00
C425   C     0.52326   0.79549   0.44432   0.00000  Uiso   1.00
C426   C     0.42425   0.88476   0.03933   0.00000  Uiso   1.00
C427   C     0.57451   0.77839   0.46142   0.00000  Uiso   1.00
C428   C     0.35627   0.98619   0.24801   0.00000  Uiso   1.00
C429   C     0.64371   0.68047   0.25185   0.00000  Uiso   1.00
C430   C     0.35387   0.83706   0.34145   0.00000  Uiso   1.00
H431   H     0.40019   0.90836   0.06413   0.00000  Uiso   1.00
H432   H     0.50428   0.87549   0.28645   0.00000  Uiso   1.00
H433   H     0.62451   0.92437   0.10200   0.00000  Uiso   1.00
H434   H     0.57076   0.90272   0.13688   0.00000  Uiso   1.00
H435   H     0.42781   0.76263   0.36243   0.00000  Uiso   1.00
H436   H     0.37355   0.74094   0.39672   0.00000  Uiso   1.00
H437   H     0.35841   0.73185   0.12251   0.00000  Uiso   1.00
H438   H     0.39507   0.73543   0.07098   0.00000  Uiso   1.00
H439   H     0.61524   0.94006   0.42619   0.00000  Uiso   1.00
H440   H     0.58784   0.88288   0.39907   0.00000  Uiso   1.00
H441   H     0.59864   0.75475   0.43672   0.00000  Uiso   1.00
H442   H     0.33355   0.92013   0.49573   0.00000  Uiso   1.00
H443   H     0.66636   0.74474   0.00493   0.00000  Uiso   1.00
H444   H     0.48598   0.87481   0.09523   0.00000  Uiso   1.00
H445   H     0.51249   0.78743   0.40558   0.00000  Uiso   1.00
H446   H     0.39946   0.67013   0.24435   0.00000  Uiso   1.00
H447   H     0.60052   0.99652   0.25550   0.00000  Uiso   1.00
H448   H     0.49572   0.79117   0.21356   0.00000  Uiso   1.00
N449   N     0.48029   0.81883   0.23740   0.00000  Uiso   1.00
N450   N     0.51971   0.84784   0.26261   0.00000  Uiso   1.00
N451   N     0.58526   0.90218   0.10109   0.00000  Uiso   1.00
N452   N     0.41308   0.76271   0.39813   0.00000  Uiso   1.00
N453   N     0.37617   0.75796   0.09820   0.00000  Uiso   1.00
N454   N     0.62453   0.90871   0.40229   0.00000  Uiso   1.00
O455   O     0.63052   0.91298   0.25310   0.00000  Uiso   1.00
O456   O     0.36948   0.75369   0.24691   0.00000  Uiso   1.00
O457   O     0.39155   0.90368   0.24502   0.00000  Uiso   1.00
O458   O     0.60845   0.76298   0.25499   0.00000  Uiso   1.00
O459   O     0.63662   0.84063   0.32247   0.00000  Uiso   1.00
O460   O     0.36338   0.82603   0.17753   0.00000  Uiso   1.00
O461   O     0.39764   0.83134   0.31439   0.00000  Uiso   1.00
O462   O     0.60236   0.83533   0.18561   0.00000  Uiso   1.00
Zn463  Zn    0.60366   0.83954   0.25540   0.00000  Uiso   1.00
Zn464  Zn    0.39634   0.82713   0.24461   0.00000  Uiso   1.00
C465   C     0.68177   0.93159   0.24876   0.00000  Uiso   1.00
C466   C     0.97942   0.82951   0.15856   0.00000  Uiso   1.00
C467   C     0.69636   0.84318   0.39491   0.00000  Uiso   1.00
C468   C     0.96990   0.82247   0.10518   0.00000  Uiso   1.00
C469   C     0.68844   0.89260   0.47270   0.00000  Uiso   1.00
C470   C     0.97800   0.77232   0.02778   0.00000  Uiso   1.00
C471   C     0.66967   0.88129   0.42344   0.00000  Uiso   1.00
C472   C     0.99695   0.78436   0.07694   0.00000  Uiso   1.00
C473   C     0.73848   0.81521   0.41667   0.00000  Uiso   1.00
C474   C     0.92716   0.84956   0.08327   0.00000  Uiso   1.00
C475   C     0.76615   0.83572   0.46110   0.00000  Uiso   1.00
C476   C     0.98489   0.73507   0.25119   0.00000  Uiso   1.00
C477   C     0.89933   0.82807   0.03926   0.00000  Uiso   1.00
C478   C     0.73746   0.87140   0.49109   0.00000  Uiso   1.00
C479   C     0.92833   0.79254   0.00943   0.00000  Uiso   1.00
C480   C     0.82147   0.82271   0.47634   0.00000  Uiso   1.00
C481   C     0.84374   0.84036   0.02420   0.00000  Uiso   1.00
C482   C     0.80853   0.86716   0.05643   0.00000  Uiso   1.00
C483   C     0.85659   0.79549   0.44432   0.00000  Uiso   1.00
C484   C     0.75758   0.88476   0.03933   0.00000  Uiso   1.00
C485   C     0.90784   0.77839   0.46142   0.00000  Uiso   1.00
C486   C     0.68960   0.98619   0.24801   0.00000  Uiso   1.00
C487   C     0.97704   0.68047   0.25185   0.00000  Uiso   1.00
C488   C     0.68720   0.83706   0.34145   0.00000  Uiso   1.00
H489   H     0.73353   0.90836   0.06413   0.00000  Uiso   1.00
H490   H     0.83762   0.87549   0.28645   0.00000  Uiso   1.00
H491   H     0.95784   0.92437   0.10200   0.00000  Uiso   1.00
H492   H     0.90409   0.90272   0.13688   0.00000  Uiso   1.00
H493   H     0.76115   0.76263   0.36243   0.00000  Uiso   1.00
H494   H     0.70688   0.74094   0.39672   0.00000  Uiso   1.00
H495   H     0.69174   0.73185   0.12251   0.00000  Uiso   1.00
H496   H     0.72840   0.73543   0.07098   0.00000  Uiso   1.00
H497   H     0.94858   0.94006   0.42619   0.00000  Uiso   1.00
H498   H     0.92117   0.88288   0.39907   0.00000  Uiso   1.00
H499   H     0.93197   0.75475   0.43672   0.00000  Uiso   1.00
H500   H     0.66688   0.92013   0.49573   0.00000  Uiso   1.00
H501   H     0.99970   0.74474   0.00493   0.00000  Uiso   1.00
H502   H     0.81932   0.87481   0.09523   0.00000  Uiso   1.00
H503   H     0.84582   0.78743   0.40558   0.00000  Uiso   1.00
H504   H     0.73279   0.67013   0.24435   0.00000  Uiso   1.00
H505   H     0.93385   0.99652   0.25550   0.00000  Uiso   1.00
H506   H     0.82905   0.79117   0.21356   0.00000  Uiso   1.00
N507   N     0.81362   0.81883   0.23740   0.00000  Uiso   1.00
N508   N     0.85305   0.84784   0.26261   0.00000  Uiso   1.00
N509   N     0.91859   0.90218   0.10109   0.00000  Uiso   1.00
N510   N     0.74641   0.76271   0.39813   0.00000  Uiso   1.00
N511   N     0.70951   0.75796   0.09820   0.00000  Uiso   1.00
N512   N     0.95786   0.90871   0.40229   0.00000  Uiso   1.00
O513   O     0.96386   0.91298   0.25310   0.00000  Uiso   1.00
O514   O     0.70281   0.75369   0.24691   0.00000  Uiso   1.00
O515   O     0.72488   0.90368   0.24502   0.00000  Uiso   1.00
O516   O     0.94178   0.76298   0.25499   0.00000  Uiso   1.00
O517   O     0.96995   0.84063   0.32247   0.00000  Uiso   1.00
O518   O     0.69672   0.82603   0.17753   0.00000  Uiso   1.00
O519   O     0.73098   0.83134   0.31439   0.00000  Uiso   1.00
O520   O     0.93569   0.83533   0.18561   0.00000  Uiso   1.00
Zn521  Zn    0.93700   0.83954   0.25540   0.00000  Uiso   1.00
Zn522  Zn    0.72967   0.82713   0.24461   0.00000  Uiso   1.00
C523   C     0.01510   0.26492   0.74876   0.00000  Uiso   1.00
C524   C     0.31275   0.16284   0.65856   0.00000  Uiso   1.00
C525   C     0.02970   0.17652   0.89491   0.00000  Uiso   1.00
C526   C     0.30323   0.15580   0.60518   0.00000  Uiso   1.00
C527   C     0.02177   0.22593   0.97270   0.00000  Uiso   1.00
C528   C     0.31133   0.10566   0.52778   0.00000  Uiso   1.00
C529   C     0.00300   0.21463   0.92344   0.00000  Uiso   1.00
C530   C     0.33028   0.11770   0.57694   0.00000  Uiso   1.00
C531   C     0.07181   0.14855   0.91667   0.00000  Uiso   1.00
C532   C     0.26049   0.18289   0.58327   0.00000  Uiso   1.00
C533   C     0.09949   0.16906   0.96110   0.00000  Uiso   1.00
C534   C     0.31822   0.06841   0.75119   0.00000  Uiso   1.00
C535   C     0.23267   0.16141   0.53926   0.00000  Uiso   1.00
C536   C     0.07080   0.20473   0.99109   0.00000  Uiso   1.00
C537   C     0.26166   0.12587   0.50943   0.00000  Uiso   1.00
C538   C     0.15480   0.15605   0.97634   0.00000  Uiso   1.00
C539   C     0.17708   0.17369   0.52420   0.00000  Uiso   1.00
C540   C     0.14186   0.20049   0.55643   0.00000  Uiso   1.00
C541   C     0.18993   0.12882   0.94432   0.00000  Uiso   1.00
C542   C     0.09092   0.21809   0.53933   0.00000  Uiso   1.00
C543   C     0.24118   0.11172   0.96142   0.00000  Uiso   1.00
C544   C     0.02294   0.31952   0.74801   0.00000  Uiso   1.00
C545   C     0.31038   0.01380   0.75185   0.00000  Uiso   1.00
C546   C     0.02053   0.17040   0.84145   0.00000  Uiso   1.00
H547   H     0.06686   0.24169   0.56413   0.00000  Uiso   1.00
H548   H     0.17095   0.20883   0.78645   0.00000  Uiso   1.00
H549   H     0.29117   0.25770   0.60200   0.00000  Uiso   1.00
H550   H     0.23743   0.23606   0.63688   0.00000  Uiso   1.00
H551   H     0.09448   0.09596   0.86243   0.00000  Uiso   1.00
H552   H     0.04021   0.07427   0.89672   0.00000  Uiso   1.00
H553   H     0.02507   0.06519   0.62251   0.00000  Uiso   1.00
H554   H     0.06173   0.06877   0.57098   0.00000  Uiso   1.00
H555   H     0.28191   0.27339   0.92619   0.00000  Uiso   1.00
H556   H     0.25450   0.21621   0.89907   0.00000  Uiso   1.00
H557   H     0.26530   0.08809   0.93672   0.00000  Uiso   1.00
H558   H     0.00021   0.25346   0.99573   0.00000  Uiso   1.00
H559   H     0.33303   0.07807   0.50493   0.00000  Uiso   1.00
H560   H     0.15265   0.20814   0.59523   0.00000  Uiso   1.00
H561   H     0.17915   0.12077   0.90558   0.00000  Uiso   1.00
H562   H     0.06612   0.00347   0.74435   0.00000  Uiso   1.00
H563   H     0.26719   0.32986   0.75550   0.00000  Uiso   1.00
H564   H     0.16239   0.12450   0.71356   0.00000  Uiso   1.00
N565   N     0.14695   0.15216   0.73740   0.00000  Uiso   1.00
N566   N     0.18638   0.18117   0.76261   0.00000  Uiso   1.00
N567   N     0.25193   0.23551   0.60109   0.00000  Uiso   1.00
N568   N     0.07975   0.09604   0.89813   0.00000  Uiso   1.00
N569   N     0.04284   0.09129   0.59820   0.00000  Uiso   1.00
N570   N     0.29119   0.24205   0.90229   0.00000  Uiso   1.00
O571   O     0.29719   0.24631   0.75310   0.00000  Uiso   1.00
O572   O     0.03614   0.08702   0.74691   0.00000  Uiso   1.00
O573   O     0.05822   0.23702   0.74502   0.00000  Uiso   1.00
O574   O     0.27512   0.09632   0.75499   0.00000  Uiso   1.00
O575   O     0.30328   0.17397   0.82247   0.00000  Uiso   1.00
O576   O     0.03005   0.15937   0.67753   0.00000  Uiso   1.00
O577   O     0.06431   0.16467   0.81439   0.00000  Uiso   1.00
O578   O     0.26902   0.16866   0.68561   0.00000  Uiso   1.00
Zn579  Zn    0.27033   0.17287   0.75540   0.00000  Uiso   1.00
Zn580  Zn    0.06300   0.16046   0.74461   0.00000  Uiso   1.00
C581   C     0.34844   0.26492   0.74876   0.00000  Uiso   1.00
C582   C     0.64608   0.16284   0.65856   0.00000  Uiso   1.00
C583   C     0.36303   0.17652   0.89491   0.00000  Uiso   1.00
C584   C     0.63657   0.15580   0.60518   0.00000  Uiso   1.00
C585   C     0.35511   0.22593   0.97270   0.00000  Uiso   1.00
C586   C     0.64466   0.10566   0.52778   0.00000  Uiso   1.00
C587   C     0.33633   0.21463   0.92344   0.00000  Uiso   1.00
C588   C     0.66361   0.11770   0.57694   0.00000  Uiso   1.00
C589   C     0.40514   0.14855   0.91667   0.00000  Uiso   1.00
C590   C     0.59382   0.18289   0.58327   0.00000  Uiso   1.00
C591   C     0.43282   0.16906   0.96110   0.00000  Uiso   1.00
C592   C     0.65156   0.06841   0.75119   0.00000  Uiso   1.00
C593   C     0.56600   0.16141   0.53926   0.00000  Uiso   1.00
C594   C     0.40413   0.20473   0.99109   0.00000  Uiso   1.00
C595   C     0.59500   0.12587   0.50943   0.00000  Uiso   1.00
C596   C     0.48813   0.15605   0.97634   0.00000  Uiso   1.00
C597   C     0.51041   0.17369   0.52420   0.00000  Uiso   1.00
C598   C     0.47520   0.20049   0.55643   0.00000  Uiso   1.00
C599   C     0.52326   0.12882   0.94432   0.00000  Uiso   1.00
C600   C     0.42425   0.21809   0.53933   0.00000  Uiso   1.00
C601   C     0.57451   0.11172   0.96142   0.00000  Uiso   1.00
C602   C     0.35627   0.31952   0.74801   0.00000  Uiso   1.00
C603   C     0.64371   0.01380   0.75185   0.00000  Uiso   1.00
C604   C     0.35387   0.17040   0.84145   0.00000  Uiso   1.00
H605   H     0.40019   0.24169   0.56413   0.00000  Uiso   1.00
H606   H     0.50428   0.20883   0.78645   0.00000  Uiso   1.00
H607   H     0.62451   0.25770   0.60200   0.00000  Uiso   1.00
H608   H     0.57076   0.23606   0.63688   0.00000  Uiso   1.00
H609   H     0.42781   0.09596   0.86243   0.00000  Uiso   1.00
H610   H     0.37355   0.07427   0.89672   0.00000  Uiso   1.00
H611   H     0.35841   0.06519   0.62251   0.00000  Uiso   1.00
H612   H     0.39507   0.06877   0.57098   0.00000  Uiso   1.00
H613   H     0.61524   0.27339   0.92619   0.00000  Uiso   1.00
H614   H     0.58784   0.21621   0.89907   0.00000  Uiso   1.00
H615   H     0.59864   0.08809   0.93672   0.00000  Uiso   1.00
H616   H     0.33355   0.25346   0.99573   0.00000  Uiso   1.00
H617   H     0.66636   0.07807   0.50493   0.00000  Uiso   1.00
H618   H     0.48598   0.20814   0.59523   0.00000  Uiso   1.00
H619   H     0.51249   0.12077   0.90558   0.00000  Uiso   1.00
H620   H     0.39946   0.00347   0.74435   0.00000  Uiso   1.00
H621   H     0.60052   0.32986   0.75550   0.00000  Uiso   1.00
H622   H     0.49572   0.12450   0.71356   0.00000  Uiso   1.00
N623   N     0.48029   0.15216   0.73740   0.00000  Uiso   1.00
N624   N     0.51971   0.18117   0.76261   0.00000  Uiso   1.00
N625   N     0.58526   0.23551   0.60109   0.00000  Uiso   1.00
N626   N     0.41308   0.09604   0.89813   0.00000  Uiso   1.00
N627   N     0.37617   0.09129   0.59820   0.00000  Uiso   1.00
N628   N     0.62453   0.24205   0.90229   0.00000  Uiso   1.00
O629   O     0.63052   0.24631   0.75310   0.00000  Uiso   1.00
O630   O     0.36948   0.08702   0.74691   0.00000  Uiso   1.00
O631   O     0.39155   0.23702   0.74502   0.00000  Uiso   1.00
O632   O     0.60845   0.09632   0.75499   0.00000  Uiso   1.00
O633   O     0.63662   0.17397   0.82247   0.00000  Uiso   1.00
O634   O     0.36338   0.15937   0.67753   0.00000  Uiso   1.00
O635   O     0.39764   0.16467   0.81439   0.00000  Uiso   1.00
O636   O     0.60236   0.16866   0.68561   0.00000  Uiso   1.00
Zn637  Zn    0.60366   0.17287   0.75540   0.00000  Uiso   1.00
Zn638  Zn    0.39634   0.16046   0.74461   0.00000  Uiso   1.00
C639   C     0.68177   0.26492   0.74876   0.00000  Uiso   1.00
C640   C     0.97942   0.16284   0.65856   0.00000  Uiso   1.00
C641   C     0.69636   0.17652   0.89491   0.00000  Uiso   1.00
C642   C     0.96990   0.15580   0.60518   0.00000  Uiso   1.00
C643   C     0.68844   0.22593   0.97270   0.00000  Uiso   1.00
C644   C     0.97800   0.10566   0.52778   0.00000  Uiso   1.00
C645   C     0.66967   0.21463   0.92344   0.00000  Uiso   1.00
C646   C     0.99695   0.11770   0.57694   0.00000  Uiso   1.00
C647   C     0.73848   0.14855   0.91667   0.00000  Uiso   1.00
C648   C     0.92716   0.18289   0.58327   0.00000  Uiso   1.00
C649   C     0.76615   0.16906   0.96110   0.00000  Uiso   1.00
C650   C     0.98489   0.06841   0.75119   0.00000  Uiso   1.00
C651   C     0.89933   0.16141   0.53926   0.00000  Uiso   1.00
C652   C     0.73746   0.20473   0.99109   0.00000  Uiso   1.00
C653   C     0.92833   0.12587   0.50943   0.00000  Uiso   1.00
C654   C     0.82147   0.15605   0.97634   0.00000  Uiso   1.00
C655   C     0.84374   0.17369   0.52420   0.00000  Uiso   1.00
C656   C     0.80853   0.20049   0.55643   0.00000  Uiso   1.00
C657   C     0.85659   0.12882   0.94432   0.00000  Uiso   1.00
C658   C     0.75758   0.21809   0.53933   0.00000  Uiso   1.00
C659   C     0.90784   0.11172   0.96142   0.00000  Uiso   1.00
C660   C     0.68960   0.31952   0.74801   0.00000  Uiso   1.00
C661   C     0.97704   0.01380   0.75185   0.00000  Uiso   1.00
C662   C     0.68720   0.17040   0.84145   0.00000  Uiso   1.00
H663   H     0.73353   0.24169   0.56413   0.00000  Uiso   1.00
H664   H     0.83762   0.20883   0.78645   0.00000  Uiso   1.00
H665   H     0.95784   0.25770   0.60200   0.00000  Uiso   1.00
H666   H     0.90409   0.23606   0.63688   0.00000  Uiso   1.00
H667   H     0.76115   0.09596   0.86243   0.00000  Uiso   1.00
H668   H     0.70688   0.07427   0.89672   0.00000  Uiso   1.00
H669   H     0.69174   0.06519   0.62251   0.00000  Uiso   1.00
H670   H     0.72840   0.06877   0.57098   0.00000  Uiso   1.00
H671   H     0.94858   0.27339   0.92619   0.00000  Uiso   1.00
H672   H     0.92117   0.21621   0.89907   0.00000  Uiso   1.00
H673   H     0.93197   0.08809   0.93672   0.00000  Uiso   1.00
H674   H     0.66688   0.25346   0.99573   0.00000  Uiso   1.00
H675   H     0.99970   0.07807   0.50493   0.00000  Uiso   1.00
H676   H     0.81932   0.20814   0.59523   0.00000  Uiso   1.00
H677   H     0.84582   0.12077   0.90558   0.00000  Uiso   1.00
H678   H     0.73279   0.00347   0.74435   0.00000  Uiso   1.00
H679   H     0.93385   0.32986   0.75550   0.00000  Uiso   1.00
H680   H     0.82905   0.12450   0.71356   0.00000  Uiso   1.00
N681   N     0.81362   0.15216   0.73740   0.00000  Uiso   1.00
N682   N     0.85305   0.18117   0.76261   0.00000  Uiso   1.00
N683   N     0.91859   0.23551   0.60109   0.00000  Uiso   1.00
N684   N     0.74641   0.09604   0.89813   0.00000  Uiso   1.00
N685   N     0.70951   0.09129   0.59820   0.00000  Uiso   1.00
N686   N     0.95786   0.24205   0.90229   0.00000  Uiso   1.00
O687   O     0.96386   0.24631   0.75310   0.00000  Uiso   1.00
O688   O     0.70281   0.08702   0.74691   0.00000  Uiso   1.00
O689   O     0.72488   0.23702   0.74502   0.00000  Uiso   1.00
O690   O     0.94178   0.09632   0.75499   0.00000  Uiso   1.00
O691   O     0.96995   0.17397   0.82247   0.00000  Uiso   1.00
O692   O     0.69672   0.15937   0.67753   0.00000  Uiso   1.00
O693   O     0.73098   0.16467   0.81439   0.00000  Uiso   1.00
O694   O     0.93569   0.16866   0.68561   0.00000  Uiso   1.00
Zn695  Zn    0.93700   0.17287   0.75540   0.00000  Uiso   1.00
Zn696  Zn    0.72967   0.16046   0.74461   0.00000  Uiso   1.00
C697   C     0.01510   0.59826   0.74876   0.00000  Uiso   1.00
C698   C     0.31275   0.49617   0.65856   0.00000  Uiso   1.00
C699   C     0.02970   0.50985   0.89491   0.00000  Uiso   1.00
C700   C     0.30323   0.48914   0.60518   0.00000  Uiso   1.00
C701   C     0.02177   0.55927   0.97270   0.00000  Uiso   1.00
C702   C     0.31133   0.43899   0.52778   0.00000  Uiso   1.00
C703   C     0.00300   0.54796   0.92344   0.00000  Uiso   1.00
C704   C     0.33028   0.45103   0.57694   0.00000  Uiso   1.00
C705   C     0.07181   0.48188   0.91667   0.00000  Uiso   1.00
C706   C     0.26049   0.51623   0.58327   0.00000  Uiso   1.00
C707   C     0.09949   0.50239   0.96110   0.00000  Uiso   1.00
C708   C     0.31822   0.40174   0.75119   0.00000  Uiso   1.00
C709   C     0.23267   0.49474   0.53926   0.00000  Uiso   1.00
C710   C     0.07080   0.53807   0.99109   0.00000  Uiso   1.00
C711   C     0.26166   0.45921   0.50943   0.00000  Uiso   1.00
C712   C     0.15480   0.48938   0.97634   0.00000  Uiso   1.00
C713   C     0.17708   0.50702   0.52420   0.00000  Uiso   1.00
C714   C     0.14186   0.53383   0.55643   0.00000  Uiso   1.00
C715   C     0.18993   0.46216   0.94432   0.00000  Uiso   1.00
C716   C     0.09092   0.55143   0.53933   0.00000  Uiso   1.00
C717   C     0.24118   0.44505   0.96142   0.00000  Uiso   1.00
C718   C     0.02294   0.65286   0.74801   0.00000  Uiso   1.00
C719   C     0.31038   0.34713   0.75185   0.00000  Uiso   1.00
C720   C     0.02053   0.50373   0.84145   0.00000  Uiso   1.00
H721   H     0.06686   0.57502   0.56413   0.00000  Uiso   1.00
H722   H     0.17095   0.54216   0.78645   0.00000  Uiso   1.00
H723   H     0.29117   0.59104   0.60200   0.00000  Uiso   1.00
H724   H     0.23743   0.56939   0.63688   0.00000  Uiso   1.00
H725   H     0.09448   0.42930   0.86243   0.00000  Uiso   1.00
H726   H     0.04021   0.40761   0.89672   0.00000  Uiso   1.00
H727   H     0.02507   0.39852   0.62251   0.00000  Uiso   1.00
H728   H     0.06173   0.40210   0.57098   0.00000  Uiso   1.00
H729   H     0.28191   0.60672   0.92619   0.00000  Uiso   1.00
H730   H     0.25450   0.54954   0.89907   0.00000  Uiso   1.00
H731   H     0.26530   0.42142   0.93672   0.00000  Uiso   1.00
H732   H     0.00021   0.58679   0.99573   0.00000  Uiso   1.00
H733   H     0.33303   0.41141   0.50493   0.00000  Uiso   1.00
H734   H     0.15265   0.54147   0.59523   0.00000  Uiso   1.00
H735   H     0.17915   0.45410   0.90558   0.00000  Uiso   1.00
H736   H     0.06612   0.33680   0.74435   0.00000  Uiso   1.00
H737   H     0.26719   0.66319   0.75550   0.00000  Uiso   1.00
H738   H     0.16239   0.45784   0.71356   0.00000  Uiso   1.00
N739   N     0.14695   0.48550   0.73740   0.00000  Uiso   1.00
N740   N     0.18638   0.51450   0.76261   0.00000  Uiso   1.00
N741   N     0.25193   0.56885   0.60109   0.00000  Uiso   1.00
N742   N     0.07975   0.42937   0.89813   0.00000  Uiso   1.00
N743   N     0.04284   0.42462   0.59820   0.00000  Uiso   1.00
N744   N     0.29119   0.57538   0.90229   0.00000  Uiso   1.00
O745   O     0.29719   0.57964   0.75310   0.00000  Uiso   1.00
O746   O     0.03614   0.42036   0.74691   0.00000  Uiso   1.00
O747   O     0.05822   0.57035   0.74502   0.00000  Uiso   1.00
O748   O     0.27512   0.42965   0.75499   0.00000  Uiso   1.00
O749   O     0.30328   0.50730   0.82247   0.00000  Uiso   1.00
O750   O     0.03005   0.49270   0.67753   0.00000  Uiso   1.00
O751   O     0.06431   0.49801   0.81439   0.00000  Uiso   1.00
O752   O     0.26902   0.50199   0.68561   0.00000  Uiso   1.00
Zn753  Zn    0.27033   0.50621   0.75540   0.00000  Uiso   1.00
Zn754  Zn    0.06300   0.49379   0.74461   0.00000  Uiso   1.00
C755   C     0.34844   0.59826   0.74876   0.00000  Uiso   1.00
C756   C     0.64608   0.49617   0.65856   0.00000  Uiso   1.00
C757   C     0.36303   0.50985   0.89491   0.00000  Uiso   1.00
C758   C     0.63657   0.48914   0.60518   0.00000  Uiso   1.00
C759   C     0.35511   0.55927   0.97270   0.00000  Uiso   1.00
C760   C     0.64466   0.43899   0.52778   0.00000  Uiso   1.00
C761   C     0.33633   0.54796   0.92344   0.00000  Uiso   1.00
C762   C     0.66361   0.45103   0.57694   0.00000  Uiso   1.00
C763   C     0.40514   0.48188   0.91667   0.00000  Uiso   1.00
C764   C     0.59382   0.51623   0.58327   0.00000  Uiso   1.00
C765   C     0.43282   0.50239   0.96110   0.00000  Uiso   1.00
C766   C     0.65156   0.40174   0.75119   0.00000  Uiso   1.00
C767   C     0.56600   0.49474   0.53926   0.00000  Uiso   1.00
C768   C     0.40413   0.53807   0.99109   0.00000  Uiso   1.00
C769   C     0.59500   0.45921   0.50943   0.00000  Uiso   1.00
C770   C     0.48813   0.48938   0.97634   0.00000  Uiso   1.00
C771   C     0.51041   0.50702   0.52420   0.00000  Uiso   1.00
C772   C     0.47520   0.53383   0.55643   0.00000  Uiso   1.00
C773   C     0.52326   0.46216   0.94432   0.00000  Uiso   1.00
C774   C     0.42425   0.55143   0.53933   0.00000  Uiso   1.00
C775   C     0.57451   0.44505   0.96142   0.00000  Uiso   1.00
C776   C     0.35627   0.65286   0.74801   0.00000  Uiso   1.00
C777   C     0.64371   0.34713   0.75185   0.00000  Uiso   1.00
C778   C     0.35387   0.50373   0.84145   0.00000  Uiso   1.00
H779   H     0.40019   0.57502   0.56413   0.00000  Uiso   1.00
H780   H     0.50428   0.54216   0.78645   0.00000  Uiso   1.00
H781   H     0.62451   0.59104   0.60200   0.00000  Uiso   1.00
H782   H     0.57076   0.56939   0.63688   0.00000  Uiso   1.00
H783   H     0.42781   0.42930   0.86243   0.00000  Uiso   1.00
H784   H     0.37355   0.40761   0.89672   0.00000  Uiso   1.00
H785   H     0.35841   0.39852   0.62251   0.00000  Uiso   1.00
H786   H     0.39507   0.40210   0.57098   0.00000  Uiso   1.00
H787   H     0.61524   0.60672   0.92619   0.00000  Uiso   1.00
H788   H     0.58784   0.54954   0.89907   0.00000  Uiso   1.00
H789   H     0.59864   0.42142   0.93672   0.00000  Uiso   1.00
H790   H     0.33355   0.58679   0.99573   0.00000  Uiso   1.00
H791   H     0.66636   0.41141   0.50493   0.00000  Uiso   1.00
H792   H     0.48598   0.54147   0.59523   0.00000  Uiso   1.00
H793   H     0.51249   0.45410   0.90558   0.00000  Uiso   1.00
H794   H     0.39946   0.33680   0.74435   0.00000  Uiso   1.00
H795   H     0.60052   0.66319   0.75550   0.00000  Uiso   1.00
H796   H     0.49572   0.45784   0.71356   0.00000  Uiso   1.00
N797   N     0.48029   0.48550   0.73740   0.00000  Uiso   1.00
N798   N     0.51971   0.51450   0.76261   0.00000  Uiso   1.00
N799   N     0.58526   0.56885   0.60109   0.00000  Uiso   1.00
N800   N     0.41308   0.42937   0.89813   0.00000  Uiso   1.00
N801   N     0.37617   0.42462   0.59820   0.00000  Uiso   1.00
N802   N     0.62453   0.57538   0.90229   0.00000  Uiso   1.00
O803   O     0.63052   0.57964   0.75310   0.00000  Uiso   1.00
O804   O     0.36948   0.42036   0.74691   0.00000  Uiso   1.00
O805   O     0.39155   0.57035   0.74502   0.00000  Uiso   1.00
O806   O     0.60845   0.42965   0.75499   0.00000  Uiso   1.00
O807   O     0.63662   0.50730   0.82247   0.00000  Uiso   1.00
O808   O     0.36338   0.49270   0.67753   0.00000  Uiso   1.00
O809   O     0.39764   0.49801   0.81439   0.00000  Uiso   1.00
O810   O     0.60236   0.50199   0.68561   0.00000  Uiso   1.00
Zn811  Zn    0.60366   0.50621   0.75540   0.00000  Uiso   1.00
Zn812  Zn    0.39634   0.49379   0.74461   0.00000  Uiso   1.00
C813   C     0.68177   0.59826   0.74876   0.00000  Uiso   1.00
C814   C     0.97942   0.49617   0.65856   0.00000  Uiso   1.00
C815   C     0.69636   0.50985   0.89491   0.00000  Uiso   1.00
C816   C     0.96990   0.48914   0.60518   0.00000  Uiso   1.00
C817   C     0.68844   0.55927   0.97270   0.00000  Uiso   1.00
C818   C     0.97800   0.43899   0.52778   0.00000  Uiso   1.00
C819   C     0.66967   0.54796   0.92344   0.00000  Uiso   1.00
C820   C     0.99695   0.45103   0.57694   0.00000  Uiso   1.00
C821   C     0.73848   0.48188   0.91667   0.00000  Uiso   1.00
C822   C     0.92716   0.51623   0.58327   0.00000  Uiso   1.00
C823   C     0.76615   0.50239   0.96110   0.00000  Uiso   1.00
C824   C     0.98489   0.40174   0.75119   0.00000  Uiso   1.00
C825   C     0.89933   0.49474   0.53926   0.00000  Uiso   1.00
C826   C     0.73746   0.53807   0.99109   0.00000  Uiso   1.00
C827   C     0.92833   0.45921   0.50943   0.00000  Uiso   1.00
C828   C     0.82147   0.48938   0.97634   0.00000  Uiso   1.00
C829   C     0.84374   0.50702   0.52420   0.00000  Uiso   1.00
C830   C     0.80853   0.53383   0.55643   0.00000  Uiso   1.00
C831   C     0.85659   0.46216   0.94432   0.00000  Uiso   1.00
C832   C     0.75758   0.55143   0.53933   0.00000  Uiso   1.00
C833   C     0.90784   0.44505   0.96142   0.00000  Uiso   1.00
C834   C     0.68960   0.65286   0.74801   0.00000  Uiso   1.00
C835   C     0.97704   0.34713   0.75185   0.00000  Uiso   1.00
C836   C     0.68720   0.50373   0.84145   0.00000  Uiso   1.00
H837   H     0.73353   0.57502   0.56413   0.00000  Uiso   1.00
H838   H     0.83762   0.54216   0.78645   0.00000  Uiso   1.00
H839   H     0.95784   0.59104   0.60200   0.00000  Uiso   1.00
H840   H     0.90409   0.56939   0.63688   0.00000  Uiso   1.00
H841   H     0.76115   0.42930   0.86243   0.00000  Uiso   1.00
H842   H     0.70688   0.40761   0.89672   0.00000  Uiso   1.00
H843   H     0.69174   0.39852   0.62251   0.00000  Uiso   1.00
H844   H     0.72840   0.40210   0.57098   0.00000  Uiso   1.00
H845   H     0.94858   0.60672   0.92619   0.00000  Uiso   1.00
H846   H     0.92117   0.54954   0.89907   0.00000  Uiso   1.00
H847   H     0.93197   0.42142   0.93672   0.00000  Uiso   1.00
H848   H     0.66688   0.58679   0.99573   0.00000  Uiso   1.00
H849   H     0.99970   0.41141   0.50493   0.00000  Uiso   1.00
H850   H     0.81932   0.54147   0.59523   0.00000  Uiso   1.00
H851   H     0.84582   0.45410   0.90558   0.00000  Uiso   1.00
H852   H     0.73279   0.33680   0.74435   0.00000  Uiso   1.00
H853   H     0.93385   0.66319   0.75550   0.00000  Uiso   1.00
H854   H     0.82905   0.45784   0.71356   0.00000  Uiso   1.00
N855   N     0.81362   0.48550   0.73740   0.00000  Uiso   1.00
N856   N     0.85305   0.51450   0.76261   0.00000  Uiso   1.00
N857   N     0.91859   0.56885   0.60109   0.00000  Uiso   1.00
N858   N     0.74641   0.42937   0.89813   0.00000  Uiso   1.00
N859   N     0.70951   0.42462   0.59820   0.00000  Uiso   1.00
N860   N     0.95786   0.57538   0.90229   0.00000  Uiso   1.00
O861   O     0.96386   0.57964   0.75310   0.00000  Uiso   1.00
O862   O     0.70281   0.42036   0.74691   0.00000  Uiso   1.00
O863   O     0.72488   0.57035   0.74502   0.00000  Uiso   1.00
O864   O     0.94178   0.42965   0.75499   0.00000  Uiso   1.00
O865   O     0.96995   0.50730   0.82247   0.00000  Uiso   1.00
O866   O     0.69672   0.49270   0.67753   0.00000  Uiso   1.00
O867   O     0.73098   0.49801   0.81439   0.00000  Uiso   1.00
O868   O     0.93569   0.50199   0.68561   0.00000  Uiso   1.00
Zn869  Zn    0.93700   0.50621   0.75540   0.00000  Uiso   1.00
Zn870  Zn    0.72967   0.49379   0.74461   0.00000  Uiso   1.00
C871   C     0.01510   0.93159   0.74876   0.00000  Uiso   1.00
C872   C     0.31275   0.82951   0.65856   0.00000  Uiso   1.00
C873   C     0.02970   0.84318   0.89491   0.00000  Uiso   1.00
C874   C     0.30323   0.82247   0.60518   0.00000  Uiso   1.00
C875   C     0.02177   0.89260   0.97270   0.00000  Uiso   1.00
C876   C     0.31133   0.77232   0.52778   0.00000  Uiso   1.00
C877   C     0.00300   0.88129   0.92344   0.00000  Uiso   1.00
C878   C     0.33028   0.78436   0.57694   0.00000  Uiso   1.00
C879   C     0.07181   0.81521   0.91667   0.00000  Uiso   1.00
C880   C     0.26049   0.84956   0.58327   0.00000  Uiso   1.00
C881   C     0.09949   0.83572   0.96110   0.00000  Uiso   1.00
C882   C     0.31822   0.73507   0.75119   0.00000  Uiso   1.00
C883   C     0.23267   0.82807   0.53926   0.00000  Uiso   1.00
C884   C     0.07080   0.87140   0.99109   0.00000  Uiso   1.00
C885   C     0.26166   0.79254   0.50943   0.00000  Uiso   1.00
C886   C     0.15480   0.82271   0.97634   0.00000  Uiso   1.00
C887   C     0.17708   0.84036   0.52420   0.00000  Uiso   1.00
C888   C     0.14186   0.86716   0.55643   0.00000  Uiso   1.00
C889   C     0.18993   0.79549   0.94432   0.00000  Uiso   1.00
C890   C     0.09092   0.88476   0.53933   0.00000  Uiso   1.00
C891   C     0.24118   0.77839   0.96142   0.00000  Uiso   1.00
C892   C     0.02294   0.98619   0.74801   0.00000  Uiso   1.00
C893   C     0.31038   0.68047   0.75185   0.00000  Uiso   1.00
C894   C     0.02053   0.83706   0.84145   0.00000  Uiso   1.00
H895   H     0.06686   0.90836   0.56413   0.00000  Uiso   1.00
H896   H     0.17095   0.87549   0.78645   0.00000  Uiso   1.00
H897   H     0.29117   0.92437   0.60200   0.00000  Uiso   1.00
H898   H     0.23743   0.90272   0.63688   0.00000  Uiso   1.00
H899   H     0.09448   0.76263   0.86243   0.00000  Uiso   1.00
H900   H     0.04021   0.74094   0.89672   0.00000  Uiso   1.00
H901   H     0.02507   0.73185   0.62251   0.00000  Uiso   1.00
H902   H     0.06173   0.73543   0.57098   0.00000  Uiso   1.00
H903   H     0.28191   0.94006   0.92619   0.00000  Uiso   1.00
H904   H     0.25450   0.88288   0.89907   0.00000  Uiso   1.00
H905   H     0.26530   0.75475   0.93672   0.00000  Uiso   1.00
H906   H     0.00021   0.92013   0.99573   0.00000  Uiso   1.00
H907   H     0.33303   0.74474   0.50493   0.00000  Uiso   1.00
H908   H     0.15265   0.87481   0.59523   0.00000  Uiso   1.00
H909   H     0.17915   0.78743   0.90558   0.00000  Uiso   1.00
H910   H     0.06612   0.67013   0.74435   0.00000  Uiso   1.00
H911   H     0.26719   0.99652   0.75550   0.00000  Uiso   1.00
H912   H     0.16239   0.79117   0.71356   0.00000  Uiso   1.00
N913   N     0.14695   0.81883   0.73740   0.00000  Uiso   1.00
N914   N     0.18638   0.84784   0.76261   0.00000  Uiso   1.00
N915   N     0.25193   0.90218   0.60109   0.00000  Uiso   1.00
N916   N     0.07975   0.76271   0.89813   0.00000  Uiso   1.00
N917   N     0.04284   0.75796   0.59820   0.00000  Uiso   1.00
N918   N     0.29119   0.90871   0.90229   0.00000  Uiso   1.00
O919   O     0.29719   0.91298   0.75310   0.00000  Uiso   1.00
O920   O     0.03614   0.75369   0.74691   0.00000  Uiso   1.00
O921   O     0.05822   0.90368   0.74502   0.00000  Uiso   1.00
O922   O     0.27512   0.76298   0.75499   0.00000  Uiso   1.00
O923   O     0.30328   0.84063   0.82247   0.00000  Uiso   1.00
O924   O     0.03005   0.82603   0.67753   0.00000  Uiso   1.00
O925   O     0.06431   0.83134   0.81439   0.00000  Uiso   1.00
O926   O     0.26902   0.83533   0.68561   0.00000  Uiso   1.00
Zn927  Zn    0.27033   0.83954   0.75540   0.00000  Uiso   1.00
Zn928  Zn    0.06300   0.82713   0.74461   0.00000  Uiso   1.00
C929   C     0.34844   0.93159   0.74876   0.00000  Uiso   1.00
C930   C     0.64608   0.82951   0.65856   0.00000  Uiso   1.00
C931   C     0.36303   0.84318   0.89491   0.00000  Uiso   1.00
C932   C     0.63657   0.82247   0.60518   0.00000  Uiso   1.00
C933   C     0.35511   0.89260   0.97270   0.00000  Uiso   1.00
C934   C     0.64466   0.77232   0.52778   0.00000  Uiso   1.00
C935   C     0.33633   0.88129   0.92344   0.00000  Uiso   1.00
C936   C     0.66361   0.78436   0.57694   0.00000  Uiso   1.00
C937   C     0.40514   0.81521   0.91667   0.00000  Uiso   1.00
C938   C     0.59382   0.84956   0.58327   0.00000  Uiso   1.00
C939   C     0.43282   0.83572   0.96110   0.00000  Uiso   1.00
C940   C     0.65156   0.73507   0.75119   0.00000  Uiso   1.00
C941   C     0.56600   0.82807   0.53926   0.00000  Uiso   1.00
C942   C     0.40413   0.87140   0.99109   0.00000  Uiso   1.00
C943   C     0.59500   0.79254   0.50943   0.00000  Uiso   1.00
C944   C     0.48813   0.82271   0.97634   0.00000  Uiso   1.00
C945   C     0.51041   0.84036   0.52420   0.00000  Uiso   1.00
C946   C     0.47520   0.86716   0.55643   0.00000  Uiso   1.00
C947   C     0.52326   0.79549   0.94432   0.00000  Uiso   1.00
C948   C     0.42425   0.88476   0.53933   0.00000  Uiso   1.00
C949   C     0.57451   0.77839   0.96142   0.00000  Uiso   1.00
C950   C     0.35627   0.98619   0.74801   0.00000  Uiso   1.00
C951   C     0.64371   0.68047   0.75185   0.00000  Uiso   1.00
C952   C     0.35387   0.83706   0.84145   0.00000  Uiso   1.00
H953   H     0.40019   0.90836   0.56413   0.00000  Uiso   1.00
H954   H     0.50428   0.87549   0.78645   0.00000  Uiso   1.00
H955   H     0.62451   0.92437   0.60200   0.00000  Uiso   1.00
H956   H     0.57076   0.90272   0.63688   0.00000  Uiso   1.00
H957   H     0.42781   0.76263   0.86243   0.00000  Uiso   1.00
H958   H     0.37355   0.74094   0.89672   0.00000  Uiso   1.00
H959   H     0.35841   0.73185   0.62251   0.00000  Uiso   1.00
H960   H     0.39507   0.73543   0.57098   0.00000  Uiso   1.00
H961   H     0.61524   0.94006   0.92619   0.00000  Uiso   1.00
H962   H     0.58784   0.88288   0.89907   0.00000  Uiso   1.00
H963   H     0.59864   0.75475   0.93672   0.00000  Uiso   1.00
H964   H     0.33355   0.92013   0.99573   0.00000  Uiso   1.00
H965   H     0.66636   0.74474   0.50493   0.00000  Uiso   1.00
H966   H     0.48598   0.87481   0.59523   0.00000  Uiso   1.00
H967   H     0.51249   0.78743   0.90558   0.00000  Uiso   1.00
H968   H     0.39946   0.67013   0.74435   0.00000  Uiso   1.00
H969   H     0.60052   0.99652   0.75550   0.00000  Uiso   1.00
H970   H     0.49572   0.79117   0.71356   0.00000  Uiso   1.00
N971   N     0.48029   0.81883   0.73740   0.00000  Uiso   1.00
N972   N     0.51971   0.84784   0.76261   0.00000  Uiso   1.00
N973   N     0.58526   0.90218   0.60109   0.00000  Uiso   1.00
N974   N     0.41308   0.76271   0.89813   0.00000  Uiso   1.00
N975   N     0.37617   0.75796   0.59820   0.00000  Uiso   1.00
N976   N     0.62453   0.90871   0.90229   0.00000  Uiso   1.00
O977   O     0.63052   0.91298   0.75310   0.00000  Uiso   1.00
O978   O     0.36948   0.75369   0.74691   0.00000  Uiso   1.00
O979   O     0.39155   0.90368   0.74502   0.00000  Uiso   1.00
O980   O     0.60845   0.76298   0.75499   0.00000  Uiso   1.00
O981   O     0.63662   0.84063   0.82247   0.00000  Uiso   1.00
O982   O     0.36338   0.82603   0.67753   0.00000  Uiso   1.00
O983   O     0.39764   0.83134   0.81439   0.00000  Uiso   1.00
O984   O     0.60236   0.83533   0.68561   0.00000  Uiso   1.00
Zn985  Zn    0.60366   0.83954   0.75540   0.00000  Uiso   1.00
Zn986  Zn    0.39634   0.82713   0.74461   0.00000  Uiso   1.00
C987   C     0.68177   0.93159   0.74876   0.00000  Uiso   1.00
C988   C     0.97942   0.82951   0.65856   0.00000  Uiso   1.00
C989   C     0.69636   0.84318   0.89491   0.00000  Uiso   1.00
C990   C     0.96990   0.82247   0.60518   0.00000  Uiso   1.00
C991   C     0.68844   0.89260   0.97270   0.00000  Uiso   1.00
C992   C     0.97800   0.77232   0.52778   0.00000  Uiso   1.00
C993   C     0.66967   0.88129   0.92344   0.00000  Uiso   1.00
C994   C     0.99695   0.78436   0.57694   0.00000  Uiso   1.00
C995   C     0.73848   0.81521   0.91667   0.00000  Uiso   1.00
C996   C     0.92716   0.84956   0.58327   0.00000  Uiso   1.00
C997   C     0.76615   0.83572   0.96110   0.00000  Uiso   1.00
C998   C     0.98489   0.73507   0.75119   0.00000  Uiso   1.00
C999   C     0.89933   0.82807   0.53926   0.00000  Uiso   1.00
C1000  C     0.73746   0.87140   0.99109   0.00000  Uiso   1.00
C1001  C     0.92833   0.79254   0.50943   0.00000  Uiso   1.00
C1002  C     0.82147   0.82271   0.97634   0.00000  Uiso   1.00
C1003  C     0.84374   0.84036   0.52420   0.00000  Uiso   1.00
C1004  C     0.80853   0.86716   0.55643   0.00000  Uiso   1.00
C1005  C     0.85659   0.79549   0.94432   0.00000  Uiso   1.00
C1006  C     0.75758   0.88476   0.53933   0.00000  Uiso   1.00
C1007  C     0.90784   0.77839   0.96142   0.00000  Uiso   1.00
C1008  C     0.68960   0.98619   0.74801   0.00000  Uiso   1.00
C1009  C     0.97704   0.68047   0.75185   0.00000  Uiso   1.00
C1010  C     0.68720   0.83706   0.84145   0.00000  Uiso   1.00
H1011  H     0.73353   0.90836   0.56413   0.00000  Uiso   1.00
H1012  H     0.83762   0.87549   0.78645   0.00000  Uiso   1.00
H1013  H     0.95784   0.92437   0.60200   0.00000  Uiso   1.00
H1014  H     0.90409   0.90272   0.63688   0.00000  Uiso   1.00
H1015  H     0.76115   0.76263   0.86243   0.00000  Uiso   1.00
H1016  H     0.70688   0.74094   0.89672   0.00000  Uiso   1.00
H1017  H     0.69174   0.73185   0.62251   0.00000  Uiso   1.00
H1018  H     0.72840   0.73543   0.57098   0.00000  Uiso   1.00
H1019  H     0.94858   0.94006   0.92619   0.00000  Uiso   1.00
H1020  H     0.92117   0.88288   0.89907   0.00000  Uiso   1.00
H1021  H     0.93197   0.75475   0.93672   0.00000  Uiso   1.00
H1022  H     0.66688   0.92013   0.99573   0.00000  Uiso   1.00
H1023  H     0.99970   0.74474   0.50493   0.00000  Uiso   1.00
H1024  H     0.81932   0.87481   0.59523   0.00000  Uiso   1.00
H1025  H     0.84582   0.78743   0.90558   0.00000  Uiso   1.00
H1026  H     0.73279   0.67013   0.74435   0.00000  Uiso   1.00
H1027  H     0.93385   0.99652   0.75550   0.00000  Uiso   1.00
H1028  H     0.82905   0.79117   0.71356   0.00000  Uiso   1.00
N1029  N     0.81362   0.81883   0.73740   0.00000  Uiso   1.00
N1030  N     0.85305   0.84784   0.76261   0.00000  Uiso   1.00
N1031  N     0.91859   0.90218   0.60109   0.00000  Uiso   1.00
N1032  N     0.74641   0.76271   0.89813   0.00000  Uiso   1.00
N1033  N     0.70951   0.75796   0.59820   0.00000  Uiso   1.00
N1034  N     0.95786   0.90871   0.90229   0.00000  Uiso   1.00
O1035  O     0.96386   0.91298   0.75310   0.00000  Uiso   1.00
O1036  O     0.70281   0.75369   0.74691   0.00000  Uiso   1.00
O1037  O     0.72488   0.90368   0.74502   0.00000  Uiso   1.00
O1038  O     0.94178   0.76298   0.75499   0.00000  Uiso   1.00
O1039  O     0.96995   0.84063   0.82247   0.00000  Uiso   1.00
O1040  O     0.69672   0.82603   0.67753   0.00000  Uiso   1.00
O1041  O     0.73098   0.83134   0.81439   0.00000  Uiso   1.00
O1042  O     0.93569   0.83533   0.68561   0.00000  Uiso   1.00
Zn1043 Zn    0.93700   0.83954   0.75540   0.00000  Uiso   1.00
Zn1044 Zn    0.72967   0.82713   0.74461   0.00000  Uiso   1.00
loop_
_geom_bond_atom_site_label_1
_geom_bond_atom_site_label_2
_geom_bond_distance
_geom_bond_site_symmetry_2
_ccdc_geom_bond_type
C1     O51     1.289   .     A
C1     C22     1.402   .     S
C1     O165    1.275   1_455 S
C2     C4      1.457   .     S
C2     O56     1.301   .     A
C2     O112    1.290   .     S
C3     C9      1.399   .     A
C3     C7      1.413   .     A
C3     C24     1.457   .     S
C4     C8      1.413   .     A
C4     C10     1.399   .     A
C5     C14     1.399   .     A
C5     H36     1.084   .     S
C5     C7      1.399   .     A
C6     H37     1.084   .     S
C6     C8      1.400   .     A
C6     C15     1.399   .     A
C7     N164    1.437   1_455 S
C8     N105    1.437   .     S
C9     C11     1.402   .     A
C9     N46     1.440   .     S
C10    N45     1.440   .     S
C10    C13     1.402   .     A
C11    C16     1.419   .     A
C11    C14     1.417   .     A
C12    C23     1.402   .     S
C12    O52     1.289   .     A
C12    O108    1.275   .     S
C13    C17     1.418   .     A
C13    C15     1.416   .     A
C14    C542    1.389   .     S
C15    C543    1.390   1_554 S
C16    C19     1.415   .     A
C16    C539    1.417   .     S
C17    C18     1.414   .     A
C17    C538    1.417   1_554 S
C18    H38     1.077   .     S
C18    C20     1.385   .     A
C19    H39     1.076   .     S
C19    C21     1.386   .     A
C20    H25     1.084   .     S
C20    C536    1.389   1_554 S
C21    H35     1.084   .     S
C21    C537    1.390   .     S
C22    C313    1.340   1_455 S
C22    H214    1.088   .     S
C23    C428    1.340   1_545 S
C23    H389    1.088   1_545 S
C24    O55     1.301   .     A
C24    O169    1.289   1_455 S
H26    N44     1.029   .     S
H27    N45     1.046   .     S
H28    N45     1.043   .     S
H29    N46     1.043   .     S
H30    N46     1.046   .     S
H31    N47     1.046   .     S
H32    N47     1.046   .     S
H33    N48     1.046   .     S
H34    N48     1.045   .     S
H40    C370    1.088   1_545 S
H41    C197    1.088   .     S
H42    N43     1.029   .     S
N43    N44     1.291   .     D
N43    Zn58    2.018   .     S
N44    Zn57    2.018   .     S
N47    C124    1.437   1_455 S
N48    C65     1.437   .     S
O49    Zn57    1.949   .     S
O49    C59     1.275   .     S
O50    Zn58    1.949   .     S
O50    C128    1.275   1_455 S
O51    Zn58    1.978   .     S
O52    Zn57    1.978   .     S
O53    Zn57    1.949   .     S
O53    C82     1.289   .     S
O54    Zn58    1.949   .     S
O54    C118    1.290   1_455 S
O55    Zn58    1.891   .     S
O56    Zn57    1.891   .     S
C59    O109    1.289   .     A
C59    C80     1.402   .     S
C60    C62     1.457   .     S
C60    O114    1.301   .     A
C60    O170    1.290   .     S
C61    C67     1.399   .     A
C61    C65     1.413   .     A
C61    C82     1.457   .     S
C62    C66     1.413   .     A
C62    C68     1.399   .     A
C63    C72     1.399   .     A
C63    H94     1.084   .     S
C63    C65     1.399   .     A
C64    H95     1.084   .     S
C64    C66     1.400   .     A
C64    C73     1.399   .     A
C66    N163    1.437   .     S
C67    C69     1.402   .     A
C67    N104    1.440   .     S
C68    N103    1.440   .     S
C68    C71     1.402   .     A
C69    C74     1.419   .     A
C69    C72     1.417   .     A
C70    C81     1.402   .     S
C70    O110    1.289   .     A
C70    O166    1.275   .     S
C71    C75     1.418   .     A
C71    C73     1.416   .     A
C72    C600    1.389   .     S
C73    C601    1.390   1_554 S
C74    C77     1.415   .     A
C74    C597    1.417   .     S
C75    C76     1.414   .     A
C75    C596    1.417   1_554 S
C76    H96     1.077   .     S
C76    C78     1.385   .     A
C77    H97     1.076   .     S
C77    C79     1.386   .     A
C78    H83     1.084   .     S
C78    C594    1.389   1_554 S
C79    H93     1.084   .     S
C79    C595    1.390   .     S
C80    C197    1.340   .     S
C80    H272    1.088   .     S
C81    C486    1.340   1_545 S
C81    H447    1.088   1_545 S
C82    O113    1.301   .     A
H84    N102    1.029   .     S
H85    N103    1.046   .     S
H86    N103    1.043   .     S
H87    N104    1.043   .     S
H88    N104    1.046   .     S
H89    N105    1.046   .     S
H90    N105    1.046   .     S
H91    N106    1.046   .     S
H92    N106    1.045   .     S
H98    C428    1.088   1_545 S
H99    C255    1.088   .     S
H100   N101    1.029   .     S
N101   N102    1.291   .     D
N101   Zn116   2.018   .     S
N102   Zn115   2.018   .     S
N106   C123    1.437   .     S
O107   Zn115   1.949   .     S
O107   C117    1.275   .     S
O108   Zn116   1.949   .     S
O109   Zn116   1.978   .     S
O110   Zn115   1.978   .     S
O111   Zn115   1.949   .     S
O111   C140    1.289   .     S
O112   Zn116   1.949   .     S
O113   Zn116   1.891   .     S
O114   Zn115   1.891   .     S
C117   O167    1.289   .     A
C117   C138    1.402   .     S
C118   C120    1.457   .     S
C118   O172    1.301   .     A
C118   O54     1.290   1_655 S
C119   C125    1.399   .     A
C119   C123    1.413   .     A
C119   C140    1.457   .     S
C120   C124    1.413   .     A
C120   C126    1.399   .     A
C121   C130    1.399   .     A
C121   H152    1.084   .     S
C121   C123    1.399   .     A
C122   H153    1.084   .     S
C122   C124    1.400   .     A
C122   C131    1.399   .     A
C124   N47     1.437   1_655 S
C125   C127    1.402   .     A
C125   N162    1.440   .     S
C126   N161    1.440   .     S
C126   C129    1.402   .     A
C127   C132    1.419   .     A
C127   C130    1.417   .     A
C128   C139    1.402   .     S
C128   O168    1.289   .     A
C128   O50     1.275   1_655 S
C129   C133    1.418   .     A
C129   C131    1.416   .     A
C130   C658    1.389   .     S
C131   C659    1.390   1_554 S
C132   C135    1.415   .     A
C132   C655    1.417   .     S
C133   C134    1.414   .     A
C133   C654    1.417   1_554 S
C134   H154    1.077   .     S
C134   C136    1.385   .     A
C135   H155    1.076   .     S
C135   C137    1.386   .     A
C136   H141    1.084   .     S
C136   C652    1.389   1_554 S
C137   H151    1.084   .     S
C137   C653    1.390   .     S
C138   C255    1.340   .     S
C138   H330    1.088   .     S
C139   C370    1.340   1_645 S
C139   H505    1.088   1_545 S
C140   O171    1.301   .     A
H142   N160    1.029   .     S
H143   N161    1.046   .     S
H144   N161    1.043   .     S
H145   N162    1.043   .     S
H146   N162    1.046   .     S
H147   N163    1.046   .     S
H148   N163    1.046   .     S
H149   N164    1.046   .     S
H150   N164    1.045   .     S
H156   C486    1.088   1_545 S
H157   C313    1.088   .     S
H158   N159    1.029   .     S
N159   N160    1.291   .     D
N159   Zn174   2.018   .     S
N160   Zn173   2.018   .     S
N164   C7      1.437   1_655 S
O165   Zn173   1.949   .     S
O165   C1      1.275   1_655 S
O166   Zn174   1.949   .     S
O167   Zn174   1.978   .     S
O168   Zn173   1.978   .     S
O169   Zn173   1.949   .     S
O169   C24     1.289   1_655 S
O170   Zn174   1.949   .     S
O171   Zn174   1.891   .     S
O172   Zn173   1.891   .     S
C175   O225    1.289   .     A
C175   C196    1.402   .     S
C175   O339    1.275   1_455 S
C176   C178    1.457   .     S
C176   O230    1.301   .     A
C176   O286    1.290   .     S
C177   C183    1.399   .     A
C177   C181    1.413   .     A
C177   C198    1.457   .     S
C178   C182    1.413   .     A
C178   C184    1.399   .     A
C179   C188    1.399   .     A
C179   H210    1.084   .     S
C179   C181    1.399   .     A
C180   H211    1.084   .     S
C180   C182    1.400   .     A
C180   C189    1.399   .     A
C181   N338    1.437   1_455 S
C182   N279    1.437   .     S
C183   C185    1.402   .     A
C183   N220    1.440   .     S
C184   N219    1.440   .     S
C184   C187    1.402   .     A
C185   C190    1.419   .     A
C185   C188    1.417   .     A
C186   C197    1.402   .     S
C186   O226    1.289   .     A
C186   O282    1.275   .     S
C187   C191    1.418   .     A
C187   C189    1.416   .     A
C188   C716    1.389   .     S
C189   C717    1.390   1_554 S
C190   C193    1.415   .     A
C190   C713    1.417   .     S
C191   C192    1.414   .     A
C191   C712    1.417   1_554 S
C192   H212    1.077   .     S
C192   C194    1.385   .     A
C193   H213    1.076   .     S
C193   C195    1.386   .     A
C194   H199    1.084   .     S
C194   C710    1.389   1_554 S
C195   H209    1.084   .     S
C195   C711    1.390   .     S
C196   C487    1.340   1_455 S
C196   H388    1.088   .     S
C198   O229    1.301   .     A
C198   O343    1.289   1_455 S
H200   N218    1.029   .     S
H201   N219    1.046   .     S
H202   N219    1.043   .     S
H203   N220    1.043   .     S
H204   N220    1.046   .     S
H205   N221    1.046   .     S
H206   N221    1.046   .     S
H207   N222    1.046   .     S
H208   N222    1.045   .     S
H215   C371    1.088   .     S
H216   N217    1.029   .     S
N217   N218    1.291   .     D
N217   Zn232   2.018   .     S
N218   Zn231   2.018   .     S
N221   C298    1.437   1_455 S
N222   C239    1.437   .     S
O223   Zn231   1.949   .     S
O223   C233    1.275   .     S
O224   Zn232   1.949   .     S
O224   C302    1.275   1_455 S
O225   Zn232   1.978   .     S
O226   Zn231   1.978   .     S
O227   Zn231   1.949   .     S
O227   C256    1.289   .     S
O228   Zn232   1.949   .     S
O228   C292    1.290   1_455 S
O229   Zn232   1.891   .     S
O230   Zn231   1.891   .     S
C233   O283    1.289   .     A
C233   C254    1.402   .     S
C234   C236    1.457   .     S
C234   O288    1.301   .     A
C234   O344    1.290   .     S
C235   C241    1.399   .     A
C235   C239    1.413   .     A
C235   C256    1.457   .     S
C236   C240    1.413   .     A
C236   C242    1.399   .     A
C237   C246    1.399   .     A
C237   H268    1.084   .     S
C237   C239    1.399   .     A
C238   H269    1.084   .     S
C238   C240    1.400   .     A
C238   C247    1.399   .     A
C240   N337    1.437   .     S
C241   C243    1.402   .     A
C241   N278    1.440   .     S
C242   N277    1.440   .     S
C242   C245    1.402   .     A
C243   C248    1.419   .     A
C243   C246    1.417   .     A
C244   C255    1.402   .     S
C244   O284    1.289   .     A
C244   O340    1.275   .     S
C245   C249    1.418   .     A
C245   C247    1.416   .     A
C246   C774    1.389   .     S
C247   C775    1.390   1_554 S
C248   C251    1.415   .     A
C248   C771    1.417   .     S
C249   C250    1.414   .     A
C249   C770    1.417   1_554 S
C250   H270    1.077   .     S
C250   C252    1.385   .     A
C251   H271    1.076   .     S
C251   C253    1.386   .     A
C252   H257    1.084   .     S
C252   C768    1.389   1_554 S
C253   H267    1.084   .     S
C253   C769    1.390   .     S
C254   C371    1.340   .     S
C254   H446    1.088   .     S
C256   O287    1.301   .     A
H258   N276    1.029   .     S
H259   N277    1.046   .     S
H260   N277    1.043   .     S
H261   N278    1.043   .     S
H262   N278    1.046   .     S
H263   N279    1.046   .     S
H264   N279    1.046   .     S
H265   N280    1.046   .     S
H266   N280    1.045   .     S
H273   C429    1.088   .     S
H274   N275    1.029   .     S
N275   N276    1.291   .     D
N275   Zn290   2.018   .     S
N276   Zn289   2.018   .     S
N280   C297    1.437   .     S
O281   Zn289   1.949   .     S
O281   C291    1.275   .     S
O282   Zn290   1.949   .     S
O283   Zn290   1.978   .     S
O284   Zn289   1.978   .     S
O285   Zn289   1.949   .     S
O285   C314    1.289   .     S
O286   Zn290   1.949   .     S
O287   Zn290   1.891   .     S
O288   Zn289   1.891   .     S
C291   O341    1.289   .     A
C291   C312    1.402   .     S
C292   C294    1.457   .     S
C292   O346    1.301   .     A
C292   O228    1.290   1_655 S
C293   C299    1.399   .     A
C293   C297    1.413   .     A
C293   C314    1.457   .     S
C294   C298    1.413   .     A
C294   C300    1.399   .     A
C295   C304    1.399   .     A
C295   H326    1.084   .     S
C295   C297    1.399   .     A
C296   H327    1.084   .     S
C296   C298    1.400   .     A
C296   C305    1.399   .     A
C298   N221    1.437   1_655 S
C299   C301    1.402   .     A
C299   N336    1.440   .     S
C300   N335    1.440   .     S
C300   C303    1.402   .     A
C301   C306    1.419   .     A
C301   C304    1.417   .     A
C302   C313    1.402   .     S
C302   O342    1.289   .     A
C302   O224    1.275   1_655 S
C303   C307    1.418   .     A
C303   C305    1.416   .     A
C304   C832    1.389   .     S
C305   C833    1.390   1_554 S
C306   C309    1.415   .     A
C306   C829    1.417   .     S
C307   C308    1.414   .     A
C307   C828    1.417   1_554 S
C308   H328    1.077   .     S
C308   C310    1.385   .     A
C309   H329    1.076   .     S
C309   C311    1.386   .     A
C310   H315    1.084   .     S
C310   C826    1.389   1_554 S
C311   H325    1.084   .     S
C311   C827    1.390   .     S
C312   C429    1.340   .     S
C312   H504    1.088   .     S
C313   C22     1.340   1_655 S
C314   O345    1.301   .     A
H316   N334    1.029   .     S
H317   N335    1.046   .     S
H318   N335    1.043   .     S
H319   N336    1.043   .     S
H320   N336    1.046   .     S
H321   N337    1.046   .     S
H322   N337    1.046   .     S
H323   N338    1.046   .     S
H324   N338    1.045   .     S
H331   C487    1.088   .     S
H332   N333    1.029   .     S
N333   N334    1.291   .     D
N333   Zn348   2.018   .     S
N334   Zn347   2.018   .     S
N338   C181    1.437   1_655 S
O339   Zn347   1.949   .     S
O339   C175    1.275   1_655 S
O340   Zn348   1.949   .     S
O341   Zn348   1.978   .     S
O342   Zn347   1.978   .     S
O343   Zn347   1.949   .     S
O343   C198    1.289   1_655 S
O344   Zn348   1.949   .     S
O345   Zn348   1.891   .     S
O346   Zn347   1.891   .     S
C349   O399    1.289   .     A
C349   C370    1.402   .     S
C349   O513    1.275   1_455 S
C350   C352    1.457   .     S
C350   O404    1.301   .     A
C350   O460    1.290   .     S
C351   C357    1.399   .     A
C351   C355    1.413   .     A
C351   C372    1.457   .     S
C352   C356    1.413   .     A
C352   C358    1.399   .     A
C353   C362    1.399   .     A
C353   H384    1.084   .     S
C353   C355    1.399   .     A
C354   H385    1.084   .     S
C354   C356    1.400   .     A
C354   C363    1.399   .     A
C355   N512    1.437   1_455 S
C356   N453    1.437   .     S
C357   C359    1.402   .     A
C357   N394    1.440   .     S
C358   N393    1.440   .     S
C358   C361    1.402   .     A
C359   C364    1.419   .     A
C359   C362    1.417   .     A
C360   C371    1.402   .     S
C360   O400    1.289   .     A
C360   O456    1.275   .     S
C361   C365    1.418   .     A
C361   C363    1.416   .     A
C362   C890    1.389   .     S
C363   C891    1.390   1_554 S
C364   C367    1.415   .     A
C364   C887    1.417   .     S
C365   C366    1.414   .     A
C365   C886    1.417   1_554 S
C366   H386    1.077   .     S
C366   C368    1.385   .     A
C367   H387    1.076   .     S
C367   C369    1.386   .     A
C368   H373    1.084   .     S
C368   C884    1.389   1_554 S
C369   H383    1.084   .     S
C369   C885    1.390   .     S
C370   C139    1.340   1_465 S
C370   H40     1.088   1_565 S
C372   O403    1.301   .     A
C372   O517    1.289   1_455 S
H374   N392    1.029   .     S
H375   N393    1.046   .     S
H376   N393    1.043   .     S
H377   N394    1.043   .     S
H378   N394    1.046   .     S
H379   N395    1.046   .     S
H380   N395    1.046   .     S
H381   N396    1.046   .     S
H382   N396    1.045   .     S
H389   C23     1.088   1_565 S
H390   N391    1.029   .     S
N391   N392    1.291   .     D
N391   Zn406   2.018   .     S
N392   Zn405   2.018   .     S
N395   C472    1.437   1_455 S
N396   C413    1.437   .     S
O397   Zn405   1.949   .     S
O397   C407    1.275   .     S
O398   Zn406   1.949   .     S
O398   C476    1.275   1_455 S
O399   Zn406   1.978   .     S
O400   Zn405   1.978   .     S
O401   Zn405   1.949   .     S
O401   C430    1.289   .     S
O402   Zn406   1.949   .     S
O402   C466    1.290   1_455 S
O403   Zn406   1.891   .     S
O404   Zn405   1.891   .     S
C407   O457    1.289   .     A
C407   C428    1.402   .     S
C408   C410    1.457   .     S
C408   O462    1.301   .     A
C408   O518    1.290   .     S
C409   C415    1.399   .     A
C409   C413    1.413   .     A
C409   C430    1.457   .     S
C410   C414    1.413   .     A
C410   C416    1.399   .     A
C411   C420    1.399   .     A
C411   H442    1.084   .     S
C411   C413    1.399   .     A
C412   H443    1.084   .     S
C412   C414    1.400   .     A
C412   C421    1.399   .     A
C414   N511    1.437   .     S
C415   C417    1.402   .     A
C415   N452    1.440   .     S
C416   N451    1.440   .     S
C416   C419    1.402   .     A
C417   C422    1.419   .     A
C417   C420    1.417   .     A
C418   C429    1.402   .     S
C418   O458    1.289   .     A
C418   O514    1.275   .     S
C419   C423    1.418   .     A
C419   C421    1.416   .     A
C420   C948    1.389   .     S
C421   C949    1.390   1_554 S
C422   C425    1.415   .     A
C422   C945    1.417   .     S
C423   C424    1.414   .     A
C423   C944    1.417   1_554 S
C424   H444    1.077   .     S
C424   C426    1.385   .     A
C425   H445    1.076   .     S
C425   C427    1.386   .     A
C426   H431    1.084   .     S
C426   C942    1.389   1_554 S
C427   H441    1.084   .     S
C427   C943    1.390   .     S
C428   C23     1.340   1_565 S
C428   H98     1.088   1_565 S
C430   O461    1.301   .     A
H432   N450    1.029   .     S
H433   N451    1.046   .     S
H434   N451    1.043   .     S
H435   N452    1.043   .     S
H436   N452    1.046   .     S
H437   N453    1.046   .     S
H438   N453    1.046   .     S
H439   N454    1.046   .     S
H440   N454    1.045   .     S
H447   C81     1.088   1_565 S
H448   N449    1.029   .     S
N449   N450    1.291   .     D
N449   Zn464   2.018   .     S
N450   Zn463   2.018   .     S
N454   C471    1.437   .     S
O455   Zn463   1.949   .     S
O455   C465    1.275   .     S
O456   Zn464   1.949   .     S
O457   Zn464   1.978   .     S
O458   Zn463   1.978   .     S
O459   Zn463   1.949   .     S
O459   C488    1.289   .     S
O460   Zn464   1.949   .     S
O461   Zn464   1.891   .     S
O462   Zn463   1.891   .     S
C465   O515    1.289   .     A
C465   C486    1.402   .     S
C466   C468    1.457   .     S
C466   O520    1.301   .     A
C466   O402    1.290   1_655 S
C467   C473    1.399   .     A
C467   C471    1.413   .     A
C467   C488    1.457   .     S
C468   C472    1.413   .     A
C468   C474    1.399   .     A
C469   C478    1.399   .     A
C469   H500    1.084   .     S
C469   C471    1.399   .     A
C470   H501    1.084   .     S
C470   C472    1.400   .     A
C470   C479    1.399   .     A
C472   N395    1.437   1_655 S
C473   C475    1.402   .     A
C473   N510    1.440   .     S
C474   N509    1.440   .     S
C474   C477    1.402   .     A
C475   C480    1.419   .     A
C475   C478    1.417   .     A
C476   C487    1.402   .     S
C476   O516    1.289   .     A
C476   O398    1.275   1_655 S
C477   C481    1.418   .     A
C477   C479    1.416   .     A
C478   C1006   1.389   .     S
C479   C1007   1.390   1_554 S
C480   C483    1.415   .     A
C480   C1003   1.417   .     S
C481   C482    1.414   .     A
C481   C1002   1.417   1_554 S
C482   H502    1.077   .     S
C482   C484    1.385   .     A
C483   H503    1.076   .     S
C483   C485    1.386   .     A
C484   H489    1.084   .     S
C484   C1000   1.389   1_554 S
C485   H499    1.084   .     S
C485   C1001   1.390   .     S
C486   C81     1.340   1_565 S
C486   H156    1.088   1_565 S
C487   C196    1.340   1_655 S
C488   O519    1.301   .     A
H490   N508    1.029   .     S
H491   N509    1.046   .     S
H492   N509    1.043   .     S
H493   N510    1.043   .     S
H494   N510    1.046   .     S
H495   N511    1.046   .     S
H496   N511    1.046   .     S
H497   N512    1.046   .     S
H498   N512    1.045   .     S
H505   C139    1.088   1_565 S
H506   N507    1.029   .     S
N507   N508    1.291   .     D
N507   Zn522   2.018   .     S
N508   Zn521   2.018   .     S
N512   C355    1.437   1_655 S
O513   Zn521   1.949   .     S
O513   C349    1.275   1_655 S
O514   Zn522   1.949   .     S
O515   Zn522   1.978   .     S
O516   Zn521   1.978   .     S
O517   Zn521   1.949   .     S
O517   C372    1.289   1_655 S
O518   Zn522   1.949   .     S
O519   Zn522   1.891   .     S
O520   Zn521   1.891   .     S
C523   O573    1.289   .     A
C523   C544    1.402   .     S
C523   O687    1.275   1_455 S
C524   C526    1.457   .     S
C524   O578    1.301   .     A
C524   O634    1.290   .     S
C525   C531    1.399   .     A
C525   C529    1.413   .     A
C525   C546    1.457   .     S
C526   C530    1.413   .     A
C526   C532    1.399   .     A
C527   C536    1.399   .     A
C527   H558    1.084   .     S
C527   C529    1.399   .     A
C528   H559    1.084   .     S
C528   C530    1.400   .     A
C528   C537    1.399   .     A
C529   N686    1.437   1_455 S
C530   N627    1.437   .     S
C531   C533    1.402   .     A
C531   N568    1.440   .     S
C532   N567    1.440   .     S
C532   C535    1.402   .     A
C533   C538    1.419   .     A
C533   C536    1.417   .     A
C534   C545    1.402   .     S
C534   O574    1.289   .     A
C534   O630    1.275   .     S
C535   C539    1.418   .     A
C535   C537    1.416   .     A
C536   C20     1.389   1_556 S
C538   C541    1.415   .     A
C538   C17     1.417   1_556 S
C539   C540    1.414   .     A
C540   H560    1.077   .     S
C540   C542    1.385   .     A
C541   H561    1.076   .     S
C541   C543    1.386   .     A
C542   H547    1.084   .     S
C543   H557    1.084   .     S
C543   C15     1.390   1_556 S
C544   C835    1.340   1_455 S
C544   H736    1.088   .     S
C545   C950    1.340   1_545 S
C545   H911    1.088   1_545 S
C546   O577    1.301   .     A
C546   O691    1.289   1_455 S
H548   N566    1.029   .     S
H549   N567    1.046   .     S
H550   N567    1.043   .     S
H551   N568    1.043   .     S
H552   N568    1.046   .     S
H553   N569    1.046   .     S
H554   N569    1.046   .     S
H555   N570    1.046   .     S
H556   N570    1.045   .     S
H562   C892    1.088   1_545 S
H563   C719    1.088   .     S
H564   N565    1.029   .     S
N565   N566    1.291   .     D
N565   Zn580   2.018   .     S
N566   Zn579   2.018   .     S
N569   C646    1.437   1_455 S
N570   C587    1.437   .     S
O571   Zn579   1.949   .     S
O571   C581    1.275   .     S
O572   Zn580   1.949   .     S
O572   C650    1.275   1_455 S
O573   Zn580   1.978   .     S
O574   Zn579   1.978   .     S
O575   Zn579   1.949   .     S
O575   C604    1.289   .     S
O576   Zn580   1.949   .     S
O576   C640    1.290   1_455 S
O577   Zn580   1.891   .     S
O578   Zn579   1.891   .     S
C581   O631    1.289   .     A
C581   C602    1.402   .     S
C582   C584    1.457   .     S
C582   O636    1.301   .     A
C582   O692    1.290   .     S
C583   C589    1.399   .     A
C583   C587    1.413   .     A
C583   C604    1.457   .     S
C584   C588    1.413   .     A
C584   C590    1.399   .     A
C585   C594    1.399   .     A
C585   H616    1.084   .     S
C585   C587    1.399   .     A
C586   H617    1.084   .     S
C586   C588    1.400   .     A
C586   C595    1.399   .     A
C588   N685    1.437   .     S
C589   C591    1.402   .     A
C589   N626    1.440   .     S
C590   N625    1.440   .     S
C590   C593    1.402   .     A
C591   C596    1.419   .     A
C591   C594    1.417   .     A
C592   C603    1.402   .     S
C592   O632    1.289   .     A
C592   O688    1.275   .     S
C593   C597    1.418   .     A
C593   C595    1.416   .     A
C594   C78     1.389   1_556 S
C596   C599    1.415   .     A
C596   C75     1.417   1_556 S
C597   C598    1.414   .     A
C598   H618    1.077   .     S
C598   C600    1.385   .     A
C599   H619    1.076   .     S
C599   C601    1.386   .     A
C600   H605    1.084   .     S
C601   H615    1.084   .     S
C601   C73     1.390   1_556 S
C602   C719    1.340   .     S
C602   H794    1.088   .     S
C603   C1008   1.340   1_545 S
C603   H969    1.088   1_545 S
C604   O635    1.301   .     A
H606   N624    1.029   .     S
H607   N625    1.046   .     S
H608   N625    1.043   .     S
H609   N626    1.043   .     S
H610   N626    1.046   .     S
H611   N627    1.046   .     S
H612   N627    1.046   .     S
H613   N628    1.046   .     S
H614   N628    1.045   .     S
H620   C950    1.088   1_545 S
H621   C777    1.088   .     S
H622   N623    1.029   .     S
N623   N624    1.291   .     D
N623   Zn638   2.018   .     S
N624   Zn637   2.018   .     S
N628   C645    1.437   .     S
O629   Zn637   1.949   .     S
O629   C639    1.275   .     S
O630   Zn638   1.949   .     S
O631   Zn638   1.978   .     S
O632   Zn637   1.978   .     S
O633   Zn637   1.949   .     S
O633   C662    1.289   .     S
O634   Zn638   1.949   .     S
O635   Zn638   1.891   .     S
O636   Zn637   1.891   .     S
C639   O689    1.289   .     A
C639   C660    1.402   .     S
C640   C642    1.457   .     S
C640   O694    1.301   .     A
C640   O576    1.290   1_655 S
C641   C647    1.399   .     A
C641   C645    1.413   .     A
C641   C662    1.457   .     S
C642   C646    1.413   .     A
C642   C648    1.399   .     A
C643   C652    1.399   .     A
C643   H674    1.084   .     S
C643   C645    1.399   .     A
C644   H675    1.084   .     S
C644   C646    1.400   .     A
C644   C653    1.399   .     A
C646   N569    1.437   1_655 S
C647   C649    1.402   .     A
C647   N684    1.440   .     S
C648   N683    1.440   .     S
C648   C651    1.402   .     A
C649   C654    1.419   .     A
C649   C652    1.417   .     A
C650   C661    1.402   .     S
C650   O690    1.289   .     A
C650   O572    1.275   1_655 S
C651   C655    1.418   .     A
C651   C653    1.416   .     A
C652   C136    1.389   1_556 S
C654   C657    1.415   .     A
C654   C133    1.417   1_556 S
C655   C656    1.414   .     A
C656   H676    1.077   .     S
C656   C658    1.385   .     A
C657   H677    1.076   .     S
C657   C659    1.386   .     A
C658   H663    1.084   .     S
C659   H673    1.084   .     S
C659   C131    1.390   1_556 S
C660   C777    1.340   .     S
C660   H852    1.088   .     S
C661   C892    1.340   1_645 S
C661   H1027   1.088   1_545 S
C662   O693    1.301   .     A
H664   N682    1.029   .     S
H665   N683    1.046   .     S
H666   N683    1.043   .     S
H667   N684    1.043   .     S
H668   N684    1.046   .     S
H669   N685    1.046   .     S
H670   N685    1.046   .     S
H671   N686    1.046   .     S
H672   N686    1.045   .     S
H678   C1008   1.088   1_545 S
H679   C835    1.088   .     S
H680   N681    1.029   .     S
N681   N682    1.291   .     D
N681   Zn696   2.018   .     S
N682   Zn695   2.018   .     S
N686   C529    1.437   1_655 S
O687   Zn695   1.949   .     S
O687   C523    1.275   1_655 S
O688   Zn696   1.949   .     S
O689   Zn696   1.978   .     S
O690   Zn695   1.978   .     S
O691   Zn695   1.949   .     S
O691   C546    1.289   1_655 S
O692   Zn696   1.949   .     S
O693   Zn696   1.891   .     S
O694   Zn695   1.891   .     S
C697   O747    1.289   .     A
C697   C718    1.402   .     S
C697   O861    1.275   1_455 S
C698   C700    1.457   .     S
C698   O752    1.301   .     A
C698   O808    1.290   .     S
C699   C705    1.399   .     A
C699   C703    1.413   .     A
C699   C720    1.457   .     S
C700   C704    1.413   .     A
C700   C706    1.399   .     A
C701   C710    1.399   .     A
C701   H732    1.084   .     S
C701   C703    1.399   .     A
C702   H733    1.084   .     S
C702   C704    1.400   .     A
C702   C711    1.399   .     A
C703   N860    1.437   1_455 S
C704   N801    1.437   .     S
C705   C707    1.402   .     A
C705   N742    1.440   .     S
C706   N741    1.440   .     S
C706   C709    1.402   .     A
C707   C712    1.419   .     A
C707   C710    1.417   .     A
C708   C719    1.402   .     S
C708   O748    1.289   .     A
C708   O804    1.275   .     S
C709   C713    1.418   .     A
C709   C711    1.416   .     A
C710   C194    1.389   1_556 S
C712   C715    1.415   .     A
C712   C191    1.417   1_556 S
C713   C714    1.414   .     A
C714   H734    1.077   .     S
C714   C716    1.385   .     A
C715   H735    1.076   .     S
C715   C717    1.386   .     A
C716   H721    1.084   .     S
C717   H731    1.084   .     S
C717   C189    1.390   1_556 S
C718   C1009   1.340   1_455 S
C718   H910    1.088   .     S
C720   O751    1.301   .     A
C720   O865    1.289   1_455 S
H722   N740    1.029   .     S
H723   N741    1.046   .     S
H724   N741    1.043   .     S
H725   N742    1.043   .     S
H726   N742    1.046   .     S
H727   N743    1.046   .     S
H728   N743    1.046   .     S
H729   N744    1.046   .     S
H730   N744    1.045   .     S
H737   C893    1.088   .     S
H738   N739    1.029   .     S
N739   N740    1.291   .     D
N739   Zn754   2.018   .     S
N740   Zn753   2.018   .     S
N743   C820    1.437   1_455 S
N744   C761    1.437   .     S
O745   Zn753   1.949   .     S
O745   C755    1.275   .     S
O746   Zn754   1.949   .     S
O746   C824    1.275   1_455 S
O747   Zn754   1.978   .     S
O748   Zn753   1.978   .     S
O749   Zn753   1.949   .     S
O749   C778    1.289   .     S
O750   Zn754   1.949   .     S
O750   C814    1.290   1_455 S
O751   Zn754   1.891   .     S
O752   Zn753   1.891   .     S
C755   O805    1.289   .     A
C755   C776    1.402   .     S
C756   C758    1.457   .     S
C756   O810    1.301   .     A
C756   O866    1.290   .     S
C757   C763    1.399   .     A
C757   C761    1.413   .     A
C757   C778    1.457   .     S
C758   C762    1.413   .     A
C758   C764    1.399   .     A
C759   C768    1.399   .     A
C759   H790    1.084   .     S
C759   C761    1.399   .     A
C760   H791    1.084   .     S
C760   C762    1.400   .     A
C760   C769    1.399   .     A
C762   N859    1.437   .     S
C763   C765    1.402   .     A
C763   N800    1.440   .     S
C764   N799    1.440   .     S
C764   C767    1.402   .     A
C765   C770    1.419   .     A
C765   C768    1.417   .     A
C766   C777    1.402   .     S
C766   O806    1.289   .     A
C766   O862    1.275   .     S
C767   C771    1.418   .     A
C767   C769    1.416   .     A
C768   C252    1.389   1_556 S
C770   C773    1.415   .     A
C770   C249    1.417   1_556 S
C771   C772    1.414   .     A
C772   H792    1.077   .     S
C772   C774    1.385   .     A
C773   H793    1.076   .     S
C773   C775    1.386   .     A
C774   H779    1.084   .     S
C775   H789    1.084   .     S
C775   C247    1.390   1_556 S
C776   C893    1.340   .     S
C776   H968    1.088   .     S
C778   O809    1.301   .     A
H780   N798    1.029   .     S
H781   N799    1.046   .     S
H782   N799    1.043   .     S
H783   N800    1.043   .     S
H784   N800    1.046   .     S
H785   N801    1.046   .     S
H786   N801    1.046   .     S
H787   N802    1.046   .     S
H788   N802    1.045   .     S
H795   C951    1.088   .     S
H796   N797    1.029   .     S
N797   N798    1.291   .     D
N797   Zn812   2.018   .     S
N798   Zn811   2.018   .     S
N802   C819    1.437   .     S
O803   Zn811   1.949   .     S
O803   C813    1.275   .     S
O804   Zn812   1.949   .     S
O805   Zn812   1.978   .     S
O806   Zn811   1.978   .     S
O807   Zn811   1.949   .     S
O807   C836    1.289   .     S
O808   Zn812   1.949   .     S
O809   Zn812   1.891   .     S
O810   Zn811   1.891   .     S
C813   O863    1.289   .     A
C813   C834    1.402   .     S
C814   C816    1.457   .     S
C814   O868    1.301   .     A
C814   O750    1.290   1_655 S
C815   C821    1.399   .     A
C815   C819    1.413   .     A
C815   C836    1.457   .     S
C816   C820    1.413   .     A
C816   C822    1.399   .     A
C817   C826    1.399   .     A
C817   H848    1.084   .     S
C817   C819    1.399   .     A
C818   H849    1.084   .     S
C818   C820    1.400   .     A
C818   C827    1.399   .     A
C820   N743    1.437   1_655 S
C821   C823    1.402   .     A
C821   N858    1.440   .     S
C822   N857    1.440   .     S
C822   C825    1.402   .     A
C823   C828    1.419   .     A
C823   C826    1.417   .     A
C824   C835    1.402   .     S
C824   O864    1.289   .     A
C824   O746    1.275   1_655 S
C825   C829    1.418   .     A
C825   C827    1.416   .     A
C826   C310    1.389   1_556 S
C828   C831    1.415   .     A
C828   C307    1.417   1_556 S
C829   C830    1.414   .     A
C830   H850    1.077   .     S
C830   C832    1.385   .     A
C831   H851    1.076   .     S
C831   C833    1.386   .     A
C832   H837    1.084   .     S
C833   H847    1.084   .     S
C833   C305    1.390   1_556 S
C834   C951    1.340   .     S
C834   H1026   1.088   .     S
C835   C544    1.340   1_655 S
C836   O867    1.301   .     A
H838   N856    1.029   .     S
H839   N857    1.046   .     S
H840   N857    1.043   .     S
H841   N858    1.043   .     S
H842   N858    1.046   .     S
H843   N859    1.046   .     S
H844   N859    1.046   .     S
H845   N860    1.046   .     S
H846   N860    1.045   .     S
H853   C1009   1.088   .     S
H854   N855    1.029   .     S
N855   N856    1.291   .     D
N855   Zn870   2.018   .     S
N856   Zn869   2.018   .     S
N860   C703    1.437   1_655 S
O861   Zn869   1.949   .     S
O861   C697    1.275   1_655 S
O862   Zn870   1.949   .     S
O863   Zn870   1.978   .     S
O864   Zn869   1.978   .     S
O865   Zn869   1.949   .     S
O865   C720    1.289   1_655 S
O866   Zn870   1.949   .     S
O867   Zn870   1.891   .     S
O868   Zn869   1.891   .     S
C871   O921    1.289   .     A
C871   C892    1.402   .     S
C871   O1035   1.275   1_455 S
C872   C874    1.457   .     S
C872   O926    1.301   .     A
C872   O982    1.290   .     S
C873   C879    1.399   .     A
C873   C877    1.413   .     A
C873   C894    1.457   .     S
C874   C878    1.413   .     A
C874   C880    1.399   .     A
C875   C884    1.399   .     A
C875   H906    1.084   .     S
C875   C877    1.399   .     A
C876   H907    1.084   .     S
C876   C878    1.400   .     A
C876   C885    1.399   .     A
C877   N1034   1.437   1_455 S
C878   N975    1.437   .     S
C879   C881    1.402   .     A
C879   N916    1.440   .     S
C880   N915    1.440   .     S
C880   C883    1.402   .     A
C881   C886    1.419   .     A
C881   C884    1.417   .     A
C882   C893    1.402   .     S
C882   O922    1.289   .     A
C882   O978    1.275   .     S
C883   C887    1.418   .     A
C883   C885    1.416   .     A
C884   C368    1.389   1_556 S
C886   C889    1.415   .     A
C886   C365    1.417   1_556 S
C887   C888    1.414   .     A
C888   H908    1.077   .     S
C888   C890    1.385   .     A
C889   H909    1.076   .     S
C889   C891    1.386   .     A
C890   H895    1.084   .     S
C891   H905    1.084   .     S
C891   C363    1.390   1_556 S
C892   C661    1.340   1_465 S
C892   H562    1.088   1_565 S
C894   O925    1.301   .     A
C894   O1039   1.289   1_455 S
H896   N914    1.029   .     S
H897   N915    1.046   .     S
H898   N915    1.043   .     S
H899   N916    1.043   .     S
H900   N916    1.046   .     S
H901   N917    1.046   .     S
H902   N917    1.046   .     S
H903   N918    1.046   .     S
H904   N918    1.045   .     S
H911   C545    1.088   1_565 S
H912   N913    1.029   .     S
N913   N914    1.291   .     D
N913   Zn928   2.018   .     S
N914   Zn927   2.018   .     S
N917   C994    1.437   1_455 S
N918   C935    1.437   .     S
O919   Zn927   1.949   .     S
O919   C929    1.275   .     S
O920   Zn928   1.949   .     S
O920   C998    1.275   1_455 S
O921   Zn928   1.978   .     S
O922   Zn927   1.978   .     S
O923   Zn927   1.949   .     S
O923   C952    1.289   .     S
O924   Zn928   1.949   .     S
O924   C988    1.290   1_455 S
O925   Zn928   1.891   .     S
O926   Zn927   1.891   .     S
C929   O979    1.289   .     A
C929   C950    1.402   .     S
C930   C932    1.457   .     S
C930   O984    1.301   .     A
C930   O1040   1.290   .     S
C931   C937    1.399   .     A
C931   C935    1.413   .     A
C931   C952    1.457   .     S
C932   C936    1.413   .     A
C932   C938    1.399   .     A
C933   C942    1.399   .     A
C933   H964    1.084   .     S
C933   C935    1.399   .     A
C934   H965    1.084   .     S
C934   C936    1.400   .     A
C934   C943    1.399   .     A
C936   N1033   1.437   .     S
C937   C939    1.402   .     A
C937   N974    1.440   .     S
C938   N973    1.440   .     S
C938   C941    1.402   .     A
C939   C944    1.419   .     A
C939   C942    1.417   .     A
C940   C951    1.402   .     S
C940   O980    1.289   .     A
C940   O1036   1.275   .     S
C941   C945    1.418   .     A
C941   C943    1.416   .     A
C942   C426    1.389   1_556 S
C944   C947    1.415   .     A
C944   C423    1.417   1_556 S
C945   C946    1.414   .     A
C946   H966    1.077   .     S
C946   C948    1.385   .     A
C947   H967    1.076   .     S
C947   C949    1.386   .     A
C948   H953    1.084   .     S
C949   H963    1.084   .     S
C949   C421    1.390   1_556 S
C950   C545    1.340   1_565 S
C950   H620    1.088   1_565 S
C952   O983    1.301   .     A
H954   N972    1.029   .     S
H955   N973    1.046   .     S
H956   N973    1.043   .     S
H957   N974    1.043   .     S
H958   N974    1.046   .     S
H959   N975    1.046   .     S
H960   N975    1.046   .     S
H961   N976    1.046   .     S
H962   N976    1.045   .     S
H969   C603    1.088   1_565 S
H970   N971    1.029   .     S
N971   N972    1.291   .     D
N971   Zn986   2.018   .     S
N972   Zn985   2.018   .     S
N976   C993    1.437   .     S
O977   Zn985   1.949   .     S
O977   C987    1.275   .     S
O978   Zn986   1.949   .     S
O979   Zn986   1.978   .     S
O980   Zn985   1.978   .     S
O981   Zn985   1.949   .     S
O981   C1010   1.289   .     S
O982   Zn986   1.949   .     S
O983   Zn986   1.891   .     S
O984   Zn985   1.891   .     S
C987   O1037   1.289   .     A
C987   C1008   1.402   .     S
C988   C990    1.457   .     S
C988   O1042   1.301   .     A
C988   O924    1.290   1_655 S
C989   C995    1.399   .     A
C989   C993    1.413   .     A
C989   C1010   1.457   .     S
C990   C994    1.413   .     A
C990   C996    1.399   .     A
C991   C1000   1.399   .     A
C991   H1022   1.084   .     S
C991   C993    1.399   .     A
C992   H1023   1.084   .     S
C992   C994    1.400   .     A
C992   C1001   1.399   .     A
C994   N917    1.437   1_655 S
C995   C997    1.402   .     A
C995   N1032   1.440   .     S
C996   N1031   1.440   .     S
C996   C999    1.402   .     A
C997   C1002   1.419   .     A
C997   C1000   1.417   .     A
C998   C1009   1.402   .     S
C998   O1038   1.289   .     A
C998   O920    1.275   1_655 S
C999   C1003   1.418   .     A
C999   C1001   1.416   .     A
C1000  C484    1.389   1_556 S
C1002  C1005   1.415   .     A
C1002  C481    1.417   1_556 S
C1003  C1004   1.414   .     A
C1004  H1024   1.077   .     S
C1004  C1006   1.385   .     A
C1005  H1025   1.076   .     S
C1005  C1007   1.386   .     A
C1006  H1011   1.084   .     S
C1007  H1021   1.084   .     S
C1007  C479    1.390   1_556 S
C1008  C603    1.340   1_565 S
C1008  H678    1.088   1_565 S
C1009  C718    1.340   1_655 S
C1010  O1041   1.301   .     A
H1012  N1030   1.029   .     S
H1013  N1031   1.046   .     S
H1014  N1031   1.043   .     S
H1015  N1032   1.043   .     S
H1016  N1032   1.046   .     S
H1017  N1033   1.046   .     S
H1018  N1033   1.046   .     S
H1019  N1034   1.046   .     S
H1020  N1034   1.045   .     S
H1027  C661    1.088   1_565 S
H1028  N1029   1.029   .     S
N1029  N1030   1.291   .     D
N1029  Zn1044  2.018   .     S
N1030  Zn1043  2.018   .     S
N1034  C877    1.437   1_655 S
O1035  Zn1043  1.949   .     S
O1035  C871    1.275   1_655 S
O1036  Zn1044  1.949   .     S
O1037  Zn1044  1.978   .     S
O1038  Zn1043  1.978   .     S
O1039  Zn1043  1.949   .     S
O1039  C894    1.289   1_655 S
O1040  Zn1044  1.949   .     S
O1041  Zn1044  1.891   .     S
O1042  Zn1043  1.891   .     S
