data_str_m3_o1_o18_pcu_sym.21
_audit_creation_date              2020-01-03
_audit_creation_method            'Materials Studio'
_symmetry_space_group_name_H-M    'P1'
_symmetry_Int_Tables_number       1
_symmetry_cell_setting            triclinic
loop_
_symmetry_equiv_pos_as_xyz
  x,y,z
_cell_length_a                    29.5639
_cell_length_b                    32.1255
_cell_length_c                    30.5901
_cell_angle_alpha                 89.1906
_cell_angle_beta                  69.0803
_cell_angle_gamma                 90.6713
loop_
_atom_site_label
_atom_site_type_symbol
_atom_site_fract_x
_atom_site_fract_y
_atom_site_fract_z
_atom_site_U_iso_or_equiv
_atom_site_adp_type
_atom_site_occupancy
C1     C     0.16783   0.24657   0.24769   0.00000  Uiso   1.00
C2     C     0.12588   0.30954   0.27423   0.00000  Uiso   1.00
C3     C     0.16515   0.04236   0.25075   0.00000  Uiso   1.00
C4     C     0.16844   0.29069   0.24652   0.00000  Uiso   1.00
C5     C     0.31874   0.13900   0.22372   0.00000  Uiso   1.00
C6     C     0.01464   0.19439   0.27620   0.00000  Uiso   1.00
C7     C     0.03332   0.13904   0.22373   0.00000  Uiso   1.00
C8     C     0.30006   0.19441   0.27616   0.00000  Uiso   1.00
C9     C     0.13672   0.16627   0.33832   0.00000  Uiso   1.00
C10    C     0.19664   0.16615   0.16188   0.00000  Uiso   1.00
C11    C     0.11960   0.15723   0.38878   0.00000  Uiso   1.00
C12    C     0.16578   0.08662   0.25134   0.00000  Uiso   1.00
C13    C     0.21505   0.16070   0.11133   0.00000  Uiso   1.00
C14    C     0.06214   0.12263   0.45738   0.00000  Uiso   1.00
C15    C     0.28069   0.16108   0.03657   0.00000  Uiso   1.00
C16    C     0.07302   0.14114   0.41310   0.00000  Uiso   1.00
C17    C     0.26419   0.16692   0.08464   0.00000  Uiso   1.00
C18    C     0.15400   0.15684   0.41024   0.00000  Uiso   1.00
C19    C     0.18304   0.14722   0.08996   0.00000  Uiso   1.00
C20    C     0.14526   0.13526   0.45239   0.00000  Uiso   1.00
C21    C     0.19959   0.13770   0.04253   0.00000  Uiso   1.00
C22    C     0.09779   0.12039   0.47766   0.00000  Uiso   1.00
C23    C     0.12110   0.10537   0.04446   0.00000  Uiso   1.00
C24    C     0.24862   0.14715   0.01522   0.00000  Uiso   1.00
C25    C     0.18179   0.13132   0.47169   0.00000  Uiso   1.00
C26    C     0.16733   0.12435   0.02050   0.00000  Uiso   1.00
C27    C     0.23201   0.13479   0.44476   0.00000  Uiso   1.00
C28    C     0.08701   0.10329   0.02251   0.00000  Uiso   1.00
C29    C     0.26470   0.14307   0.46689   0.00000  Uiso   1.00
C30    C     0.20959   0.31407   0.21916   0.00000  Uiso   1.00
C31    C     0.12342   0.01876   0.27663   0.00000  Uiso   1.00
C32    C     0.20757   0.02348   0.22230   0.00000  Uiso   1.00
H33    H     0.05178   0.08901   0.04090   0.00000  Uiso   1.00
H34    H     0.09470   0.29070   0.29489   0.00000  Uiso   1.00
H35    H     0.30812   0.11685   0.20269   0.00000  Uiso   1.00
H36    H     0.02526   0.21651   0.29725   0.00000  Uiso   1.00
H37    H     0.05891   0.11688   0.20285   0.00000  Uiso   1.00
H38    H     0.27444   0.21652   0.29720   0.00000  Uiso   1.00
H39    H     0.30081   0.29349   0.22764   0.00000  Uiso   1.00
H40    H     0.10238   0.06108   0.36298   0.00000  Uiso   1.00
H41    H     0.30252   0.14742   0.44606   0.00000  Uiso   1.00
H42    H     0.14476   0.14598   0.11019   0.00000  Uiso   1.00
H43    H     0.18812   0.17315   0.39333   0.00000  Uiso   1.00
H44    H     0.28948   0.17743   0.10066   0.00000  Uiso   1.00
H45    H     0.04618   0.14078   0.39664   0.00000  Uiso   1.00
H46    H     0.02638   0.10926   0.47531   0.00000  Uiso   1.00
H47    H     0.31817   0.16847   0.01607   0.00000  Uiso   1.00
H48    H     0.23881   0.04232   0.20176   0.00000  Uiso   1.00
I49    I     0.10360   0.06855   0.10712   0.00000  Uiso   1.00
I50    I     0.26375   0.11656   0.37358   0.00000  Uiso   1.00
N51    N     0.04759   0.16668   0.25001   0.00000  Uiso   1.00
N52    N     0.28574   0.16666   0.24999   0.00000  Uiso   1.00
O53    O     0.12846   0.22775   0.25001   0.00000  Uiso   1.00
O54    O     0.29329   0.32416   0.14525   0.00000  Uiso   1.00
O55    O     0.29529   0.27058   0.20868   0.00000  Uiso   1.00
O56    O     0.04254   0.06066   0.28674   0.00000  Uiso   1.00
O57    O     0.03650   0.00738   0.34644   0.00000  Uiso   1.00
O58    O     0.08263   0.07599   0.34776   0.00000  Uiso   1.00
O59    O     0.20488   0.10558   0.25000   0.00000  Uiso   1.00
O60    O     0.20490   0.22774   0.25000   0.00000  Uiso   1.00
O61    O     0.12843   0.10559   0.25000   0.00000  Uiso   1.00
O62    O     0.10661   0.16667   0.31613   0.00000  Uiso   1.00
O63    O     0.22672   0.16666   0.18388   0.00000  Uiso   1.00
O64    O     0.18305   0.16666   0.31612   0.00000  Uiso   1.00
O65    O     0.15028   0.16667   0.18388   0.00000  Uiso   1.00
O66    O     0.24885   0.25829   0.15219   0.00000  Uiso   1.00
S67    S     0.26266   0.29171   0.17919   0.00000  Uiso   1.00
S68    S     0.06902   0.04032   0.31486   0.00000  Uiso   1.00
Zn69   Zn    0.11562   0.16667   0.25000   0.00000  Uiso   1.00
Zn70   Zn    0.21771   0.16666   0.25000   0.00000  Uiso   1.00
C71    C     0.50116   0.24657   0.24769   0.00000  Uiso   1.00
C72    C     0.45922   0.30954   0.27423   0.00000  Uiso   1.00
C73    C     0.49849   0.04236   0.25075   0.00000  Uiso   1.00
C74    C     0.50177   0.29069   0.24652   0.00000  Uiso   1.00
C75    C     0.65207   0.13900   0.22372   0.00000  Uiso   1.00
C76    C     0.34797   0.19439   0.27620   0.00000  Uiso   1.00
C77    C     0.36665   0.13904   0.22373   0.00000  Uiso   1.00
C78    C     0.63339   0.19441   0.27616   0.00000  Uiso   1.00
C79    C     0.47005   0.16627   0.33832   0.00000  Uiso   1.00
C80    C     0.52998   0.16615   0.16188   0.00000  Uiso   1.00
C81    C     0.45294   0.15723   0.38878   0.00000  Uiso   1.00
C82    C     0.49911   0.08662   0.25134   0.00000  Uiso   1.00
C83    C     0.54838   0.16070   0.11133   0.00000  Uiso   1.00
C84    C     0.39548   0.12263   0.45738   0.00000  Uiso   1.00
C85    C     0.61403   0.16108   0.03657   0.00000  Uiso   1.00
C86    C     0.40635   0.14114   0.41310   0.00000  Uiso   1.00
C87    C     0.59753   0.16692   0.08464   0.00000  Uiso   1.00
C88    C     0.48733   0.15684   0.41024   0.00000  Uiso   1.00
C89    C     0.51637   0.14722   0.08996   0.00000  Uiso   1.00
C90    C     0.47860   0.13526   0.45239   0.00000  Uiso   1.00
C91    C     0.53292   0.13770   0.04253   0.00000  Uiso   1.00
C92    C     0.43113   0.12039   0.47766   0.00000  Uiso   1.00
C93    C     0.45443   0.10537   0.04446   0.00000  Uiso   1.00
C94    C     0.58195   0.14715   0.01522   0.00000  Uiso   1.00
C95    C     0.51512   0.13132   0.47169   0.00000  Uiso   1.00
C96    C     0.50066   0.12435   0.02050   0.00000  Uiso   1.00
C97    C     0.56535   0.13479   0.44476   0.00000  Uiso   1.00
C98    C     0.42034   0.10329   0.02251   0.00000  Uiso   1.00
C99    C     0.59804   0.14307   0.46689   0.00000  Uiso   1.00
C100   C     0.54293   0.31407   0.21916   0.00000  Uiso   1.00
C101   C     0.45675   0.01876   0.27663   0.00000  Uiso   1.00
C102   C     0.54091   0.02348   0.22230   0.00000  Uiso   1.00
H103   H     0.38512   0.08901   0.04090   0.00000  Uiso   1.00
H104   H     0.42803   0.29070   0.29489   0.00000  Uiso   1.00
H105   H     0.64145   0.11685   0.20269   0.00000  Uiso   1.00
H106   H     0.35859   0.21651   0.29725   0.00000  Uiso   1.00
H107   H     0.39224   0.11688   0.20285   0.00000  Uiso   1.00
H108   H     0.60777   0.21652   0.29720   0.00000  Uiso   1.00
H109   H     0.63415   0.29349   0.22764   0.00000  Uiso   1.00
H110   H     0.43571   0.06108   0.36298   0.00000  Uiso   1.00
H111   H     0.63585   0.14742   0.44606   0.00000  Uiso   1.00
H112   H     0.47809   0.14598   0.11019   0.00000  Uiso   1.00
H113   H     0.52146   0.17315   0.39333   0.00000  Uiso   1.00
H114   H     0.62282   0.17743   0.10066   0.00000  Uiso   1.00
H115   H     0.37951   0.14078   0.39664   0.00000  Uiso   1.00
H116   H     0.35971   0.10926   0.47531   0.00000  Uiso   1.00
H117   H     0.65150   0.16847   0.01607   0.00000  Uiso   1.00
H118   H     0.57214   0.04232   0.20176   0.00000  Uiso   1.00
I119   I     0.43693   0.06855   0.10712   0.00000  Uiso   1.00
I120   I     0.59709   0.11656   0.37358   0.00000  Uiso   1.00
N121   N     0.38093   0.16668   0.25001   0.00000  Uiso   1.00
N122   N     0.61907   0.16666   0.24999   0.00000  Uiso   1.00
O123   O     0.46179   0.22775   0.25001   0.00000  Uiso   1.00
O124   O     0.62663   0.32416   0.14525   0.00000  Uiso   1.00
O125   O     0.62862   0.27058   0.20868   0.00000  Uiso   1.00
O126   O     0.37587   0.06066   0.28674   0.00000  Uiso   1.00
O127   O     0.36984   0.00738   0.34644   0.00000  Uiso   1.00
O128   O     0.41596   0.07599   0.34776   0.00000  Uiso   1.00
O129   O     0.53821   0.10558   0.25000   0.00000  Uiso   1.00
O130   O     0.53823   0.22774   0.25000   0.00000  Uiso   1.00
O131   O     0.46177   0.10559   0.25000   0.00000  Uiso   1.00
O132   O     0.43994   0.16667   0.31613   0.00000  Uiso   1.00
O133   O     0.56006   0.16666   0.18388   0.00000  Uiso   1.00
O134   O     0.51639   0.16666   0.31612   0.00000  Uiso   1.00
O135   O     0.48361   0.16667   0.18388   0.00000  Uiso   1.00
O136   O     0.58218   0.25829   0.15219   0.00000  Uiso   1.00
S137   S     0.59599   0.29171   0.17919   0.00000  Uiso   1.00
S138   S     0.40235   0.04032   0.31486   0.00000  Uiso   1.00
Zn139  Zn    0.44896   0.16667   0.25000   0.00000  Uiso   1.00
Zn140  Zn    0.55104   0.16666   0.25000   0.00000  Uiso   1.00
C141   C     0.83449   0.24657   0.24769   0.00000  Uiso   1.00
C142   C     0.79255   0.30954   0.27423   0.00000  Uiso   1.00
C143   C     0.83182   0.04236   0.25075   0.00000  Uiso   1.00
C144   C     0.83510   0.29069   0.24652   0.00000  Uiso   1.00
C145   C     0.98540   0.13900   0.22372   0.00000  Uiso   1.00
C146   C     0.68130   0.19439   0.27620   0.00000  Uiso   1.00
C147   C     0.69998   0.13904   0.22373   0.00000  Uiso   1.00
C148   C     0.96672   0.19441   0.27616   0.00000  Uiso   1.00
C149   C     0.80338   0.16627   0.33832   0.00000  Uiso   1.00
C150   C     0.86331   0.16615   0.16188   0.00000  Uiso   1.00
C151   C     0.78627   0.15723   0.38878   0.00000  Uiso   1.00
C152   C     0.83244   0.08662   0.25134   0.00000  Uiso   1.00
C153   C     0.88172   0.16070   0.11133   0.00000  Uiso   1.00
C154   C     0.72881   0.12263   0.45738   0.00000  Uiso   1.00
C155   C     0.94736   0.16108   0.03657   0.00000  Uiso   1.00
C156   C     0.73968   0.14114   0.41310   0.00000  Uiso   1.00
C157   C     0.93086   0.16692   0.08464   0.00000  Uiso   1.00
C158   C     0.82066   0.15684   0.41024   0.00000  Uiso   1.00
C159   C     0.84971   0.14722   0.08996   0.00000  Uiso   1.00
C160   C     0.81193   0.13526   0.45239   0.00000  Uiso   1.00
C161   C     0.86626   0.13770   0.04253   0.00000  Uiso   1.00
C162   C     0.76446   0.12039   0.47766   0.00000  Uiso   1.00
C163   C     0.78776   0.10537   0.04446   0.00000  Uiso   1.00
C164   C     0.91528   0.14715   0.01522   0.00000  Uiso   1.00
C165   C     0.84845   0.13132   0.47169   0.00000  Uiso   1.00
C166   C     0.83399   0.12435   0.02050   0.00000  Uiso   1.00
C167   C     0.89868   0.13479   0.44476   0.00000  Uiso   1.00
C168   C     0.75368   0.10329   0.02251   0.00000  Uiso   1.00
C169   C     0.93137   0.14307   0.46689   0.00000  Uiso   1.00
C170   C     0.87626   0.31407   0.21916   0.00000  Uiso   1.00
C171   C     0.79008   0.01876   0.27663   0.00000  Uiso   1.00
C172   C     0.87424   0.02348   0.22230   0.00000  Uiso   1.00
H173   H     0.71845   0.08901   0.04090   0.00000  Uiso   1.00
H174   H     0.76137   0.29070   0.29489   0.00000  Uiso   1.00
H175   H     0.97479   0.11685   0.20269   0.00000  Uiso   1.00
H176   H     0.69192   0.21651   0.29725   0.00000  Uiso   1.00
H177   H     0.72558   0.11688   0.20285   0.00000  Uiso   1.00
H178   H     0.94110   0.21652   0.29720   0.00000  Uiso   1.00
H179   H     0.96748   0.29349   0.22764   0.00000  Uiso   1.00
H180   H     0.76904   0.06108   0.36298   0.00000  Uiso   1.00
H181   H     0.96919   0.14742   0.44606   0.00000  Uiso   1.00
H182   H     0.81142   0.14598   0.11019   0.00000  Uiso   1.00
H183   H     0.85479   0.17315   0.39333   0.00000  Uiso   1.00
H184   H     0.95615   0.17743   0.10066   0.00000  Uiso   1.00
H185   H     0.71284   0.14078   0.39664   0.00000  Uiso   1.00
H186   H     0.69305   0.10926   0.47531   0.00000  Uiso   1.00
H187   H     0.98483   0.16847   0.01607   0.00000  Uiso   1.00
H188   H     0.90547   0.04232   0.20176   0.00000  Uiso   1.00
I189   I     0.77027   0.06855   0.10712   0.00000  Uiso   1.00
I190   I     0.93042   0.11656   0.37358   0.00000  Uiso   1.00
N191   N     0.71426   0.16668   0.25001   0.00000  Uiso   1.00
N192   N     0.95241   0.16666   0.24999   0.00000  Uiso   1.00
O193   O     0.79512   0.22775   0.25001   0.00000  Uiso   1.00
O194   O     0.95996   0.32416   0.14525   0.00000  Uiso   1.00
O195   O     0.96196   0.27058   0.20868   0.00000  Uiso   1.00
O196   O     0.70921   0.06066   0.28674   0.00000  Uiso   1.00
O197   O     0.70317   0.00738   0.34644   0.00000  Uiso   1.00
O198   O     0.74930   0.07599   0.34776   0.00000  Uiso   1.00
O199   O     0.87154   0.10558   0.25000   0.00000  Uiso   1.00
O200   O     0.87157   0.22774   0.25000   0.00000  Uiso   1.00
O201   O     0.79510   0.10559   0.25000   0.00000  Uiso   1.00
O202   O     0.77328   0.16667   0.31613   0.00000  Uiso   1.00
O203   O     0.89339   0.16666   0.18388   0.00000  Uiso   1.00
O204   O     0.84972   0.16666   0.31612   0.00000  Uiso   1.00
O205   O     0.81695   0.16667   0.18388   0.00000  Uiso   1.00
O206   O     0.91552   0.25829   0.15219   0.00000  Uiso   1.00
S207   S     0.92932   0.29171   0.17919   0.00000  Uiso   1.00
S208   S     0.73568   0.04032   0.31486   0.00000  Uiso   1.00
Zn209  Zn    0.78229   0.16667   0.25000   0.00000  Uiso   1.00
Zn210  Zn    0.88438   0.16666   0.25000   0.00000  Uiso   1.00
C211   C     0.16783   0.57991   0.24769   0.00000  Uiso   1.00
C212   C     0.12588   0.64287   0.27423   0.00000  Uiso   1.00
C213   C     0.16515   0.37570   0.25075   0.00000  Uiso   1.00
C214   C     0.16844   0.62402   0.24652   0.00000  Uiso   1.00
C215   C     0.31874   0.47234   0.22372   0.00000  Uiso   1.00
C216   C     0.01464   0.52773   0.27620   0.00000  Uiso   1.00
C217   C     0.03332   0.47237   0.22373   0.00000  Uiso   1.00
C218   C     0.30006   0.52774   0.27616   0.00000  Uiso   1.00
C219   C     0.13672   0.49960   0.33832   0.00000  Uiso   1.00
C220   C     0.19664   0.49949   0.16188   0.00000  Uiso   1.00
C221   C     0.11960   0.49056   0.38878   0.00000  Uiso   1.00
C222   C     0.16578   0.41995   0.25134   0.00000  Uiso   1.00
C223   C     0.21505   0.49403   0.11133   0.00000  Uiso   1.00
C224   C     0.06214   0.45596   0.45738   0.00000  Uiso   1.00
C225   C     0.28069   0.49442   0.03657   0.00000  Uiso   1.00
C226   C     0.07302   0.47447   0.41310   0.00000  Uiso   1.00
C227   C     0.26419   0.50026   0.08464   0.00000  Uiso   1.00
C228   C     0.15400   0.49017   0.41024   0.00000  Uiso   1.00
C229   C     0.18304   0.48056   0.08996   0.00000  Uiso   1.00
C230   C     0.14526   0.46859   0.45239   0.00000  Uiso   1.00
C231   C     0.19959   0.47104   0.04253   0.00000  Uiso   1.00
C232   C     0.09779   0.45372   0.47766   0.00000  Uiso   1.00
C233   C     0.12110   0.43870   0.04446   0.00000  Uiso   1.00
C234   C     0.24862   0.48048   0.01522   0.00000  Uiso   1.00
C235   C     0.18179   0.46465   0.47169   0.00000  Uiso   1.00
C236   C     0.16733   0.45768   0.02050   0.00000  Uiso   1.00
C237   C     0.23201   0.46813   0.44476   0.00000  Uiso   1.00
C238   C     0.08701   0.43663   0.02251   0.00000  Uiso   1.00
C239   C     0.26470   0.47640   0.46689   0.00000  Uiso   1.00
C240   C     0.20959   0.64740   0.21916   0.00000  Uiso   1.00
C241   C     0.12342   0.35210   0.27663   0.00000  Uiso   1.00
C242   C     0.20757   0.35681   0.22230   0.00000  Uiso   1.00
H243   H     0.05178   0.42235   0.04090   0.00000  Uiso   1.00
H244   H     0.09470   0.62404   0.29489   0.00000  Uiso   1.00
H245   H     0.30812   0.45019   0.20269   0.00000  Uiso   1.00
H246   H     0.02526   0.54985   0.29725   0.00000  Uiso   1.00
H247   H     0.05891   0.45021   0.20285   0.00000  Uiso   1.00
H248   H     0.27444   0.54986   0.29720   0.00000  Uiso   1.00
H249   H     0.30081   0.62682   0.22764   0.00000  Uiso   1.00
H250   H     0.10238   0.39441   0.36298   0.00000  Uiso   1.00
H251   H     0.30252   0.48075   0.44606   0.00000  Uiso   1.00
H252   H     0.14476   0.47932   0.11019   0.00000  Uiso   1.00
H253   H     0.18812   0.50648   0.39333   0.00000  Uiso   1.00
H254   H     0.28948   0.51076   0.10066   0.00000  Uiso   1.00
H255   H     0.04618   0.47412   0.39664   0.00000  Uiso   1.00
H256   H     0.02638   0.44259   0.47531   0.00000  Uiso   1.00
H257   H     0.31817   0.50180   0.01607   0.00000  Uiso   1.00
H258   H     0.23881   0.37565   0.20176   0.00000  Uiso   1.00
I259   I     0.10360   0.40189   0.10712   0.00000  Uiso   1.00
I260   I     0.26375   0.44990   0.37358   0.00000  Uiso   1.00
N261   N     0.04759   0.50001   0.25001   0.00000  Uiso   1.00
N262   N     0.28574   0.49999   0.24999   0.00000  Uiso   1.00
O263   O     0.12846   0.56108   0.25001   0.00000  Uiso   1.00
O264   O     0.29329   0.65750   0.14525   0.00000  Uiso   1.00
O265   O     0.29529   0.60391   0.20868   0.00000  Uiso   1.00
O266   O     0.04254   0.39400   0.28674   0.00000  Uiso   1.00
O267   O     0.03650   0.34071   0.34644   0.00000  Uiso   1.00
O268   O     0.08263   0.40932   0.34776   0.00000  Uiso   1.00
O269   O     0.20488   0.43892   0.25000   0.00000  Uiso   1.00
O270   O     0.20490   0.56107   0.25000   0.00000  Uiso   1.00
O271   O     0.12843   0.43893   0.25000   0.00000  Uiso   1.00
O272   O     0.10661   0.50001   0.31613   0.00000  Uiso   1.00
O273   O     0.22672   0.49999   0.18388   0.00000  Uiso   1.00
O274   O     0.18305   0.50000   0.31612   0.00000  Uiso   1.00
O275   O     0.15028   0.50000   0.18388   0.00000  Uiso   1.00
O276   O     0.24885   0.59162   0.15219   0.00000  Uiso   1.00
S277   S     0.26266   0.62504   0.17919   0.00000  Uiso   1.00
S278   S     0.06902   0.37365   0.31486   0.00000  Uiso   1.00
Zn279  Zn    0.11562   0.50001   0.25000   0.00000  Uiso   1.00
Zn280  Zn    0.21771   0.49999   0.25000   0.00000  Uiso   1.00
C281   C     0.50116   0.57991   0.24769   0.00000  Uiso   1.00
C282   C     0.45922   0.64287   0.27423   0.00000  Uiso   1.00
C283   C     0.49849   0.37570   0.25075   0.00000  Uiso   1.00
C284   C     0.50177   0.62402   0.24652   0.00000  Uiso   1.00
C285   C     0.65207   0.47234   0.22372   0.00000  Uiso   1.00
C286   C     0.34797   0.52773   0.27620   0.00000  Uiso   1.00
C287   C     0.36665   0.47237   0.22373   0.00000  Uiso   1.00
C288   C     0.63339   0.52774   0.27616   0.00000  Uiso   1.00
C289   C     0.47005   0.49960   0.33832   0.00000  Uiso   1.00
C290   C     0.52998   0.49949   0.16188   0.00000  Uiso   1.00
C291   C     0.45294   0.49056   0.38878   0.00000  Uiso   1.00
C292   C     0.49911   0.41995   0.25134   0.00000  Uiso   1.00
C293   C     0.54838   0.49403   0.11133   0.00000  Uiso   1.00
C294   C     0.39548   0.45596   0.45738   0.00000  Uiso   1.00
C295   C     0.61403   0.49442   0.03657   0.00000  Uiso   1.00
C296   C     0.40635   0.47447   0.41310   0.00000  Uiso   1.00
C297   C     0.59753   0.50026   0.08464   0.00000  Uiso   1.00
C298   C     0.48733   0.49017   0.41024   0.00000  Uiso   1.00
C299   C     0.51637   0.48056   0.08996   0.00000  Uiso   1.00
C300   C     0.47860   0.46859   0.45239   0.00000  Uiso   1.00
C301   C     0.53292   0.47104   0.04253   0.00000  Uiso   1.00
C302   C     0.43113   0.45372   0.47766   0.00000  Uiso   1.00
C303   C     0.45443   0.43870   0.04446   0.00000  Uiso   1.00
C304   C     0.58195   0.48048   0.01522   0.00000  Uiso   1.00
C305   C     0.51512   0.46465   0.47169   0.00000  Uiso   1.00
C306   C     0.50066   0.45768   0.02050   0.00000  Uiso   1.00
C307   C     0.56535   0.46813   0.44476   0.00000  Uiso   1.00
C308   C     0.42034   0.43663   0.02251   0.00000  Uiso   1.00
C309   C     0.59804   0.47640   0.46689   0.00000  Uiso   1.00
C310   C     0.54293   0.64740   0.21916   0.00000  Uiso   1.00
C311   C     0.45675   0.35210   0.27663   0.00000  Uiso   1.00
C312   C     0.54091   0.35681   0.22230   0.00000  Uiso   1.00
H313   H     0.38512   0.42235   0.04090   0.00000  Uiso   1.00
H314   H     0.42803   0.62404   0.29489   0.00000  Uiso   1.00
H315   H     0.64145   0.45019   0.20269   0.00000  Uiso   1.00
H316   H     0.35859   0.54985   0.29725   0.00000  Uiso   1.00
H317   H     0.39224   0.45021   0.20285   0.00000  Uiso   1.00
H318   H     0.60777   0.54986   0.29720   0.00000  Uiso   1.00
H319   H     0.63415   0.62682   0.22764   0.00000  Uiso   1.00
H320   H     0.43571   0.39441   0.36298   0.00000  Uiso   1.00
H321   H     0.63585   0.48075   0.44606   0.00000  Uiso   1.00
H322   H     0.47809   0.47932   0.11019   0.00000  Uiso   1.00
H323   H     0.52146   0.50648   0.39333   0.00000  Uiso   1.00
H324   H     0.62282   0.51076   0.10066   0.00000  Uiso   1.00
H325   H     0.37951   0.47412   0.39664   0.00000  Uiso   1.00
H326   H     0.35971   0.44259   0.47531   0.00000  Uiso   1.00
H327   H     0.65150   0.50180   0.01607   0.00000  Uiso   1.00
H328   H     0.57214   0.37565   0.20176   0.00000  Uiso   1.00
I329   I     0.43693   0.40189   0.10712   0.00000  Uiso   1.00
I330   I     0.59709   0.44990   0.37358   0.00000  Uiso   1.00
N331   N     0.38093   0.50001   0.25001   0.00000  Uiso   1.00
N332   N     0.61907   0.49999   0.24999   0.00000  Uiso   1.00
O333   O     0.46179   0.56108   0.25001   0.00000  Uiso   1.00
O334   O     0.62663   0.65750   0.14525   0.00000  Uiso   1.00
O335   O     0.62862   0.60391   0.20868   0.00000  Uiso   1.00
O336   O     0.37587   0.39400   0.28674   0.00000  Uiso   1.00
O337   O     0.36984   0.34071   0.34644   0.00000  Uiso   1.00
O338   O     0.41596   0.40932   0.34776   0.00000  Uiso   1.00
O339   O     0.53821   0.43892   0.25000   0.00000  Uiso   1.00
O340   O     0.53823   0.56107   0.25000   0.00000  Uiso   1.00
O341   O     0.46177   0.43893   0.25000   0.00000  Uiso   1.00
O342   O     0.43994   0.50001   0.31613   0.00000  Uiso   1.00
O343   O     0.56006   0.49999   0.18388   0.00000  Uiso   1.00
O344   O     0.51639   0.50000   0.31612   0.00000  Uiso   1.00
O345   O     0.48361   0.50000   0.18388   0.00000  Uiso   1.00
O346   O     0.58218   0.59162   0.15219   0.00000  Uiso   1.00
S347   S     0.59599   0.62504   0.17919   0.00000  Uiso   1.00
S348   S     0.40235   0.37365   0.31486   0.00000  Uiso   1.00
Zn349  Zn    0.44896   0.50001   0.25000   0.00000  Uiso   1.00
Zn350  Zn    0.55104   0.49999   0.25000   0.00000  Uiso   1.00
C351   C     0.83449   0.57991   0.24769   0.00000  Uiso   1.00
C352   C     0.79255   0.64287   0.27423   0.00000  Uiso   1.00
C353   C     0.83182   0.37570   0.25075   0.00000  Uiso   1.00
C354   C     0.83510   0.62402   0.24652   0.00000  Uiso   1.00
C355   C     0.98540   0.47234   0.22372   0.00000  Uiso   1.00
C356   C     0.68130   0.52773   0.27620   0.00000  Uiso   1.00
C357   C     0.69998   0.47237   0.22373   0.00000  Uiso   1.00
C358   C     0.96672   0.52774   0.27616   0.00000  Uiso   1.00
C359   C     0.80338   0.49960   0.33832   0.00000  Uiso   1.00
C360   C     0.86331   0.49949   0.16188   0.00000  Uiso   1.00
C361   C     0.78627   0.49056   0.38878   0.00000  Uiso   1.00
C362   C     0.83244   0.41995   0.25134   0.00000  Uiso   1.00
C363   C     0.88172   0.49403   0.11133   0.00000  Uiso   1.00
C364   C     0.72881   0.45596   0.45738   0.00000  Uiso   1.00
C365   C     0.94736   0.49442   0.03657   0.00000  Uiso   1.00
C366   C     0.73968   0.47447   0.41310   0.00000  Uiso   1.00
C367   C     0.93086   0.50026   0.08464   0.00000  Uiso   1.00
C368   C     0.82066   0.49017   0.41024   0.00000  Uiso   1.00
C369   C     0.84971   0.48056   0.08996   0.00000  Uiso   1.00
C370   C     0.81193   0.46859   0.45239   0.00000  Uiso   1.00
C371   C     0.86626   0.47104   0.04253   0.00000  Uiso   1.00
C372   C     0.76446   0.45372   0.47766   0.00000  Uiso   1.00
C373   C     0.78776   0.43870   0.04446   0.00000  Uiso   1.00
C374   C     0.91528   0.48048   0.01522   0.00000  Uiso   1.00
C375   C     0.84845   0.46465   0.47169   0.00000  Uiso   1.00
C376   C     0.83399   0.45768   0.02050   0.00000  Uiso   1.00
C377   C     0.89868   0.46813   0.44476   0.00000  Uiso   1.00
C378   C     0.75368   0.43663   0.02251   0.00000  Uiso   1.00
C379   C     0.93137   0.47640   0.46689   0.00000  Uiso   1.00
C380   C     0.87626   0.64740   0.21916   0.00000  Uiso   1.00
C381   C     0.79008   0.35210   0.27663   0.00000  Uiso   1.00
C382   C     0.87424   0.35681   0.22230   0.00000  Uiso   1.00
H383   H     0.71845   0.42235   0.04090   0.00000  Uiso   1.00
H384   H     0.76137   0.62404   0.29489   0.00000  Uiso   1.00
H385   H     0.97479   0.45019   0.20269   0.00000  Uiso   1.00
H386   H     0.69192   0.54985   0.29725   0.00000  Uiso   1.00
H387   H     0.72558   0.45021   0.20285   0.00000  Uiso   1.00
H388   H     0.94110   0.54986   0.29720   0.00000  Uiso   1.00
H389   H     0.96748   0.62682   0.22764   0.00000  Uiso   1.00
H390   H     0.76904   0.39441   0.36298   0.00000  Uiso   1.00
H391   H     0.96919   0.48075   0.44606   0.00000  Uiso   1.00
H392   H     0.81142   0.47932   0.11019   0.00000  Uiso   1.00
H393   H     0.85479   0.50648   0.39333   0.00000  Uiso   1.00
H394   H     0.95615   0.51076   0.10066   0.00000  Uiso   1.00
H395   H     0.71284   0.47412   0.39664   0.00000  Uiso   1.00
H396   H     0.69305   0.44259   0.47531   0.00000  Uiso   1.00
H397   H     0.98483   0.50180   0.01607   0.00000  Uiso   1.00
H398   H     0.90547   0.37565   0.20176   0.00000  Uiso   1.00
I399   I     0.77027   0.40189   0.10712   0.00000  Uiso   1.00
I400   I     0.93042   0.44990   0.37358   0.00000  Uiso   1.00
N401   N     0.71426   0.50001   0.25001   0.00000  Uiso   1.00
N402   N     0.95241   0.49999   0.24999   0.00000  Uiso   1.00
O403   O     0.79512   0.56108   0.25001   0.00000  Uiso   1.00
O404   O     0.95996   0.65750   0.14525   0.00000  Uiso   1.00
O405   O     0.96196   0.60391   0.20868   0.00000  Uiso   1.00
O406   O     0.70921   0.39400   0.28674   0.00000  Uiso   1.00
O407   O     0.70317   0.34071   0.34644   0.00000  Uiso   1.00
O408   O     0.74930   0.40932   0.34776   0.00000  Uiso   1.00
O409   O     0.87154   0.43892   0.25000   0.00000  Uiso   1.00
O410   O     0.87157   0.56107   0.25000   0.00000  Uiso   1.00
O411   O     0.79510   0.43893   0.25000   0.00000  Uiso   1.00
O412   O     0.77328   0.50001   0.31613   0.00000  Uiso   1.00
O413   O     0.89339   0.49999   0.18388   0.00000  Uiso   1.00
O414   O     0.84972   0.50000   0.31612   0.00000  Uiso   1.00
O415   O     0.81695   0.50000   0.18388   0.00000  Uiso   1.00
O416   O     0.91552   0.59162   0.15219   0.00000  Uiso   1.00
S417   S     0.92932   0.62504   0.17919   0.00000  Uiso   1.00
S418   S     0.73568   0.37365   0.31486   0.00000  Uiso   1.00
Zn419  Zn    0.78229   0.50001   0.25000   0.00000  Uiso   1.00
Zn420  Zn    0.88438   0.49999   0.25000   0.00000  Uiso   1.00
C421   C     0.16783   0.91324   0.24769   0.00000  Uiso   1.00
C422   C     0.12588   0.97620   0.27423   0.00000  Uiso   1.00
C423   C     0.16515   0.70903   0.25075   0.00000  Uiso   1.00
C424   C     0.16844   0.95735   0.24652   0.00000  Uiso   1.00
C425   C     0.31874   0.80567   0.22372   0.00000  Uiso   1.00
C426   C     0.01464   0.86106   0.27620   0.00000  Uiso   1.00
C427   C     0.03332   0.80570   0.22373   0.00000  Uiso   1.00
C428   C     0.30006   0.86107   0.27616   0.00000  Uiso   1.00
C429   C     0.13672   0.83294   0.33832   0.00000  Uiso   1.00
C430   C     0.19664   0.83282   0.16188   0.00000  Uiso   1.00
C431   C     0.11960   0.82390   0.38878   0.00000  Uiso   1.00
C432   C     0.16578   0.75328   0.25134   0.00000  Uiso   1.00
C433   C     0.21505   0.82736   0.11133   0.00000  Uiso   1.00
C434   C     0.06214   0.78930   0.45738   0.00000  Uiso   1.00
C435   C     0.28069   0.82775   0.03657   0.00000  Uiso   1.00
C436   C     0.07302   0.80781   0.41310   0.00000  Uiso   1.00
C437   C     0.26419   0.83359   0.08464   0.00000  Uiso   1.00
C438   C     0.15400   0.82350   0.41024   0.00000  Uiso   1.00
C439   C     0.18304   0.81389   0.08996   0.00000  Uiso   1.00
C440   C     0.14526   0.80192   0.45239   0.00000  Uiso   1.00
C441   C     0.19959   0.80437   0.04253   0.00000  Uiso   1.00
C442   C     0.09779   0.78705   0.47766   0.00000  Uiso   1.00
C443   C     0.12110   0.77204   0.04446   0.00000  Uiso   1.00
C444   C     0.24862   0.81381   0.01522   0.00000  Uiso   1.00
C445   C     0.18179   0.79799   0.47169   0.00000  Uiso   1.00
C446   C     0.16733   0.79102   0.02050   0.00000  Uiso   1.00
C447   C     0.23201   0.80146   0.44476   0.00000  Uiso   1.00
C448   C     0.08701   0.76996   0.02251   0.00000  Uiso   1.00
C449   C     0.26470   0.80973   0.46689   0.00000  Uiso   1.00
C450   C     0.20959   0.98074   0.21916   0.00000  Uiso   1.00
C451   C     0.12342   0.68543   0.27663   0.00000  Uiso   1.00
C452   C     0.20757   0.69014   0.22230   0.00000  Uiso   1.00
H453   H     0.05178   0.75568   0.04090   0.00000  Uiso   1.00
H454   H     0.09470   0.95737   0.29489   0.00000  Uiso   1.00
H455   H     0.30812   0.78352   0.20269   0.00000  Uiso   1.00
H456   H     0.02526   0.88318   0.29725   0.00000  Uiso   1.00
H457   H     0.05891   0.78354   0.20285   0.00000  Uiso   1.00
H458   H     0.27444   0.88319   0.29720   0.00000  Uiso   1.00
H459   H     0.30081   0.96015   0.22764   0.00000  Uiso   1.00
H460   H     0.10238   0.72774   0.36298   0.00000  Uiso   1.00
H461   H     0.30252   0.81408   0.44606   0.00000  Uiso   1.00
H462   H     0.14476   0.81265   0.11019   0.00000  Uiso   1.00
H463   H     0.18812   0.83982   0.39333   0.00000  Uiso   1.00
H464   H     0.28948   0.84409   0.10066   0.00000  Uiso   1.00
H465   H     0.04618   0.80745   0.39664   0.00000  Uiso   1.00
H466   H     0.02638   0.77592   0.47531   0.00000  Uiso   1.00
H467   H     0.31817   0.83513   0.01607   0.00000  Uiso   1.00
H468   H     0.23881   0.70899   0.20176   0.00000  Uiso   1.00
I469   I     0.10360   0.73522   0.10712   0.00000  Uiso   1.00
I470   I     0.26375   0.78323   0.37358   0.00000  Uiso   1.00
N471   N     0.04759   0.83334   0.25001   0.00000  Uiso   1.00
N472   N     0.28574   0.83332   0.24999   0.00000  Uiso   1.00
O473   O     0.12846   0.89442   0.25001   0.00000  Uiso   1.00
O474   O     0.29329   0.99083   0.14525   0.00000  Uiso   1.00
O475   O     0.29529   0.93725   0.20868   0.00000  Uiso   1.00
O476   O     0.04254   0.72733   0.28674   0.00000  Uiso   1.00
O477   O     0.03650   0.67404   0.34644   0.00000  Uiso   1.00
O478   O     0.08263   0.74265   0.34776   0.00000  Uiso   1.00
O479   O     0.20488   0.77225   0.25000   0.00000  Uiso   1.00
O480   O     0.20490   0.89441   0.25000   0.00000  Uiso   1.00
O481   O     0.12843   0.77226   0.25000   0.00000  Uiso   1.00
O482   O     0.10661   0.83334   0.31613   0.00000  Uiso   1.00
O483   O     0.22672   0.83333   0.18388   0.00000  Uiso   1.00
O484   O     0.18305   0.83333   0.31612   0.00000  Uiso   1.00
O485   O     0.15028   0.83334   0.18388   0.00000  Uiso   1.00
O486   O     0.24885   0.92496   0.15219   0.00000  Uiso   1.00
S487   S     0.26266   0.95838   0.17919   0.00000  Uiso   1.00
S488   S     0.06902   0.70698   0.31486   0.00000  Uiso   1.00
Zn489  Zn    0.11562   0.83334   0.25000   0.00000  Uiso   1.00
Zn490  Zn    0.21771   0.83333   0.25000   0.00000  Uiso   1.00
C491   C     0.50116   0.91324   0.24769   0.00000  Uiso   1.00
C492   C     0.45922   0.97620   0.27423   0.00000  Uiso   1.00
C493   C     0.49849   0.70903   0.25075   0.00000  Uiso   1.00
C494   C     0.50177   0.95735   0.24652   0.00000  Uiso   1.00
C495   C     0.65207   0.80567   0.22372   0.00000  Uiso   1.00
C496   C     0.34797   0.86106   0.27620   0.00000  Uiso   1.00
C497   C     0.36665   0.80570   0.22373   0.00000  Uiso   1.00
C498   C     0.63339   0.86107   0.27616   0.00000  Uiso   1.00
C499   C     0.47005   0.83294   0.33832   0.00000  Uiso   1.00
C500   C     0.52998   0.83282   0.16188   0.00000  Uiso   1.00
C501   C     0.45294   0.82390   0.38878   0.00000  Uiso   1.00
C502   C     0.49911   0.75328   0.25134   0.00000  Uiso   1.00
C503   C     0.54838   0.82736   0.11133   0.00000  Uiso   1.00
C504   C     0.39548   0.78930   0.45738   0.00000  Uiso   1.00
C505   C     0.61403   0.82775   0.03657   0.00000  Uiso   1.00
C506   C     0.40635   0.80781   0.41310   0.00000  Uiso   1.00
C507   C     0.59753   0.83359   0.08464   0.00000  Uiso   1.00
C508   C     0.48733   0.82350   0.41024   0.00000  Uiso   1.00
C509   C     0.51637   0.81389   0.08996   0.00000  Uiso   1.00
C510   C     0.47860   0.80192   0.45239   0.00000  Uiso   1.00
C511   C     0.53292   0.80437   0.04253   0.00000  Uiso   1.00
C512   C     0.43113   0.78705   0.47766   0.00000  Uiso   1.00
C513   C     0.45443   0.77204   0.04446   0.00000  Uiso   1.00
C514   C     0.58195   0.81381   0.01522   0.00000  Uiso   1.00
C515   C     0.51512   0.79799   0.47169   0.00000  Uiso   1.00
C516   C     0.50066   0.79102   0.02050   0.00000  Uiso   1.00
C517   C     0.56535   0.80146   0.44476   0.00000  Uiso   1.00
C518   C     0.42034   0.76996   0.02251   0.00000  Uiso   1.00
C519   C     0.59804   0.80973   0.46689   0.00000  Uiso   1.00
C520   C     0.54293   0.98074   0.21916   0.00000  Uiso   1.00
C521   C     0.45675   0.68543   0.27663   0.00000  Uiso   1.00
C522   C     0.54091   0.69014   0.22230   0.00000  Uiso   1.00
H523   H     0.38512   0.75568   0.04090   0.00000  Uiso   1.00
H524   H     0.42803   0.95737   0.29489   0.00000  Uiso   1.00
H525   H     0.64145   0.78352   0.20269   0.00000  Uiso   1.00
H526   H     0.35859   0.88318   0.29725   0.00000  Uiso   1.00
H527   H     0.39224   0.78354   0.20285   0.00000  Uiso   1.00
H528   H     0.60777   0.88319   0.29720   0.00000  Uiso   1.00
H529   H     0.63415   0.96015   0.22764   0.00000  Uiso   1.00
H530   H     0.43571   0.72774   0.36298   0.00000  Uiso   1.00
H531   H     0.63585   0.81408   0.44606   0.00000  Uiso   1.00
H532   H     0.47809   0.81265   0.11019   0.00000  Uiso   1.00
H533   H     0.52146   0.83982   0.39333   0.00000  Uiso   1.00
H534   H     0.62282   0.84409   0.10066   0.00000  Uiso   1.00
H535   H     0.37951   0.80745   0.39664   0.00000  Uiso   1.00
H536   H     0.35971   0.77592   0.47531   0.00000  Uiso   1.00
H537   H     0.65150   0.83513   0.01607   0.00000  Uiso   1.00
H538   H     0.57214   0.70899   0.20176   0.00000  Uiso   1.00
I539   I     0.43693   0.73522   0.10712   0.00000  Uiso   1.00
I540   I     0.59709   0.78323   0.37358   0.00000  Uiso   1.00
N541   N     0.38093   0.83334   0.25001   0.00000  Uiso   1.00
N542   N     0.61907   0.83332   0.24999   0.00000  Uiso   1.00
O543   O     0.46179   0.89442   0.25001   0.00000  Uiso   1.00
O544   O     0.62663   0.99083   0.14525   0.00000  Uiso   1.00
O545   O     0.62862   0.93725   0.20868   0.00000  Uiso   1.00
O546   O     0.37587   0.72733   0.28674   0.00000  Uiso   1.00
O547   O     0.36984   0.67404   0.34644   0.00000  Uiso   1.00
O548   O     0.41596   0.74265   0.34776   0.00000  Uiso   1.00
O549   O     0.53821   0.77225   0.25000   0.00000  Uiso   1.00
O550   O     0.53823   0.89441   0.25000   0.00000  Uiso   1.00
O551   O     0.46177   0.77226   0.25000   0.00000  Uiso   1.00
O552   O     0.43994   0.83334   0.31613   0.00000  Uiso   1.00
O553   O     0.56006   0.83333   0.18388   0.00000  Uiso   1.00
O554   O     0.51639   0.83333   0.31612   0.00000  Uiso   1.00
O555   O     0.48361   0.83334   0.18388   0.00000  Uiso   1.00
O556   O     0.58218   0.92496   0.15219   0.00000  Uiso   1.00
S557   S     0.59599   0.95838   0.17919   0.00000  Uiso   1.00
S558   S     0.40235   0.70698   0.31486   0.00000  Uiso   1.00
Zn559  Zn    0.44896   0.83334   0.25000   0.00000  Uiso   1.00
Zn560  Zn    0.55104   0.83333   0.25000   0.00000  Uiso   1.00
C561   C     0.83449   0.91324   0.24769   0.00000  Uiso   1.00
C562   C     0.79255   0.97620   0.27423   0.00000  Uiso   1.00
C563   C     0.83182   0.70903   0.25075   0.00000  Uiso   1.00
C564   C     0.83510   0.95735   0.24652   0.00000  Uiso   1.00
C565   C     0.98540   0.80567   0.22372   0.00000  Uiso   1.00
C566   C     0.68130   0.86106   0.27620   0.00000  Uiso   1.00
C567   C     0.69998   0.80570   0.22373   0.00000  Uiso   1.00
C568   C     0.96672   0.86107   0.27616   0.00000  Uiso   1.00
C569   C     0.80338   0.83294   0.33832   0.00000  Uiso   1.00
C570   C     0.86331   0.83282   0.16188   0.00000  Uiso   1.00
C571   C     0.78627   0.82390   0.38878   0.00000  Uiso   1.00
C572   C     0.83244   0.75328   0.25134   0.00000  Uiso   1.00
C573   C     0.88172   0.82736   0.11133   0.00000  Uiso   1.00
C574   C     0.72881   0.78930   0.45738   0.00000  Uiso   1.00
C575   C     0.94736   0.82775   0.03657   0.00000  Uiso   1.00
C576   C     0.73968   0.80781   0.41310   0.00000  Uiso   1.00
C577   C     0.93086   0.83359   0.08464   0.00000  Uiso   1.00
C578   C     0.82066   0.82350   0.41024   0.00000  Uiso   1.00
C579   C     0.84971   0.81389   0.08996   0.00000  Uiso   1.00
C580   C     0.81193   0.80192   0.45239   0.00000  Uiso   1.00
C581   C     0.86626   0.80437   0.04253   0.00000  Uiso   1.00
C582   C     0.76446   0.78705   0.47766   0.00000  Uiso   1.00
C583   C     0.78776   0.77204   0.04446   0.00000  Uiso   1.00
C584   C     0.91528   0.81381   0.01522   0.00000  Uiso   1.00
C585   C     0.84845   0.79799   0.47169   0.00000  Uiso   1.00
C586   C     0.83399   0.79102   0.02050   0.00000  Uiso   1.00
C587   C     0.89868   0.80146   0.44476   0.00000  Uiso   1.00
C588   C     0.75368   0.76996   0.02251   0.00000  Uiso   1.00
C589   C     0.93137   0.80973   0.46689   0.00000  Uiso   1.00
C590   C     0.87626   0.98074   0.21916   0.00000  Uiso   1.00
C591   C     0.79008   0.68543   0.27663   0.00000  Uiso   1.00
C592   C     0.87424   0.69014   0.22230   0.00000  Uiso   1.00
H593   H     0.71845   0.75568   0.04090   0.00000  Uiso   1.00
H594   H     0.76137   0.95737   0.29489   0.00000  Uiso   1.00
H595   H     0.97479   0.78352   0.20269   0.00000  Uiso   1.00
H596   H     0.69192   0.88318   0.29725   0.00000  Uiso   1.00
H597   H     0.72558   0.78354   0.20285   0.00000  Uiso   1.00
H598   H     0.94110   0.88319   0.29720   0.00000  Uiso   1.00
H599   H     0.96748   0.96015   0.22764   0.00000  Uiso   1.00
H600   H     0.76904   0.72774   0.36298   0.00000  Uiso   1.00
H601   H     0.96919   0.81408   0.44606   0.00000  Uiso   1.00
H602   H     0.81142   0.81265   0.11019   0.00000  Uiso   1.00
H603   H     0.85479   0.83982   0.39333   0.00000  Uiso   1.00
H604   H     0.95615   0.84409   0.10066   0.00000  Uiso   1.00
H605   H     0.71284   0.80745   0.39664   0.00000  Uiso   1.00
H606   H     0.69305   0.77592   0.47531   0.00000  Uiso   1.00
H607   H     0.98483   0.83513   0.01607   0.00000  Uiso   1.00
H608   H     0.90547   0.70899   0.20176   0.00000  Uiso   1.00
I609   I     0.77027   0.73522   0.10712   0.00000  Uiso   1.00
I610   I     0.93042   0.78323   0.37358   0.00000  Uiso   1.00
N611   N     0.71426   0.83334   0.25001   0.00000  Uiso   1.00
N612   N     0.95241   0.83332   0.24999   0.00000  Uiso   1.00
O613   O     0.79512   0.89442   0.25001   0.00000  Uiso   1.00
O614   O     0.95996   0.99083   0.14525   0.00000  Uiso   1.00
O615   O     0.96196   0.93725   0.20868   0.00000  Uiso   1.00
O616   O     0.70921   0.72733   0.28674   0.00000  Uiso   1.00
O617   O     0.70317   0.67404   0.34644   0.00000  Uiso   1.00
O618   O     0.74930   0.74265   0.34776   0.00000  Uiso   1.00
O619   O     0.87154   0.77225   0.25000   0.00000  Uiso   1.00
O620   O     0.87157   0.89441   0.25000   0.00000  Uiso   1.00
O621   O     0.79510   0.77226   0.25000   0.00000  Uiso   1.00
O622   O     0.77328   0.83334   0.31613   0.00000  Uiso   1.00
O623   O     0.89339   0.83333   0.18388   0.00000  Uiso   1.00
O624   O     0.84972   0.83333   0.31612   0.00000  Uiso   1.00
O625   O     0.81695   0.83334   0.18388   0.00000  Uiso   1.00
O626   O     0.91552   0.92496   0.15219   0.00000  Uiso   1.00
S627   S     0.92932   0.95838   0.17919   0.00000  Uiso   1.00
S628   S     0.73568   0.70698   0.31486   0.00000  Uiso   1.00
Zn629  Zn    0.78229   0.83334   0.25000   0.00000  Uiso   1.00
Zn630  Zn    0.88438   0.83333   0.25000   0.00000  Uiso   1.00
C631   C     0.16783   0.24657   0.74769   0.00000  Uiso   1.00
C632   C     0.12588   0.30954   0.77423   0.00000  Uiso   1.00
C633   C     0.16515   0.04236   0.75075   0.00000  Uiso   1.00
C634   C     0.16844   0.29069   0.74652   0.00000  Uiso   1.00
C635   C     0.31874   0.13900   0.72372   0.00000  Uiso   1.00
C636   C     0.01464   0.19439   0.77620   0.00000  Uiso   1.00
C637   C     0.03332   0.13904   0.72373   0.00000  Uiso   1.00
C638   C     0.30006   0.19441   0.77616   0.00000  Uiso   1.00
C639   C     0.13672   0.16627   0.83832   0.00000  Uiso   1.00
C640   C     0.19664   0.16615   0.66188   0.00000  Uiso   1.00
C641   C     0.11960   0.15723   0.88878   0.00000  Uiso   1.00
C642   C     0.16578   0.08662   0.75134   0.00000  Uiso   1.00
C643   C     0.21505   0.16070   0.61133   0.00000  Uiso   1.00
C644   C     0.06214   0.12263   0.95738   0.00000  Uiso   1.00
C645   C     0.28069   0.16108   0.53657   0.00000  Uiso   1.00
C646   C     0.07302   0.14114   0.91310   0.00000  Uiso   1.00
C647   C     0.26419   0.16692   0.58464   0.00000  Uiso   1.00
C648   C     0.15400   0.15684   0.91024   0.00000  Uiso   1.00
C649   C     0.18304   0.14722   0.58996   0.00000  Uiso   1.00
C650   C     0.14526   0.13526   0.95239   0.00000  Uiso   1.00
C651   C     0.19959   0.13770   0.54253   0.00000  Uiso   1.00
C652   C     0.09779   0.12039   0.97766   0.00000  Uiso   1.00
C653   C     0.12110   0.10537   0.54446   0.00000  Uiso   1.00
C654   C     0.24862   0.14715   0.51522   0.00000  Uiso   1.00
C655   C     0.18179   0.13132   0.97169   0.00000  Uiso   1.00
C656   C     0.16733   0.12435   0.52050   0.00000  Uiso   1.00
C657   C     0.23201   0.13479   0.94476   0.00000  Uiso   1.00
C658   C     0.08701   0.10329   0.52251   0.00000  Uiso   1.00
C659   C     0.26470   0.14307   0.96689   0.00000  Uiso   1.00
C660   C     0.20959   0.31407   0.71916   0.00000  Uiso   1.00
C661   C     0.12342   0.01876   0.77663   0.00000  Uiso   1.00
C662   C     0.20757   0.02348   0.72230   0.00000  Uiso   1.00
H663   H     0.05178   0.08901   0.54090   0.00000  Uiso   1.00
H664   H     0.09470   0.29070   0.79489   0.00000  Uiso   1.00
H665   H     0.30812   0.11685   0.70269   0.00000  Uiso   1.00
H666   H     0.02526   0.21651   0.79725   0.00000  Uiso   1.00
H667   H     0.05891   0.11688   0.70285   0.00000  Uiso   1.00
H668   H     0.27444   0.21652   0.79720   0.00000  Uiso   1.00
H669   H     0.30081   0.29349   0.72764   0.00000  Uiso   1.00
H670   H     0.10238   0.06108   0.86298   0.00000  Uiso   1.00
H671   H     0.30252   0.14742   0.94606   0.00000  Uiso   1.00
H672   H     0.14476   0.14598   0.61019   0.00000  Uiso   1.00
H673   H     0.18812   0.17315   0.89333   0.00000  Uiso   1.00
H674   H     0.28948   0.17743   0.60066   0.00000  Uiso   1.00
H675   H     0.04618   0.14078   0.89664   0.00000  Uiso   1.00
H676   H     0.02638   0.10926   0.97531   0.00000  Uiso   1.00
H677   H     0.31817   0.16847   0.51607   0.00000  Uiso   1.00
H678   H     0.23881   0.04232   0.70176   0.00000  Uiso   1.00
I679   I     0.10360   0.06855   0.60712   0.00000  Uiso   1.00
I680   I     0.26375   0.11656   0.87358   0.00000  Uiso   1.00
N681   N     0.04759   0.16668   0.75001   0.00000  Uiso   1.00
N682   N     0.28574   0.16666   0.74999   0.00000  Uiso   1.00
O683   O     0.12846   0.22775   0.75001   0.00000  Uiso   1.00
O684   O     0.29329   0.32416   0.64525   0.00000  Uiso   1.00
O685   O     0.29529   0.27058   0.70868   0.00000  Uiso   1.00
O686   O     0.04254   0.06066   0.78674   0.00000  Uiso   1.00
O687   O     0.03650   0.00738   0.84644   0.00000  Uiso   1.00
O688   O     0.08263   0.07599   0.84776   0.00000  Uiso   1.00
O689   O     0.20488   0.10558   0.75000   0.00000  Uiso   1.00
O690   O     0.20490   0.22774   0.75000   0.00000  Uiso   1.00
O691   O     0.12843   0.10559   0.75000   0.00000  Uiso   1.00
O692   O     0.10661   0.16667   0.81613   0.00000  Uiso   1.00
O693   O     0.22672   0.16666   0.68388   0.00000  Uiso   1.00
O694   O     0.18305   0.16666   0.81612   0.00000  Uiso   1.00
O695   O     0.15028   0.16667   0.68388   0.00000  Uiso   1.00
O696   O     0.24885   0.25829   0.65219   0.00000  Uiso   1.00
S697   S     0.26266   0.29171   0.67919   0.00000  Uiso   1.00
S698   S     0.06902   0.04032   0.81486   0.00000  Uiso   1.00
Zn699  Zn    0.11562   0.16667   0.75000   0.00000  Uiso   1.00
Zn700  Zn    0.21771   0.16666   0.75000   0.00000  Uiso   1.00
C701   C     0.50116   0.24657   0.74769   0.00000  Uiso   1.00
C702   C     0.45922   0.30954   0.77423   0.00000  Uiso   1.00
C703   C     0.49849   0.04236   0.75075   0.00000  Uiso   1.00
C704   C     0.50177   0.29069   0.74652   0.00000  Uiso   1.00
C705   C     0.65207   0.13900   0.72372   0.00000  Uiso   1.00
C706   C     0.34797   0.19439   0.77620   0.00000  Uiso   1.00
C707   C     0.36665   0.13904   0.72373   0.00000  Uiso   1.00
C708   C     0.63339   0.19441   0.77616   0.00000  Uiso   1.00
C709   C     0.47005   0.16627   0.83832   0.00000  Uiso   1.00
C710   C     0.52998   0.16615   0.66188   0.00000  Uiso   1.00
C711   C     0.45294   0.15723   0.88878   0.00000  Uiso   1.00
C712   C     0.49911   0.08662   0.75134   0.00000  Uiso   1.00
C713   C     0.54838   0.16070   0.61133   0.00000  Uiso   1.00
C714   C     0.39548   0.12263   0.95738   0.00000  Uiso   1.00
C715   C     0.61403   0.16108   0.53657   0.00000  Uiso   1.00
C716   C     0.40635   0.14114   0.91310   0.00000  Uiso   1.00
C717   C     0.59753   0.16692   0.58464   0.00000  Uiso   1.00
C718   C     0.48733   0.15684   0.91024   0.00000  Uiso   1.00
C719   C     0.51637   0.14722   0.58996   0.00000  Uiso   1.00
C720   C     0.47860   0.13526   0.95239   0.00000  Uiso   1.00
C721   C     0.53292   0.13770   0.54253   0.00000  Uiso   1.00
C722   C     0.43113   0.12039   0.97766   0.00000  Uiso   1.00
C723   C     0.45443   0.10537   0.54446   0.00000  Uiso   1.00
C724   C     0.58195   0.14715   0.51522   0.00000  Uiso   1.00
C725   C     0.51512   0.13132   0.97169   0.00000  Uiso   1.00
C726   C     0.50066   0.12435   0.52050   0.00000  Uiso   1.00
C727   C     0.56535   0.13479   0.94476   0.00000  Uiso   1.00
C728   C     0.42034   0.10329   0.52251   0.00000  Uiso   1.00
C729   C     0.59804   0.14307   0.96689   0.00000  Uiso   1.00
C730   C     0.54293   0.31407   0.71916   0.00000  Uiso   1.00
C731   C     0.45675   0.01876   0.77663   0.00000  Uiso   1.00
C732   C     0.54091   0.02348   0.72230   0.00000  Uiso   1.00
H733   H     0.38512   0.08901   0.54090   0.00000  Uiso   1.00
H734   H     0.42803   0.29070   0.79489   0.00000  Uiso   1.00
H735   H     0.64145   0.11685   0.70269   0.00000  Uiso   1.00
H736   H     0.35859   0.21651   0.79725   0.00000  Uiso   1.00
H737   H     0.39224   0.11688   0.70285   0.00000  Uiso   1.00
H738   H     0.60777   0.21652   0.79720   0.00000  Uiso   1.00
H739   H     0.63415   0.29349   0.72764   0.00000  Uiso   1.00
H740   H     0.43571   0.06108   0.86298   0.00000  Uiso   1.00
H741   H     0.63585   0.14742   0.94606   0.00000  Uiso   1.00
H742   H     0.47809   0.14598   0.61019   0.00000  Uiso   1.00
H743   H     0.52146   0.17315   0.89333   0.00000  Uiso   1.00
H744   H     0.62282   0.17743   0.60066   0.00000  Uiso   1.00
H745   H     0.37951   0.14078   0.89664   0.00000  Uiso   1.00
H746   H     0.35971   0.10926   0.97531   0.00000  Uiso   1.00
H747   H     0.65150   0.16847   0.51607   0.00000  Uiso   1.00
H748   H     0.57214   0.04232   0.70176   0.00000  Uiso   1.00
I749   I     0.43693   0.06855   0.60712   0.00000  Uiso   1.00
I750   I     0.59709   0.11656   0.87358   0.00000  Uiso   1.00
N751   N     0.38093   0.16668   0.75001   0.00000  Uiso   1.00
N752   N     0.61907   0.16666   0.74999   0.00000  Uiso   1.00
O753   O     0.46179   0.22775   0.75001   0.00000  Uiso   1.00
O754   O     0.62663   0.32416   0.64525   0.00000  Uiso   1.00
O755   O     0.62862   0.27058   0.70868   0.00000  Uiso   1.00
O756   O     0.37587   0.06066   0.78674   0.00000  Uiso   1.00
O757   O     0.36984   0.00738   0.84644   0.00000  Uiso   1.00
O758   O     0.41596   0.07599   0.84776   0.00000  Uiso   1.00
O759   O     0.53821   0.10558   0.75000   0.00000  Uiso   1.00
O760   O     0.53823   0.22774   0.75000   0.00000  Uiso   1.00
O761   O     0.46177   0.10559   0.75000   0.00000  Uiso   1.00
O762   O     0.43994   0.16667   0.81613   0.00000  Uiso   1.00
O763   O     0.56006   0.16666   0.68388   0.00000  Uiso   1.00
O764   O     0.51639   0.16666   0.81612   0.00000  Uiso   1.00
O765   O     0.48361   0.16667   0.68388   0.00000  Uiso   1.00
O766   O     0.58218   0.25829   0.65219   0.00000  Uiso   1.00
S767   S     0.59599   0.29171   0.67919   0.00000  Uiso   1.00
S768   S     0.40235   0.04032   0.81486   0.00000  Uiso   1.00
Zn769  Zn    0.44896   0.16667   0.75000   0.00000  Uiso   1.00
Zn770  Zn    0.55104   0.16666   0.75000   0.00000  Uiso   1.00
C771   C     0.83449   0.24657   0.74769   0.00000  Uiso   1.00
C772   C     0.79255   0.30954   0.77423   0.00000  Uiso   1.00
C773   C     0.83182   0.04236   0.75075   0.00000  Uiso   1.00
C774   C     0.83510   0.29069   0.74652   0.00000  Uiso   1.00
C775   C     0.98540   0.13900   0.72372   0.00000  Uiso   1.00
C776   C     0.68130   0.19439   0.77620   0.00000  Uiso   1.00
C777   C     0.69998   0.13904   0.72373   0.00000  Uiso   1.00
C778   C     0.96672   0.19441   0.77616   0.00000  Uiso   1.00
C779   C     0.80338   0.16627   0.83832   0.00000  Uiso   1.00
C780   C     0.86331   0.16615   0.66188   0.00000  Uiso   1.00
C781   C     0.78627   0.15723   0.88878   0.00000  Uiso   1.00
C782   C     0.83244   0.08662   0.75134   0.00000  Uiso   1.00
C783   C     0.88172   0.16070   0.61133   0.00000  Uiso   1.00
C784   C     0.72881   0.12263   0.95738   0.00000  Uiso   1.00
C785   C     0.94736   0.16108   0.53657   0.00000  Uiso   1.00
C786   C     0.73968   0.14114   0.91310   0.00000  Uiso   1.00
C787   C     0.93086   0.16692   0.58464   0.00000  Uiso   1.00
C788   C     0.82066   0.15684   0.91024   0.00000  Uiso   1.00
C789   C     0.84971   0.14722   0.58996   0.00000  Uiso   1.00
C790   C     0.81193   0.13526   0.95239   0.00000  Uiso   1.00
C791   C     0.86626   0.13770   0.54253   0.00000  Uiso   1.00
C792   C     0.76446   0.12039   0.97766   0.00000  Uiso   1.00
C793   C     0.78776   0.10537   0.54446   0.00000  Uiso   1.00
C794   C     0.91528   0.14715   0.51522   0.00000  Uiso   1.00
C795   C     0.84845   0.13132   0.97169   0.00000  Uiso   1.00
C796   C     0.83399   0.12435   0.52050   0.00000  Uiso   1.00
C797   C     0.89868   0.13479   0.94476   0.00000  Uiso   1.00
C798   C     0.75368   0.10329   0.52251   0.00000  Uiso   1.00
C799   C     0.93137   0.14307   0.96689   0.00000  Uiso   1.00
C800   C     0.87626   0.31407   0.71916   0.00000  Uiso   1.00
C801   C     0.79008   0.01876   0.77663   0.00000  Uiso   1.00
C802   C     0.87424   0.02348   0.72230   0.00000  Uiso   1.00
H803   H     0.71845   0.08901   0.54090   0.00000  Uiso   1.00
H804   H     0.76137   0.29070   0.79489   0.00000  Uiso   1.00
H805   H     0.97479   0.11685   0.70269   0.00000  Uiso   1.00
H806   H     0.69192   0.21651   0.79725   0.00000  Uiso   1.00
H807   H     0.72558   0.11688   0.70285   0.00000  Uiso   1.00
H808   H     0.94110   0.21652   0.79720   0.00000  Uiso   1.00
H809   H     0.96748   0.29349   0.72764   0.00000  Uiso   1.00
H810   H     0.76904   0.06108   0.86298   0.00000  Uiso   1.00
H811   H     0.96919   0.14742   0.94606   0.00000  Uiso   1.00
H812   H     0.81142   0.14598   0.61019   0.00000  Uiso   1.00
H813   H     0.85479   0.17315   0.89333   0.00000  Uiso   1.00
H814   H     0.95615   0.17743   0.60066   0.00000  Uiso   1.00
H815   H     0.71284   0.14078   0.89664   0.00000  Uiso   1.00
H816   H     0.69305   0.10926   0.97531   0.00000  Uiso   1.00
H817   H     0.98483   0.16847   0.51607   0.00000  Uiso   1.00
H818   H     0.90547   0.04232   0.70176   0.00000  Uiso   1.00
I819   I     0.77027   0.06855   0.60712   0.00000  Uiso   1.00
I820   I     0.93042   0.11656   0.87358   0.00000  Uiso   1.00
N821   N     0.71426   0.16668   0.75001   0.00000  Uiso   1.00
N822   N     0.95241   0.16666   0.74999   0.00000  Uiso   1.00
O823   O     0.79512   0.22775   0.75001   0.00000  Uiso   1.00
O824   O     0.95996   0.32416   0.64525   0.00000  Uiso   1.00
O825   O     0.96196   0.27058   0.70868   0.00000  Uiso   1.00
O826   O     0.70921   0.06066   0.78674   0.00000  Uiso   1.00
O827   O     0.70317   0.00738   0.84644   0.00000  Uiso   1.00
O828   O     0.74930   0.07599   0.84776   0.00000  Uiso   1.00
O829   O     0.87154   0.10558   0.75000   0.00000  Uiso   1.00
O830   O     0.87157   0.22774   0.75000   0.00000  Uiso   1.00
O831   O     0.79510   0.10559   0.75000   0.00000  Uiso   1.00
O832   O     0.77328   0.16667   0.81613   0.00000  Uiso   1.00
O833   O     0.89339   0.16666   0.68388   0.00000  Uiso   1.00
O834   O     0.84972   0.16666   0.81612   0.00000  Uiso   1.00
O835   O     0.81695   0.16667   0.68388   0.00000  Uiso   1.00
O836   O     0.91552   0.25829   0.65219   0.00000  Uiso   1.00
S837   S     0.92932   0.29171   0.67919   0.00000  Uiso   1.00
S838   S     0.73568   0.04032   0.81486   0.00000  Uiso   1.00
Zn839  Zn    0.78229   0.16667   0.75000   0.00000  Uiso   1.00
Zn840  Zn    0.88438   0.16666   0.75000   0.00000  Uiso   1.00
C841   C     0.16783   0.57991   0.74769   0.00000  Uiso   1.00
C842   C     0.12588   0.64287   0.77423   0.00000  Uiso   1.00
C843   C     0.16515   0.37570   0.75075   0.00000  Uiso   1.00
C844   C     0.16844   0.62402   0.74652   0.00000  Uiso   1.00
C845   C     0.31874   0.47234   0.72372   0.00000  Uiso   1.00
C846   C     0.01464   0.52773   0.77620   0.00000  Uiso   1.00
C847   C     0.03332   0.47237   0.72373   0.00000  Uiso   1.00
C848   C     0.30006   0.52774   0.77616   0.00000  Uiso   1.00
C849   C     0.13672   0.49960   0.83832   0.00000  Uiso   1.00
C850   C     0.19664   0.49949   0.66188   0.00000  Uiso   1.00
C851   C     0.11960   0.49056   0.88878   0.00000  Uiso   1.00
C852   C     0.16578   0.41995   0.75134   0.00000  Uiso   1.00
C853   C     0.21505   0.49403   0.61133   0.00000  Uiso   1.00
C854   C     0.06214   0.45596   0.95738   0.00000  Uiso   1.00
C855   C     0.28069   0.49442   0.53657   0.00000  Uiso   1.00
C856   C     0.07302   0.47447   0.91310   0.00000  Uiso   1.00
C857   C     0.26419   0.50026   0.58464   0.00000  Uiso   1.00
C858   C     0.15400   0.49017   0.91024   0.00000  Uiso   1.00
C859   C     0.18304   0.48056   0.58996   0.00000  Uiso   1.00
C860   C     0.14526   0.46859   0.95239   0.00000  Uiso   1.00
C861   C     0.19959   0.47104   0.54253   0.00000  Uiso   1.00
C862   C     0.09779   0.45372   0.97766   0.00000  Uiso   1.00
C863   C     0.12110   0.43870   0.54446   0.00000  Uiso   1.00
C864   C     0.24862   0.48048   0.51522   0.00000  Uiso   1.00
C865   C     0.18179   0.46465   0.97169   0.00000  Uiso   1.00
C866   C     0.16733   0.45768   0.52050   0.00000  Uiso   1.00
C867   C     0.23201   0.46813   0.94476   0.00000  Uiso   1.00
C868   C     0.08701   0.43663   0.52251   0.00000  Uiso   1.00
C869   C     0.26470   0.47640   0.96689   0.00000  Uiso   1.00
C870   C     0.20959   0.64740   0.71916   0.00000  Uiso   1.00
C871   C     0.12342   0.35210   0.77663   0.00000  Uiso   1.00
C872   C     0.20757   0.35681   0.72230   0.00000  Uiso   1.00
H873   H     0.05178   0.42235   0.54090   0.00000  Uiso   1.00
H874   H     0.09470   0.62404   0.79489   0.00000  Uiso   1.00
H875   H     0.30812   0.45019   0.70269   0.00000  Uiso   1.00
H876   H     0.02526   0.54985   0.79725   0.00000  Uiso   1.00
H877   H     0.05891   0.45021   0.70285   0.00000  Uiso   1.00
H878   H     0.27444   0.54986   0.79720   0.00000  Uiso   1.00
H879   H     0.30081   0.62682   0.72764   0.00000  Uiso   1.00
H880   H     0.10238   0.39441   0.86298   0.00000  Uiso   1.00
H881   H     0.30252   0.48075   0.94606   0.00000  Uiso   1.00
H882   H     0.14476   0.47932   0.61019   0.00000  Uiso   1.00
H883   H     0.18812   0.50648   0.89333   0.00000  Uiso   1.00
H884   H     0.28948   0.51076   0.60066   0.00000  Uiso   1.00
H885   H     0.04618   0.47412   0.89664   0.00000  Uiso   1.00
H886   H     0.02638   0.44259   0.97531   0.00000  Uiso   1.00
H887   H     0.31817   0.50180   0.51607   0.00000  Uiso   1.00
H888   H     0.23881   0.37565   0.70176   0.00000  Uiso   1.00
I889   I     0.10360   0.40189   0.60712   0.00000  Uiso   1.00
I890   I     0.26375   0.44990   0.87358   0.00000  Uiso   1.00
N891   N     0.04759   0.50001   0.75001   0.00000  Uiso   1.00
N892   N     0.28574   0.49999   0.74999   0.00000  Uiso   1.00
O893   O     0.12846   0.56108   0.75001   0.00000  Uiso   1.00
O894   O     0.29329   0.65750   0.64525   0.00000  Uiso   1.00
O895   O     0.29529   0.60391   0.70868   0.00000  Uiso   1.00
O896   O     0.04254   0.39400   0.78674   0.00000  Uiso   1.00
O897   O     0.03650   0.34071   0.84644   0.00000  Uiso   1.00
O898   O     0.08263   0.40932   0.84776   0.00000  Uiso   1.00
O899   O     0.20488   0.43892   0.75000   0.00000  Uiso   1.00
O900   O     0.20490   0.56107   0.75000   0.00000  Uiso   1.00
O901   O     0.12843   0.43893   0.75000   0.00000  Uiso   1.00
O902   O     0.10661   0.50001   0.81613   0.00000  Uiso   1.00
O903   O     0.22672   0.49999   0.68388   0.00000  Uiso   1.00
O904   O     0.18305   0.50000   0.81612   0.00000  Uiso   1.00
O905   O     0.15028   0.50000   0.68388   0.00000  Uiso   1.00
O906   O     0.24885   0.59162   0.65219   0.00000  Uiso   1.00
S907   S     0.26266   0.62504   0.67919   0.00000  Uiso   1.00
S908   S     0.06902   0.37365   0.81486   0.00000  Uiso   1.00
Zn909  Zn    0.11562   0.50001   0.75000   0.00000  Uiso   1.00
Zn910  Zn    0.21771   0.49999   0.75000   0.00000  Uiso   1.00
C911   C     0.50116   0.57991   0.74769   0.00000  Uiso   1.00
C912   C     0.45922   0.64287   0.77423   0.00000  Uiso   1.00
C913   C     0.49849   0.37570   0.75075   0.00000  Uiso   1.00
C914   C     0.50177   0.62402   0.74652   0.00000  Uiso   1.00
C915   C     0.65207   0.47234   0.72372   0.00000  Uiso   1.00
C916   C     0.34797   0.52773   0.77620   0.00000  Uiso   1.00
C917   C     0.36665   0.47237   0.72373   0.00000  Uiso   1.00
C918   C     0.63339   0.52774   0.77616   0.00000  Uiso   1.00
C919   C     0.47005   0.49960   0.83832   0.00000  Uiso   1.00
C920   C     0.52998   0.49949   0.66188   0.00000  Uiso   1.00
C921   C     0.45294   0.49056   0.88878   0.00000  Uiso   1.00
C922   C     0.49911   0.41995   0.75134   0.00000  Uiso   1.00
C923   C     0.54838   0.49403   0.61133   0.00000  Uiso   1.00
C924   C     0.39548   0.45596   0.95738   0.00000  Uiso   1.00
C925   C     0.61403   0.49442   0.53657   0.00000  Uiso   1.00
C926   C     0.40635   0.47447   0.91310   0.00000  Uiso   1.00
C927   C     0.59753   0.50026   0.58464   0.00000  Uiso   1.00
C928   C     0.48733   0.49017   0.91024   0.00000  Uiso   1.00
C929   C     0.51637   0.48056   0.58996   0.00000  Uiso   1.00
C930   C     0.47860   0.46859   0.95239   0.00000  Uiso   1.00
C931   C     0.53292   0.47104   0.54253   0.00000  Uiso   1.00
C932   C     0.43113   0.45372   0.97766   0.00000  Uiso   1.00
C933   C     0.45443   0.43870   0.54446   0.00000  Uiso   1.00
C934   C     0.58195   0.48048   0.51522   0.00000  Uiso   1.00
C935   C     0.51512   0.46465   0.97169   0.00000  Uiso   1.00
C936   C     0.50066   0.45768   0.52050   0.00000  Uiso   1.00
C937   C     0.56535   0.46813   0.94476   0.00000  Uiso   1.00
C938   C     0.42034   0.43663   0.52251   0.00000  Uiso   1.00
C939   C     0.59804   0.47640   0.96689   0.00000  Uiso   1.00
C940   C     0.54293   0.64740   0.71916   0.00000  Uiso   1.00
C941   C     0.45675   0.35210   0.77663   0.00000  Uiso   1.00
C942   C     0.54091   0.35681   0.72230   0.00000  Uiso   1.00
H943   H     0.38512   0.42235   0.54090   0.00000  Uiso   1.00
H944   H     0.42803   0.62404   0.79489   0.00000  Uiso   1.00
H945   H     0.64145   0.45019   0.70269   0.00000  Uiso   1.00
H946   H     0.35859   0.54985   0.79725   0.00000  Uiso   1.00
H947   H     0.39224   0.45021   0.70285   0.00000  Uiso   1.00
H948   H     0.60777   0.54986   0.79720   0.00000  Uiso   1.00
H949   H     0.63415   0.62682   0.72764   0.00000  Uiso   1.00
H950   H     0.43571   0.39441   0.86298   0.00000  Uiso   1.00
H951   H     0.63585   0.48075   0.94606   0.00000  Uiso   1.00
H952   H     0.47809   0.47932   0.61019   0.00000  Uiso   1.00
H953   H     0.52146   0.50648   0.89333   0.00000  Uiso   1.00
H954   H     0.62282   0.51076   0.60066   0.00000  Uiso   1.00
H955   H     0.37951   0.47412   0.89664   0.00000  Uiso   1.00
H956   H     0.35971   0.44259   0.97531   0.00000  Uiso   1.00
H957   H     0.65150   0.50180   0.51607   0.00000  Uiso   1.00
H958   H     0.57214   0.37565   0.70176   0.00000  Uiso   1.00
I959   I     0.43693   0.40189   0.60712   0.00000  Uiso   1.00
I960   I     0.59709   0.44990   0.87358   0.00000  Uiso   1.00
N961   N     0.38093   0.50001   0.75001   0.00000  Uiso   1.00
N962   N     0.61907   0.49999   0.74999   0.00000  Uiso   1.00
O963   O     0.46179   0.56108   0.75001   0.00000  Uiso   1.00
O964   O     0.62663   0.65750   0.64525   0.00000  Uiso   1.00
O965   O     0.62862   0.60391   0.70868   0.00000  Uiso   1.00
O966   O     0.37587   0.39400   0.78674   0.00000  Uiso   1.00
O967   O     0.36984   0.34071   0.84644   0.00000  Uiso   1.00
O968   O     0.41596   0.40932   0.84776   0.00000  Uiso   1.00
O969   O     0.53821   0.43892   0.75000   0.00000  Uiso   1.00
O970   O     0.53823   0.56107   0.75000   0.00000  Uiso   1.00
O971   O     0.46177   0.43893   0.75000   0.00000  Uiso   1.00
O972   O     0.43994   0.50001   0.81613   0.00000  Uiso   1.00
O973   O     0.56006   0.49999   0.68388   0.00000  Uiso   1.00
O974   O     0.51639   0.50000   0.81612   0.00000  Uiso   1.00
O975   O     0.48361   0.50000   0.68388   0.00000  Uiso   1.00
O976   O     0.58218   0.59162   0.65219   0.00000  Uiso   1.00
S977   S     0.59599   0.62504   0.67919   0.00000  Uiso   1.00
S978   S     0.40235   0.37365   0.81486   0.00000  Uiso   1.00
Zn979  Zn    0.44896   0.50001   0.75000   0.00000  Uiso   1.00
Zn980  Zn    0.55104   0.49999   0.75000   0.00000  Uiso   1.00
C981   C     0.83449   0.57991   0.74769   0.00000  Uiso   1.00
C982   C     0.79255   0.64287   0.77423   0.00000  Uiso   1.00
C983   C     0.83182   0.37570   0.75075   0.00000  Uiso   1.00
C984   C     0.83510   0.62402   0.74652   0.00000  Uiso   1.00
C985   C     0.98540   0.47234   0.72372   0.00000  Uiso   1.00
C986   C     0.68130   0.52773   0.77620   0.00000  Uiso   1.00
C987   C     0.69998   0.47237   0.72373   0.00000  Uiso   1.00
C988   C     0.96672   0.52774   0.77616   0.00000  Uiso   1.00
C989   C     0.80338   0.49960   0.83832   0.00000  Uiso   1.00
C990   C     0.86331   0.49949   0.66188   0.00000  Uiso   1.00
C991   C     0.78627   0.49056   0.88878   0.00000  Uiso   1.00
C992   C     0.83244   0.41995   0.75134   0.00000  Uiso   1.00
C993   C     0.88172   0.49403   0.61133   0.00000  Uiso   1.00
C994   C     0.72881   0.45596   0.95738   0.00000  Uiso   1.00
C995   C     0.94736   0.49442   0.53657   0.00000  Uiso   1.00
C996   C     0.73968   0.47447   0.91310   0.00000  Uiso   1.00
C997   C     0.93086   0.50026   0.58464   0.00000  Uiso   1.00
C998   C     0.82066   0.49017   0.91024   0.00000  Uiso   1.00
C999   C     0.84971   0.48056   0.58996   0.00000  Uiso   1.00
C1000  C     0.81193   0.46859   0.95239   0.00000  Uiso   1.00
C1001  C     0.86626   0.47104   0.54253   0.00000  Uiso   1.00
C1002  C     0.76446   0.45372   0.97766   0.00000  Uiso   1.00
C1003  C     0.78776   0.43870   0.54446   0.00000  Uiso   1.00
C1004  C     0.91528   0.48048   0.51522   0.00000  Uiso   1.00
C1005  C     0.84845   0.46465   0.97169   0.00000  Uiso   1.00
C1006  C     0.83399   0.45768   0.52050   0.00000  Uiso   1.00
C1007  C     0.89868   0.46813   0.94476   0.00000  Uiso   1.00
C1008  C     0.75368   0.43663   0.52251   0.00000  Uiso   1.00
C1009  C     0.93137   0.47640   0.96689   0.00000  Uiso   1.00
C1010  C     0.87626   0.64740   0.71916   0.00000  Uiso   1.00
C1011  C     0.79008   0.35210   0.77663   0.00000  Uiso   1.00
C1012  C     0.87424   0.35681   0.72230   0.00000  Uiso   1.00
H1013  H     0.71845   0.42235   0.54090   0.00000  Uiso   1.00
H1014  H     0.76137   0.62404   0.79489   0.00000  Uiso   1.00
H1015  H     0.97479   0.45019   0.70269   0.00000  Uiso   1.00
H1016  H     0.69192   0.54985   0.79725   0.00000  Uiso   1.00
H1017  H     0.72558   0.45021   0.70285   0.00000  Uiso   1.00
H1018  H     0.94110   0.54986   0.79720   0.00000  Uiso   1.00
H1019  H     0.96748   0.62682   0.72764   0.00000  Uiso   1.00
H1020  H     0.76904   0.39441   0.86298   0.00000  Uiso   1.00
H1021  H     0.96919   0.48075   0.94606   0.00000  Uiso   1.00
H1022  H     0.81142   0.47932   0.61019   0.00000  Uiso   1.00
H1023  H     0.85479   0.50648   0.89333   0.00000  Uiso   1.00
H1024  H     0.95615   0.51076   0.60066   0.00000  Uiso   1.00
H1025  H     0.71284   0.47412   0.89664   0.00000  Uiso   1.00
H1026  H     0.69305   0.44259   0.97531   0.00000  Uiso   1.00
H1027  H     0.98483   0.50180   0.51607   0.00000  Uiso   1.00
H1028  H     0.90547   0.37565   0.70176   0.00000  Uiso   1.00
I1029  I     0.77027   0.40189   0.60712   0.00000  Uiso   1.00
I1030  I     0.93042   0.44990   0.87358   0.00000  Uiso   1.00
N1031  N     0.71426   0.50001   0.75001   0.00000  Uiso   1.00
N1032  N     0.95241   0.49999   0.74999   0.00000  Uiso   1.00
O1033  O     0.79512   0.56108   0.75001   0.00000  Uiso   1.00
O1034  O     0.95996   0.65750   0.64525   0.00000  Uiso   1.00
O1035  O     0.96196   0.60391   0.70868   0.00000  Uiso   1.00
O1036  O     0.70921   0.39400   0.78674   0.00000  Uiso   1.00
O1037  O     0.70317   0.34071   0.84644   0.00000  Uiso   1.00
O1038  O     0.74930   0.40932   0.84776   0.00000  Uiso   1.00
O1039  O     0.87154   0.43892   0.75000   0.00000  Uiso   1.00
O1040  O     0.87157   0.56107   0.75000   0.00000  Uiso   1.00
O1041  O     0.79510   0.43893   0.75000   0.00000  Uiso   1.00
O1042  O     0.77328   0.50001   0.81613   0.00000  Uiso   1.00
O1043  O     0.89339   0.49999   0.68388   0.00000  Uiso   1.00
O1044  O     0.84972   0.50000   0.81612   0.00000  Uiso   1.00
O1045  O     0.81695   0.50000   0.68388   0.00000  Uiso   1.00
O1046  O     0.91552   0.59162   0.65219   0.00000  Uiso   1.00
S1047  S     0.92932   0.62504   0.67919   0.00000  Uiso   1.00
S1048  S     0.73568   0.37365   0.81486   0.00000  Uiso   1.00
Zn1049 Zn    0.78229   0.50001   0.75000   0.00000  Uiso   1.00
Zn1050 Zn    0.88438   0.49999   0.75000   0.00000  Uiso   1.00
C1051  C     0.16783   0.91324   0.74769   0.00000  Uiso   1.00
C1052  C     0.12588   0.97620   0.77423   0.00000  Uiso   1.00
C1053  C     0.16515   0.70903   0.75075   0.00000  Uiso   1.00
C1054  C     0.16844   0.95735   0.74652   0.00000  Uiso   1.00
C1055  C     0.31874   0.80567   0.72372   0.00000  Uiso   1.00
C1056  C     0.01464   0.86106   0.77620   0.00000  Uiso   1.00
C1057  C     0.03332   0.80570   0.72373   0.00000  Uiso   1.00
C1058  C     0.30006   0.86107   0.77616   0.00000  Uiso   1.00
C1059  C     0.13672   0.83294   0.83832   0.00000  Uiso   1.00
C1060  C     0.19664   0.83282   0.66188   0.00000  Uiso   1.00
C1061  C     0.11960   0.82390   0.88878   0.00000  Uiso   1.00
C1062  C     0.16578   0.75328   0.75134   0.00000  Uiso   1.00
C1063  C     0.21505   0.82736   0.61133   0.00000  Uiso   1.00
C1064  C     0.06214   0.78930   0.95738   0.00000  Uiso   1.00
C1065  C     0.28069   0.82775   0.53657   0.00000  Uiso   1.00
C1066  C     0.07302   0.80781   0.91310   0.00000  Uiso   1.00
C1067  C     0.26419   0.83359   0.58464   0.00000  Uiso   1.00
C1068  C     0.15400   0.82350   0.91024   0.00000  Uiso   1.00
C1069  C     0.18304   0.81389   0.58996   0.00000  Uiso   1.00
C1070  C     0.14526   0.80192   0.95239   0.00000  Uiso   1.00
C1071  C     0.19959   0.80437   0.54253   0.00000  Uiso   1.00
C1072  C     0.09779   0.78705   0.97766   0.00000  Uiso   1.00
C1073  C     0.12110   0.77204   0.54446   0.00000  Uiso   1.00
C1074  C     0.24862   0.81381   0.51522   0.00000  Uiso   1.00
C1075  C     0.18179   0.79799   0.97169   0.00000  Uiso   1.00
C1076  C     0.16733   0.79102   0.52050   0.00000  Uiso   1.00
C1077  C     0.23201   0.80146   0.94476   0.00000  Uiso   1.00
C1078  C     0.08701   0.76996   0.52251   0.00000  Uiso   1.00
C1079  C     0.26470   0.80973   0.96689   0.00000  Uiso   1.00
C1080  C     0.20959   0.98074   0.71916   0.00000  Uiso   1.00
C1081  C     0.12342   0.68543   0.77663   0.00000  Uiso   1.00
C1082  C     0.20757   0.69014   0.72230   0.00000  Uiso   1.00
H1083  H     0.05178   0.75568   0.54090   0.00000  Uiso   1.00
H1084  H     0.09470   0.95737   0.79489   0.00000  Uiso   1.00
H1085  H     0.30812   0.78352   0.70269   0.00000  Uiso   1.00
H1086  H     0.02526   0.88318   0.79725   0.00000  Uiso   1.00
H1087  H     0.05891   0.78354   0.70285   0.00000  Uiso   1.00
H1088  H     0.27444   0.88319   0.79720   0.00000  Uiso   1.00
H1089  H     0.30081   0.96015   0.72764   0.00000  Uiso   1.00
H1090  H     0.10238   0.72774   0.86298   0.00000  Uiso   1.00
H1091  H     0.30252   0.81408   0.94606   0.00000  Uiso   1.00
H1092  H     0.14476   0.81265   0.61019   0.00000  Uiso   1.00
H1093  H     0.18812   0.83982   0.89333   0.00000  Uiso   1.00
H1094  H     0.28948   0.84409   0.60066   0.00000  Uiso   1.00
H1095  H     0.04618   0.80745   0.89664   0.00000  Uiso   1.00
H1096  H     0.02638   0.77592   0.97531   0.00000  Uiso   1.00
H1097  H     0.31817   0.83513   0.51607   0.00000  Uiso   1.00
H1098  H     0.23881   0.70899   0.70176   0.00000  Uiso   1.00
I1099  I     0.10360   0.73522   0.60712   0.00000  Uiso   1.00
I1100  I     0.26375   0.78323   0.87358   0.00000  Uiso   1.00
N1101  N     0.04759   0.83334   0.75001   0.00000  Uiso   1.00
N1102  N     0.28574   0.83332   0.74999   0.00000  Uiso   1.00
O1103  O     0.12846   0.89442   0.75001   0.00000  Uiso   1.00
O1104  O     0.29329   0.99083   0.64525   0.00000  Uiso   1.00
O1105  O     0.29529   0.93725   0.70868   0.00000  Uiso   1.00
O1106  O     0.04254   0.72733   0.78674   0.00000  Uiso   1.00
O1107  O     0.03650   0.67404   0.84644   0.00000  Uiso   1.00
O1108  O     0.08263   0.74265   0.84776   0.00000  Uiso   1.00
O1109  O     0.20488   0.77225   0.75000   0.00000  Uiso   1.00
O1110  O     0.20490   0.89441   0.75000   0.00000  Uiso   1.00
O1111  O     0.12843   0.77226   0.75000   0.00000  Uiso   1.00
O1112  O     0.10661   0.83334   0.81613   0.00000  Uiso   1.00
O1113  O     0.22672   0.83333   0.68388   0.00000  Uiso   1.00
O1114  O     0.18305   0.83333   0.81612   0.00000  Uiso   1.00
O1115  O     0.15028   0.83334   0.68388   0.00000  Uiso   1.00
O1116  O     0.24885   0.92496   0.65219   0.00000  Uiso   1.00
S1117  S     0.26266   0.95838   0.67919   0.00000  Uiso   1.00
S1118  S     0.06902   0.70698   0.81486   0.00000  Uiso   1.00
Zn1119 Zn    0.11562   0.83334   0.75000   0.00000  Uiso   1.00
Zn1120 Zn    0.21771   0.83333   0.75000   0.00000  Uiso   1.00
C1121  C     0.50116   0.91324   0.74769   0.00000  Uiso   1.00
C1122  C     0.45922   0.97620   0.77423   0.00000  Uiso   1.00
C1123  C     0.49849   0.70903   0.75075   0.00000  Uiso   1.00
C1124  C     0.50177   0.95735   0.74652   0.00000  Uiso   1.00
C1125  C     0.65207   0.80567   0.72372   0.00000  Uiso   1.00
C1126  C     0.34797   0.86106   0.77620   0.00000  Uiso   1.00
C1127  C     0.36665   0.80570   0.72373   0.00000  Uiso   1.00
C1128  C     0.63339   0.86107   0.77616   0.00000  Uiso   1.00
C1129  C     0.47005   0.83294   0.83832   0.00000  Uiso   1.00
C1130  C     0.52998   0.83282   0.66188   0.00000  Uiso   1.00
C1131  C     0.45294   0.82390   0.88878   0.00000  Uiso   1.00
C1132  C     0.49911   0.75328   0.75134   0.00000  Uiso   1.00
C1133  C     0.54838   0.82736   0.61133   0.00000  Uiso   1.00
C1134  C     0.39548   0.78930   0.95738   0.00000  Uiso   1.00
C1135  C     0.61403   0.82775   0.53657   0.00000  Uiso   1.00
C1136  C     0.40635   0.80781   0.91310   0.00000  Uiso   1.00
C1137  C     0.59753   0.83359   0.58464   0.00000  Uiso   1.00
C1138  C     0.48733   0.82350   0.91024   0.00000  Uiso   1.00
C1139  C     0.51637   0.81389   0.58996   0.00000  Uiso   1.00
C1140  C     0.47860   0.80192   0.95239   0.00000  Uiso   1.00
C1141  C     0.53292   0.80437   0.54253   0.00000  Uiso   1.00
C1142  C     0.43113   0.78705   0.97766   0.00000  Uiso   1.00
C1143  C     0.45443   0.77204   0.54446   0.00000  Uiso   1.00
C1144  C     0.58195   0.81381   0.51522   0.00000  Uiso   1.00
C1145  C     0.51512   0.79799   0.97169   0.00000  Uiso   1.00
C1146  C     0.50066   0.79102   0.52050   0.00000  Uiso   1.00
C1147  C     0.56535   0.80146   0.94476   0.00000  Uiso   1.00
C1148  C     0.42034   0.76996   0.52251   0.00000  Uiso   1.00
C1149  C     0.59804   0.80973   0.96689   0.00000  Uiso   1.00
C1150  C     0.54293   0.98074   0.71916   0.00000  Uiso   1.00
C1151  C     0.45675   0.68543   0.77663   0.00000  Uiso   1.00
C1152  C     0.54091   0.69014   0.72230   0.00000  Uiso   1.00
H1153  H     0.38512   0.75568   0.54090   0.00000  Uiso   1.00
H1154  H     0.42803   0.95737   0.79489   0.00000  Uiso   1.00
H1155  H     0.64145   0.78352   0.70269   0.00000  Uiso   1.00
H1156  H     0.35859   0.88318   0.79725   0.00000  Uiso   1.00
H1157  H     0.39224   0.78354   0.70285   0.00000  Uiso   1.00
H1158  H     0.60777   0.88319   0.79720   0.00000  Uiso   1.00
H1159  H     0.63415   0.96015   0.72764   0.00000  Uiso   1.00
H1160  H     0.43571   0.72774   0.86298   0.00000  Uiso   1.00
H1161  H     0.63585   0.81408   0.94606   0.00000  Uiso   1.00
H1162  H     0.47809   0.81265   0.61019   0.00000  Uiso   1.00
H1163  H     0.52146   0.83982   0.89333   0.00000  Uiso   1.00
H1164  H     0.62282   0.84409   0.60066   0.00000  Uiso   1.00
H1165  H     0.37951   0.80745   0.89664   0.00000  Uiso   1.00
H1166  H     0.35971   0.77592   0.97531   0.00000  Uiso   1.00
H1167  H     0.65150   0.83513   0.51607   0.00000  Uiso   1.00
H1168  H     0.57214   0.70899   0.70176   0.00000  Uiso   1.00
I1169  I     0.43693   0.73522   0.60712   0.00000  Uiso   1.00
I1170  I     0.59709   0.78323   0.87358   0.00000  Uiso   1.00
N1171  N     0.38093   0.83334   0.75001   0.00000  Uiso   1.00
N1172  N     0.61907   0.83332   0.74999   0.00000  Uiso   1.00
O1173  O     0.46179   0.89442   0.75001   0.00000  Uiso   1.00
O1174  O     0.62663   0.99083   0.64525   0.00000  Uiso   1.00
O1175  O     0.62862   0.93725   0.70868   0.00000  Uiso   1.00
O1176  O     0.37587   0.72733   0.78674   0.00000  Uiso   1.00
O1177  O     0.36984   0.67404   0.84644   0.00000  Uiso   1.00
O1178  O     0.41596   0.74265   0.84776   0.00000  Uiso   1.00
O1179  O     0.53821   0.77225   0.75000   0.00000  Uiso   1.00
O1180  O     0.53823   0.89441   0.75000   0.00000  Uiso   1.00
O1181  O     0.46177   0.77226   0.75000   0.00000  Uiso   1.00
O1182  O     0.43994   0.83334   0.81613   0.00000  Uiso   1.00
O1183  O     0.56006   0.83333   0.68388   0.00000  Uiso   1.00
O1184  O     0.51639   0.83333   0.81612   0.00000  Uiso   1.00
O1185  O     0.48361   0.83334   0.68388   0.00000  Uiso   1.00
O1186  O     0.58218   0.92496   0.65219   0.00000  Uiso   1.00
S1187  S     0.59599   0.95838   0.67919   0.00000  Uiso   1.00
S1188  S     0.40235   0.70698   0.81486   0.00000  Uiso   1.00
Zn1189 Zn    0.44896   0.83334   0.75000   0.00000  Uiso   1.00
Zn1190 Zn    0.55104   0.83333   0.75000   0.00000  Uiso   1.00
C1191  C     0.83449   0.91324   0.74769   0.00000  Uiso   1.00
C1192  C     0.79255   0.97620   0.77423   0.00000  Uiso   1.00
C1193  C     0.83182   0.70903   0.75075   0.00000  Uiso   1.00
C1194  C     0.83510   0.95735   0.74652   0.00000  Uiso   1.00
C1195  C     0.98540   0.80567   0.72372   0.00000  Uiso   1.00
C1196  C     0.68130   0.86106   0.77620   0.00000  Uiso   1.00
C1197  C     0.69998   0.80570   0.72373   0.00000  Uiso   1.00
C1198  C     0.96672   0.86107   0.77616   0.00000  Uiso   1.00
C1199  C     0.80338   0.83294   0.83832   0.00000  Uiso   1.00
C1200  C     0.86331   0.83282   0.66188   0.00000  Uiso   1.00
C1201  C     0.78627   0.82390   0.88878   0.00000  Uiso   1.00
C1202  C     0.83244   0.75328   0.75134   0.00000  Uiso   1.00
C1203  C     0.88172   0.82736   0.61133   0.00000  Uiso   1.00
C1204  C     0.72881   0.78930   0.95738   0.00000  Uiso   1.00
C1205  C     0.94736   0.82775   0.53657   0.00000  Uiso   1.00
C1206  C     0.73968   0.80781   0.91310   0.00000  Uiso   1.00
C1207  C     0.93086   0.83359   0.58464   0.00000  Uiso   1.00
C1208  C     0.82066   0.82350   0.91024   0.00000  Uiso   1.00
C1209  C     0.84971   0.81389   0.58996   0.00000  Uiso   1.00
C1210  C     0.81193   0.80192   0.95239   0.00000  Uiso   1.00
C1211  C     0.86626   0.80437   0.54253   0.00000  Uiso   1.00
C1212  C     0.76446   0.78705   0.97766   0.00000  Uiso   1.00
C1213  C     0.78776   0.77204   0.54446   0.00000  Uiso   1.00
C1214  C     0.91528   0.81381   0.51522   0.00000  Uiso   1.00
C1215  C     0.84845   0.79799   0.97169   0.00000  Uiso   1.00
C1216  C     0.83399   0.79102   0.52050   0.00000  Uiso   1.00
C1217  C     0.89868   0.80146   0.94476   0.00000  Uiso   1.00
C1218  C     0.75368   0.76996   0.52251   0.00000  Uiso   1.00
C1219  C     0.93137   0.80973   0.96689   0.00000  Uiso   1.00
C1220  C     0.87626   0.98074   0.71916   0.00000  Uiso   1.00
C1221  C     0.79008   0.68543   0.77663   0.00000  Uiso   1.00
C1222  C     0.87424   0.69014   0.72230   0.00000  Uiso   1.00
H1223  H     0.71845   0.75568   0.54090   0.00000  Uiso   1.00
H1224  H     0.76137   0.95737   0.79489   0.00000  Uiso   1.00
H1225  H     0.97479   0.78352   0.70269   0.00000  Uiso   1.00
H1226  H     0.69192   0.88318   0.79725   0.00000  Uiso   1.00
H1227  H     0.72558   0.78354   0.70285   0.00000  Uiso   1.00
H1228  H     0.94110   0.88319   0.79720   0.00000  Uiso   1.00
H1229  H     0.96748   0.96015   0.72764   0.00000  Uiso   1.00
H1230  H     0.76904   0.72774   0.86298   0.00000  Uiso   1.00
H1231  H     0.96919   0.81408   0.94606   0.00000  Uiso   1.00
H1232  H     0.81142   0.81265   0.61019   0.00000  Uiso   1.00
H1233  H     0.85479   0.83982   0.89333   0.00000  Uiso   1.00
H1234  H     0.95615   0.84409   0.60066   0.00000  Uiso   1.00
H1235  H     0.71284   0.80745   0.89664   0.00000  Uiso   1.00
H1236  H     0.69305   0.77592   0.97531   0.00000  Uiso   1.00
H1237  H     0.98483   0.83513   0.51607   0.00000  Uiso   1.00
H1238  H     0.90547   0.70899   0.70176   0.00000  Uiso   1.00
I1239  I     0.77027   0.73522   0.60712   0.00000  Uiso   1.00
I1240  I     0.93042   0.78323   0.87358   0.00000  Uiso   1.00
N1241  N     0.71426   0.83334   0.75001   0.00000  Uiso   1.00
N1242  N     0.95241   0.83332   0.74999   0.00000  Uiso   1.00
O1243  O     0.79512   0.89442   0.75001   0.00000  Uiso   1.00
O1244  O     0.95996   0.99083   0.64525   0.00000  Uiso   1.00
O1245  O     0.96196   0.93725   0.70868   0.00000  Uiso   1.00
O1246  O     0.70921   0.72733   0.78674   0.00000  Uiso   1.00
O1247  O     0.70317   0.67404   0.84644   0.00000  Uiso   1.00
O1248  O     0.74930   0.74265   0.84776   0.00000  Uiso   1.00
O1249  O     0.87154   0.77225   0.75000   0.00000  Uiso   1.00
O1250  O     0.87157   0.89441   0.75000   0.00000  Uiso   1.00
O1251  O     0.79510   0.77226   0.75000   0.00000  Uiso   1.00
O1252  O     0.77328   0.83334   0.81613   0.00000  Uiso   1.00
O1253  O     0.89339   0.83333   0.68388   0.00000  Uiso   1.00
O1254  O     0.84972   0.83333   0.81612   0.00000  Uiso   1.00
O1255  O     0.81695   0.83334   0.68388   0.00000  Uiso   1.00
O1256  O     0.91552   0.92496   0.65219   0.00000  Uiso   1.00
S1257  S     0.92932   0.95838   0.67919   0.00000  Uiso   1.00
S1258  S     0.73568   0.70698   0.81486   0.00000  Uiso   1.00
Zn1259 Zn    0.78229   0.83334   0.75000   0.00000  Uiso   1.00
Zn1260 Zn    0.88438   0.83333   0.75000   0.00000  Uiso   1.00
loop_
_geom_bond_atom_site_label_1
_geom_bond_atom_site_label_2
_geom_bond_distance
_geom_bond_site_symmetry_2
_ccdc_geom_bond_type
C1     C4      1.417   .     S
C1     O60     1.281   .     A
C1     O53     1.284   .     A
C2     C4      1.392   .     A
C2     H34     1.084   .     S
C2     C241    1.372   .     S
C3     C31     1.410   .     A
C3     C32     1.397   .     A
C3     C12     1.422   .     S
C4     C30     1.407   .     A
C5     N52     1.366   .     A
C5     H35     1.082   .     S
C5     C77     1.417   .     S
C6     N51     1.366   .     A
C6     H36     1.082   .     S
C6     C148    1.417   1_455 S
C7     H37     1.081   .     S
C7     N51     1.366   .     A
C7     C145    1.417   1_455 S
C8     N52     1.367   .     A
C8     H38     1.082   .     S
C8     C76     1.417   .     S
C9     O64     1.293   .     A
C9     C11     1.466   .     S
C9     O62     1.298   .     A
C10    O63     1.293   .     A
C10    C13     1.458   .     S
C10    O65     1.294   .     A
C11    C18     1.393   .     A
C11    C16     1.399   .     A
C12    O61     1.280   .     A
C12    O59     1.288   .     A
C13    C17     1.400   .     A
C13    C19     1.397   .     A
C14    C22     1.403   .     A
C14    C16     1.398   .     A
C14    H46     1.082   .     S
C15    C24     1.402   .     A
C15    C17     1.390   .     A
C15    H47     1.082   .     S
C16    H45     1.081   .     S
C17    H44     1.083   .     S
C18    C20     1.394   .     A
C18    H43     1.081   .     S
C19    H42     1.079   .     S
C19    C21     1.395   .     A
C20    C22     1.412   .     A
C20    C25     1.409   .     A
C21    C26     1.416   .     A
C21    C24     1.417   .     A
C22    C658    1.396   .     S
C23    C28     1.398   .     A
C23    I49     2.134   .     S
C23    C26     1.425   .     A
C24    C659    1.391   1_554 S
C25    C27     1.420   .     A
C25    C656    1.412   .     S
C26    C655    1.412   1_554 S
C27    C29     1.389   .     A
C27    I50     2.134   .     S
C28    H33     1.084   .     S
C28    C652    1.396   1_554 S
C29    H41     1.077   .     S
C29    C654    1.391   .     S
C30    S67     1.776   .     S
C30    C242    1.378   .     S
C31    S68     1.772   .     S
C31    C422    1.372   1_545 S
C32    H48     1.084   .     S
C32    C450    1.378   1_545 S
H39    O55     0.991   .     S
H40    O58     0.991   .     S
N51    Zn69    2.011   .     S
N52    Zn70    2.011   .     S
O53    Zn69    1.994   .     S
O54    S67     1.504   .     D
O55    S67     1.681   .     S
O56    S68     1.502   .     D
O57    S68     1.504   .     D
O58    S68     1.673   .     S
O59    Zn70    1.994   .     S
O60    Zn70    2.003   .     S
O61    Zn69    2.003   .     S
O62    Zn69    1.944   .     S
O63    Zn70    1.944   .     S
O64    Zn70    1.913   .     S
O65    Zn69    1.913   .     S
O66    S67     1.502   .     D
C71    C74     1.417   .     S
C71    O130    1.281   .     A
C71    O123    1.284   .     A
C72    C74     1.392   .     A
C72    H104    1.084   .     S
C72    C311    1.372   .     S
C73    C101    1.410   .     A
C73    C102    1.397   .     A
C73    C82     1.422   .     S
C74    C100    1.407   .     A
C75    N122    1.366   .     A
C75    H105    1.082   .     S
C75    C147    1.417   .     S
C76    N121    1.366   .     A
C76    H106    1.082   .     S
C77    H107    1.081   .     S
C77    N121    1.366   .     A
C78    N122    1.367   .     A
C78    H108    1.082   .     S
C78    C146    1.417   .     S
C79    O134    1.293   .     A
C79    C81     1.466   .     S
C79    O132    1.298   .     A
C80    O133    1.293   .     A
C80    C83     1.458   .     S
C80    O135    1.294   .     A
C81    C88     1.393   .     A
C81    C86     1.399   .     A
C82    O131    1.280   .     A
C82    O129    1.288   .     A
C83    C87     1.400   .     A
C83    C89     1.397   .     A
C84    C92     1.403   .     A
C84    C86     1.398   .     A
C84    H116    1.082   .     S
C85    C94     1.402   .     A
C85    C87     1.390   .     A
C85    H117    1.082   .     S
C86    H115    1.081   .     S
C87    H114    1.083   .     S
C88    C90     1.394   .     A
C88    H113    1.081   .     S
C89    H112    1.079   .     S
C89    C91     1.395   .     A
C90    C92     1.412   .     A
C90    C95     1.409   .     A
C91    C96     1.416   .     A
C91    C94     1.417   .     A
C92    C728    1.396   .     S
C93    C98     1.398   .     A
C93    I119    2.134   .     S
C93    C96     1.425   .     A
C94    C729    1.391   1_554 S
C95    C97     1.420   .     A
C95    C726    1.412   .     S
C96    C725    1.412   1_554 S
C97    C99     1.389   .     A
C97    I120    2.134   .     S
C98    H103    1.084   .     S
C98    C722    1.396   1_554 S
C99    H111    1.077   .     S
C99    C724    1.391   .     S
C100   S137    1.776   .     S
C100   C312    1.378   .     S
C101   S138    1.772   .     S
C101   C492    1.372   1_545 S
C102   H118    1.084   .     S
C102   C520    1.378   1_545 S
H109   O125    0.991   .     S
H110   O128    0.991   .     S
N121   Zn139   2.011   .     S
N122   Zn140   2.011   .     S
O123   Zn139   1.994   .     S
O124   S137    1.504   .     D
O125   S137    1.681   .     S
O126   S138    1.502   .     D
O127   S138    1.504   .     D
O128   S138    1.673   .     S
O129   Zn140   1.994   .     S
O130   Zn140   2.003   .     S
O131   Zn139   2.003   .     S
O132   Zn139   1.944   .     S
O133   Zn140   1.944   .     S
O134   Zn140   1.913   .     S
O135   Zn139   1.913   .     S
O136   S137    1.502   .     D
C141   C144    1.417   .     S
C141   O200    1.281   .     A
C141   O193    1.284   .     A
C142   C144    1.392   .     A
C142   H174    1.084   .     S
C142   C381    1.372   .     S
C143   C171    1.410   .     A
C143   C172    1.397   .     A
C143   C152    1.422   .     S
C144   C170    1.407   .     A
C145   N192    1.366   .     A
C145   H175    1.082   .     S
C145   C7      1.417   1_655 S
C146   N191    1.366   .     A
C146   H176    1.082   .     S
C147   H177    1.081   .     S
C147   N191    1.366   .     A
C148   N192    1.367   .     A
C148   H178    1.082   .     S
C148   C6      1.417   1_655 S
C149   O204    1.293   .     A
C149   C151    1.466   .     S
C149   O202    1.298   .     A
C150   O203    1.293   .     A
C150   C153    1.458   .     S
C150   O205    1.294   .     A
C151   C158    1.393   .     A
C151   C156    1.399   .     A
C152   O201    1.280   .     A
C152   O199    1.288   .     A
C153   C157    1.400   .     A
C153   C159    1.397   .     A
C154   C162    1.403   .     A
C154   C156    1.398   .     A
C154   H186    1.082   .     S
C155   C164    1.402   .     A
C155   C157    1.390   .     A
C155   H187    1.082   .     S
C156   H185    1.081   .     S
C157   H184    1.083   .     S
C158   C160    1.394   .     A
C158   H183    1.081   .     S
C159   H182    1.079   .     S
C159   C161    1.395   .     A
C160   C162    1.412   .     A
C160   C165    1.409   .     A
C161   C166    1.416   .     A
C161   C164    1.417   .     A
C162   C798    1.396   .     S
C163   C168    1.398   .     A
C163   I189    2.134   .     S
C163   C166    1.425   .     A
C164   C799    1.391   1_554 S
C165   C167    1.420   .     A
C165   C796    1.412   .     S
C166   C795    1.412   1_554 S
C167   C169    1.389   .     A
C167   I190    2.134   .     S
C168   H173    1.084   .     S
C168   C792    1.396   1_554 S
C169   H181    1.077   .     S
C169   C794    1.391   .     S
C170   S207    1.776   .     S
C170   C382    1.378   .     S
C171   S208    1.772   .     S
C171   C562    1.372   1_545 S
C172   H188    1.084   .     S
C172   C590    1.378   1_545 S
H179   O195    0.991   .     S
H180   O198    0.991   .     S
N191   Zn209   2.011   .     S
N192   Zn210   2.011   .     S
O193   Zn209   1.994   .     S
O194   S207    1.504   .     D
O195   S207    1.681   .     S
O196   S208    1.502   .     D
O197   S208    1.504   .     D
O198   S208    1.673   .     S
O199   Zn210   1.994   .     S
O200   Zn210   2.003   .     S
O201   Zn209   2.003   .     S
O202   Zn209   1.944   .     S
O203   Zn210   1.944   .     S
O204   Zn210   1.913   .     S
O205   Zn209   1.913   .     S
O206   S207    1.502   .     D
C211   C214    1.417   .     S
C211   O270    1.281   .     A
C211   O263    1.284   .     A
C212   C214    1.392   .     A
C212   H244    1.084   .     S
C212   C451    1.372   .     S
C213   C241    1.410   .     A
C213   C242    1.397   .     A
C213   C222    1.422   .     S
C214   C240    1.407   .     A
C215   N262    1.366   .     A
C215   H245    1.082   .     S
C215   C287    1.417   .     S
C216   N261    1.366   .     A
C216   H246    1.082   .     S
C216   C358    1.417   1_455 S
C217   H247    1.081   .     S
C217   N261    1.366   .     A
C217   C355    1.417   1_455 S
C218   N262    1.367   .     A
C218   H248    1.082   .     S
C218   C286    1.417   .     S
C219   O274    1.293   .     A
C219   C221    1.466   .     S
C219   O272    1.298   .     A
C220   O273    1.293   .     A
C220   C223    1.458   .     S
C220   O275    1.294   .     A
C221   C228    1.393   .     A
C221   C226    1.399   .     A
C222   O271    1.280   .     A
C222   O269    1.288   .     A
C223   C227    1.400   .     A
C223   C229    1.397   .     A
C224   C232    1.403   .     A
C224   C226    1.398   .     A
C224   H256    1.082   .     S
C225   C234    1.402   .     A
C225   C227    1.390   .     A
C225   H257    1.082   .     S
C226   H255    1.081   .     S
C227   H254    1.083   .     S
C228   C230    1.394   .     A
C228   H253    1.081   .     S
C229   H252    1.079   .     S
C229   C231    1.395   .     A
C230   C232    1.412   .     A
C230   C235    1.409   .     A
C231   C236    1.416   .     A
C231   C234    1.417   .     A
C232   C868    1.396   .     S
C233   C238    1.398   .     A
C233   I259    2.134   .     S
C233   C236    1.425   .     A
C234   C869    1.391   1_554 S
C235   C237    1.420   .     A
C235   C866    1.412   .     S
C236   C865    1.412   1_554 S
C237   C239    1.389   .     A
C237   I260    2.134   .     S
C238   H243    1.084   .     S
C238   C862    1.396   1_554 S
C239   H251    1.077   .     S
C239   C864    1.391   .     S
C240   S277    1.776   .     S
C240   C452    1.378   .     S
C241   S278    1.772   .     S
C242   H258    1.084   .     S
H249   O265    0.991   .     S
H250   O268    0.991   .     S
N261   Zn279   2.011   .     S
N262   Zn280   2.011   .     S
O263   Zn279   1.994   .     S
O264   S277    1.504   .     D
O265   S277    1.681   .     S
O266   S278    1.502   .     D
O267   S278    1.504   .     D
O268   S278    1.673   .     S
O269   Zn280   1.994   .     S
O270   Zn280   2.003   .     S
O271   Zn279   2.003   .     S
O272   Zn279   1.944   .     S
O273   Zn280   1.944   .     S
O274   Zn280   1.913   .     S
O275   Zn279   1.913   .     S
O276   S277    1.502   .     D
C281   C284    1.417   .     S
C281   O340    1.281   .     A
C281   O333    1.284   .     A
C282   C284    1.392   .     A
C282   H314    1.084   .     S
C282   C521    1.372   .     S
C283   C311    1.410   .     A
C283   C312    1.397   .     A
C283   C292    1.422   .     S
C284   C310    1.407   .     A
C285   N332    1.366   .     A
C285   H315    1.082   .     S
C285   C357    1.417   .     S
C286   N331    1.366   .     A
C286   H316    1.082   .     S
C287   H317    1.081   .     S
C287   N331    1.366   .     A
C288   N332    1.367   .     A
C288   H318    1.082   .     S
C288   C356    1.417   .     S
C289   O344    1.293   .     A
C289   C291    1.466   .     S
C289   O342    1.298   .     A
C290   O343    1.293   .     A
C290   C293    1.458   .     S
C290   O345    1.294   .     A
C291   C298    1.393   .     A
C291   C296    1.399   .     A
C292   O341    1.280   .     A
C292   O339    1.288   .     A
C293   C297    1.400   .     A
C293   C299    1.397   .     A
C294   C302    1.403   .     A
C294   C296    1.398   .     A
C294   H326    1.082   .     S
C295   C304    1.402   .     A
C295   C297    1.390   .     A
C295   H327    1.082   .     S
C296   H325    1.081   .     S
C297   H324    1.083   .     S
C298   C300    1.394   .     A
C298   H323    1.081   .     S
C299   H322    1.079   .     S
C299   C301    1.395   .     A
C300   C302    1.412   .     A
C300   C305    1.409   .     A
C301   C306    1.416   .     A
C301   C304    1.417   .     A
C302   C938    1.396   .     S
C303   C308    1.398   .     A
C303   I329    2.134   .     S
C303   C306    1.425   .     A
C304   C939    1.391   1_554 S
C305   C307    1.420   .     A
C305   C936    1.412   .     S
C306   C935    1.412   1_554 S
C307   C309    1.389   .     A
C307   I330    2.134   .     S
C308   H313    1.084   .     S
C308   C932    1.396   1_554 S
C309   H321    1.077   .     S
C309   C934    1.391   .     S
C310   S347    1.776   .     S
C310   C522    1.378   .     S
C311   S348    1.772   .     S
C312   H328    1.084   .     S
H319   O335    0.991   .     S
H320   O338    0.991   .     S
N331   Zn349   2.011   .     S
N332   Zn350   2.011   .     S
O333   Zn349   1.994   .     S
O334   S347    1.504   .     D
O335   S347    1.681   .     S
O336   S348    1.502   .     D
O337   S348    1.504   .     D
O338   S348    1.673   .     S
O339   Zn350   1.994   .     S
O340   Zn350   2.003   .     S
O341   Zn349   2.003   .     S
O342   Zn349   1.944   .     S
O343   Zn350   1.944   .     S
O344   Zn350   1.913   .     S
O345   Zn349   1.913   .     S
O346   S347    1.502   .     D
C351   C354    1.417   .     S
C351   O410    1.281   .     A
C351   O403    1.284   .     A
C352   C354    1.392   .     A
C352   H384    1.084   .     S
C352   C591    1.372   .     S
C353   C381    1.410   .     A
C353   C382    1.397   .     A
C353   C362    1.422   .     S
C354   C380    1.407   .     A
C355   N402    1.366   .     A
C355   H385    1.082   .     S
C355   C217    1.417   1_655 S
C356   N401    1.366   .     A
C356   H386    1.082   .     S
C357   H387    1.081   .     S
C357   N401    1.366   .     A
C358   N402    1.367   .     A
C358   H388    1.082   .     S
C358   C216    1.417   1_655 S
C359   O414    1.293   .     A
C359   C361    1.466   .     S
C359   O412    1.298   .     A
C360   O413    1.293   .     A
C360   C363    1.458   .     S
C360   O415    1.294   .     A
C361   C368    1.393   .     A
C361   C366    1.399   .     A
C362   O411    1.280   .     A
C362   O409    1.288   .     A
C363   C367    1.400   .     A
C363   C369    1.397   .     A
C364   C372    1.403   .     A
C364   C366    1.398   .     A
C364   H396    1.082   .     S
C365   C374    1.402   .     A
C365   C367    1.390   .     A
C365   H397    1.082   .     S
C366   H395    1.081   .     S
C367   H394    1.083   .     S
C368   C370    1.394   .     A
C368   H393    1.081   .     S
C369   H392    1.079   .     S
C369   C371    1.395   .     A
C370   C372    1.412   .     A
C370   C375    1.409   .     A
C371   C376    1.416   .     A
C371   C374    1.417   .     A
C372   C1008   1.396   .     S
C373   C378    1.398   .     A
C373   I399    2.134   .     S
C373   C376    1.425   .     A
C374   C1009   1.391   1_554 S
C375   C377    1.420   .     A
C375   C1006   1.412   .     S
C376   C1005   1.412   1_554 S
C377   C379    1.389   .     A
C377   I400    2.134   .     S
C378   H383    1.084   .     S
C378   C1002   1.396   1_554 S
C379   H391    1.077   .     S
C379   C1004   1.391   .     S
C380   S417    1.776   .     S
C380   C592    1.378   .     S
C381   S418    1.772   .     S
C382   H398    1.084   .     S
H389   O405    0.991   .     S
H390   O408    0.991   .     S
N401   Zn419   2.011   .     S
N402   Zn420   2.011   .     S
O403   Zn419   1.994   .     S
O404   S417    1.504   .     D
O405   S417    1.681   .     S
O406   S418    1.502   .     D
O407   S418    1.504   .     D
O408   S418    1.673   .     S
O409   Zn420   1.994   .     S
O410   Zn420   2.003   .     S
O411   Zn419   2.003   .     S
O412   Zn419   1.944   .     S
O413   Zn420   1.944   .     S
O414   Zn420   1.913   .     S
O415   Zn419   1.913   .     S
O416   S417    1.502   .     D
C421   C424    1.417   .     S
C421   O480    1.281   .     A
C421   O473    1.284   .     A
C422   C424    1.392   .     A
C422   H454    1.084   .     S
C422   C31     1.372   1_565 S
C423   C451    1.410   .     A
C423   C452    1.397   .     A
C423   C432    1.422   .     S
C424   C450    1.407   .     A
C425   N472    1.366   .     A
C425   H455    1.082   .     S
C425   C497    1.417   .     S
C426   N471    1.366   .     A
C426   H456    1.082   .     S
C426   C568    1.417   1_455 S
C427   H457    1.081   .     S
C427   N471    1.366   .     A
C427   C565    1.417   1_455 S
C428   N472    1.367   .     A
C428   H458    1.082   .     S
C428   C496    1.417   .     S
C429   O484    1.293   .     A
C429   C431    1.466   .     S
C429   O482    1.298   .     A
C430   O483    1.293   .     A
C430   C433    1.458   .     S
C430   O485    1.294   .     A
C431   C438    1.393   .     A
C431   C436    1.399   .     A
C432   O481    1.280   .     A
C432   O479    1.288   .     A
C433   C437    1.400   .     A
C433   C439    1.397   .     A
C434   C442    1.403   .     A
C434   C436    1.398   .     A
C434   H466    1.082   .     S
C435   C444    1.402   .     A
C435   C437    1.390   .     A
C435   H467    1.082   .     S
C436   H465    1.081   .     S
C437   H464    1.083   .     S
C438   C440    1.394   .     A
C438   H463    1.081   .     S
C439   H462    1.079   .     S
C439   C441    1.395   .     A
C440   C442    1.412   .     A
C440   C445    1.409   .     A
C441   C446    1.416   .     A
C441   C444    1.417   .     A
C442   C1078   1.396   .     S
C443   C448    1.398   .     A
C443   I469    2.134   .     S
C443   C446    1.425   .     A
C444   C1079   1.391   1_554 S
C445   C447    1.420   .     A
C445   C1076   1.412   .     S
C446   C1075   1.412   1_554 S
C447   C449    1.389   .     A
C447   I470    2.134   .     S
C448   H453    1.084   .     S
C448   C1072   1.396   1_554 S
C449   H461    1.077   .     S
C449   C1074   1.391   .     S
C450   S487    1.776   .     S
C450   C32     1.378   1_565 S
C451   S488    1.772   .     S
C452   H468    1.084   .     S
H459   O475    0.991   .     S
H460   O478    0.991   .     S
N471   Zn489   2.011   .     S
N472   Zn490   2.011   .     S
O473   Zn489   1.994   .     S
O474   S487    1.504   .     D
O475   S487    1.681   .     S
O476   S488    1.502   .     D
O477   S488    1.504   .     D
O478   S488    1.673   .     S
O479   Zn490   1.994   .     S
O480   Zn490   2.003   .     S
O481   Zn489   2.003   .     S
O482   Zn489   1.944   .     S
O483   Zn490   1.944   .     S
O484   Zn490   1.913   .     S
O485   Zn489   1.913   .     S
O486   S487    1.502   .     D
C491   C494    1.417   .     S
C491   O550    1.281   .     A
C491   O543    1.284   .     A
C492   C494    1.392   .     A
C492   H524    1.084   .     S
C492   C101    1.372   1_565 S
C493   C521    1.410   .     A
C493   C522    1.397   .     A
C493   C502    1.422   .     S
C494   C520    1.407   .     A
C495   N542    1.366   .     A
C495   H525    1.082   .     S
C495   C567    1.417   .     S
C496   N541    1.366   .     A
C496   H526    1.082   .     S
C497   H527    1.081   .     S
C497   N541    1.366   .     A
C498   N542    1.367   .     A
C498   H528    1.082   .     S
C498   C566    1.417   .     S
C499   O554    1.293   .     A
C499   C501    1.466   .     S
C499   O552    1.298   .     A
C500   O553    1.293   .     A
C500   C503    1.458   .     S
C500   O555    1.294   .     A
C501   C508    1.393   .     A
C501   C506    1.399   .     A
C502   O551    1.280   .     A
C502   O549    1.288   .     A
C503   C507    1.400   .     A
C503   C509    1.397   .     A
C504   C512    1.403   .     A
C504   C506    1.398   .     A
C504   H536    1.082   .     S
C505   C514    1.402   .     A
C505   C507    1.390   .     A
C505   H537    1.082   .     S
C506   H535    1.081   .     S
C507   H534    1.083   .     S
C508   C510    1.394   .     A
C508   H533    1.081   .     S
C509   H532    1.079   .     S
C509   C511    1.395   .     A
C510   C512    1.412   .     A
C510   C515    1.409   .     A
C511   C516    1.416   .     A
C511   C514    1.417   .     A
C512   C1148   1.396   .     S
C513   C518    1.398   .     A
C513   I539    2.134   .     S
C513   C516    1.425   .     A
C514   C1149   1.391   1_554 S
C515   C517    1.420   .     A
C515   C1146   1.412   .     S
C516   C1145   1.412   1_554 S
C517   C519    1.389   .     A
C517   I540    2.134   .     S
C518   H523    1.084   .     S
C518   C1142   1.396   1_554 S
C519   H531    1.077   .     S
C519   C1144   1.391   .     S
C520   S557    1.776   .     S
C520   C102    1.378   1_565 S
C521   S558    1.772   .     S
C522   H538    1.084   .     S
H529   O545    0.991   .     S
H530   O548    0.991   .     S
N541   Zn559   2.011   .     S
N542   Zn560   2.011   .     S
O543   Zn559   1.994   .     S
O544   S557    1.504   .     D
O545   S557    1.681   .     S
O546   S558    1.502   .     D
O547   S558    1.504   .     D
O548   S558    1.673   .     S
O549   Zn560   1.994   .     S
O550   Zn560   2.003   .     S
O551   Zn559   2.003   .     S
O552   Zn559   1.944   .     S
O553   Zn560   1.944   .     S
O554   Zn560   1.913   .     S
O555   Zn559   1.913   .     S
O556   S557    1.502   .     D
C561   C564    1.417   .     S
C561   O620    1.281   .     A
C561   O613    1.284   .     A
C562   C564    1.392   .     A
C562   H594    1.084   .     S
C562   C171    1.372   1_565 S
C563   C591    1.410   .     A
C563   C592    1.397   .     A
C563   C572    1.422   .     S
C564   C590    1.407   .     A
C565   N612    1.366   .     A
C565   H595    1.082   .     S
C565   C427    1.417   1_655 S
C566   N611    1.366   .     A
C566   H596    1.082   .     S
C567   H597    1.081   .     S
C567   N611    1.366   .     A
C568   N612    1.367   .     A
C568   H598    1.082   .     S
C568   C426    1.417   1_655 S
C569   O624    1.293   .     A
C569   C571    1.466   .     S
C569   O622    1.298   .     A
C570   O623    1.293   .     A
C570   C573    1.458   .     S
C570   O625    1.294   .     A
C571   C578    1.393   .     A
C571   C576    1.399   .     A
C572   O621    1.280   .     A
C572   O619    1.288   .     A
C573   C577    1.400   .     A
C573   C579    1.397   .     A
C574   C582    1.403   .     A
C574   C576    1.398   .     A
C574   H606    1.082   .     S
C575   C584    1.402   .     A
C575   C577    1.390   .     A
C575   H607    1.082   .     S
C576   H605    1.081   .     S
C577   H604    1.083   .     S
C578   C580    1.394   .     A
C578   H603    1.081   .     S
C579   H602    1.079   .     S
C579   C581    1.395   .     A
C580   C582    1.412   .     A
C580   C585    1.409   .     A
C581   C586    1.416   .     A
C581   C584    1.417   .     A
C582   C1218   1.396   .     S
C583   C588    1.398   .     A
C583   I609    2.134   .     S
C583   C586    1.425   .     A
C584   C1219   1.391   1_554 S
C585   C587    1.420   .     A
C585   C1216   1.412   .     S
C586   C1215   1.412   1_554 S
C587   C589    1.389   .     A
C587   I610    2.134   .     S
C588   H593    1.084   .     S
C588   C1212   1.396   1_554 S
C589   H601    1.077   .     S
C589   C1214   1.391   .     S
C590   S627    1.776   .     S
C590   C172    1.378   1_565 S
C591   S628    1.772   .     S
C592   H608    1.084   .     S
H599   O615    0.991   .     S
H600   O618    0.991   .     S
N611   Zn629   2.011   .     S
N612   Zn630   2.011   .     S
O613   Zn629   1.994   .     S
O614   S627    1.504   .     D
O615   S627    1.681   .     S
O616   S628    1.502   .     D
O617   S628    1.504   .     D
O618   S628    1.673   .     S
O619   Zn630   1.994   .     S
O620   Zn630   2.003   .     S
O621   Zn629   2.003   .     S
O622   Zn629   1.944   .     S
O623   Zn630   1.944   .     S
O624   Zn630   1.913   .     S
O625   Zn629   1.913   .     S
O626   S627    1.502   .     D
C631   C634    1.417   .     S
C631   O690    1.281   .     A
C631   O683    1.284   .     A
C632   C634    1.392   .     A
C632   H664    1.084   .     S
C632   C871    1.372   .     S
C633   C661    1.410   .     A
C633   C662    1.397   .     A
C633   C642    1.422   .     S
C634   C660    1.407   .     A
C635   N682    1.366   .     A
C635   H665    1.082   .     S
C635   C707    1.417   .     S
C636   N681    1.366   .     A
C636   H666    1.082   .     S
C636   C778    1.417   1_455 S
C637   H667    1.081   .     S
C637   N681    1.366   .     A
C637   C775    1.417   1_455 S
C638   N682    1.367   .     A
C638   H668    1.082   .     S
C638   C706    1.417   .     S
C639   O694    1.293   .     A
C639   C641    1.466   .     S
C639   O692    1.298   .     A
C640   O693    1.293   .     A
C640   C643    1.458   .     S
C640   O695    1.294   .     A
C641   C648    1.393   .     A
C641   C646    1.399   .     A
C642   O691    1.280   .     A
C642   O689    1.288   .     A
C643   C647    1.400   .     A
C643   C649    1.397   .     A
C644   C652    1.403   .     A
C644   C646    1.398   .     A
C644   H676    1.082   .     S
C645   C654    1.402   .     A
C645   C647    1.390   .     A
C645   H677    1.082   .     S
C646   H675    1.081   .     S
C647   H674    1.083   .     S
C648   C650    1.394   .     A
C648   H673    1.081   .     S
C649   H672    1.079   .     S
C649   C651    1.395   .     A
C650   C652    1.412   .     A
C650   C655    1.409   .     A
C651   C656    1.416   .     A
C651   C654    1.417   .     A
C652   C28     1.396   1_556 S
C653   C658    1.398   .     A
C653   I679    2.134   .     S
C653   C656    1.425   .     A
C655   C657    1.420   .     A
C655   C26     1.412   1_556 S
C657   C659    1.389   .     A
C657   I680    2.134   .     S
C658   H663    1.084   .     S
C659   H671    1.077   .     S
C659   C24     1.391   1_556 S
C660   S697    1.776   .     S
C660   C872    1.378   .     S
C661   S698    1.772   .     S
C661   C1052   1.372   1_545 S
C662   H678    1.084   .     S
C662   C1080   1.378   1_545 S
H669   O685    0.991   .     S
H670   O688    0.991   .     S
N681   Zn699   2.011   .     S
N682   Zn700   2.011   .     S
O683   Zn699   1.994   .     S
O684   S697    1.504   .     D
O685   S697    1.681   .     S
O686   S698    1.502   .     D
O687   S698    1.504   .     D
O688   S698    1.673   .     S
O689   Zn700   1.994   .     S
O690   Zn700   2.003   .     S
O691   Zn699   2.003   .     S
O692   Zn699   1.944   .     S
O693   Zn700   1.944   .     S
O694   Zn700   1.913   .     S
O695   Zn699   1.913   .     S
O696   S697    1.502   .     D
C701   C704    1.417   .     S
C701   O760    1.281   .     A
C701   O753    1.284   .     A
C702   C704    1.392   .     A
C702   H734    1.084   .     S
C702   C941    1.372   .     S
C703   C731    1.410   .     A
C703   C732    1.397   .     A
C703   C712    1.422   .     S
C704   C730    1.407   .     A
C705   N752    1.366   .     A
C705   H735    1.082   .     S
C705   C777    1.417   .     S
C706   N751    1.366   .     A
C706   H736    1.082   .     S
C707   H737    1.081   .     S
C707   N751    1.366   .     A
C708   N752    1.367   .     A
C708   H738    1.082   .     S
C708   C776    1.417   .     S
C709   O764    1.293   .     A
C709   C711    1.466   .     S
C709   O762    1.298   .     A
C710   O763    1.293   .     A
C710   C713    1.458   .     S
C710   O765    1.294   .     A
C711   C718    1.393   .     A
C711   C716    1.399   .     A
C712   O761    1.280   .     A
C712   O759    1.288   .     A
C713   C717    1.400   .     A
C713   C719    1.397   .     A
C714   C722    1.403   .     A
C714   C716    1.398   .     A
C714   H746    1.082   .     S
C715   C724    1.402   .     A
C715   C717    1.390   .     A
C715   H747    1.082   .     S
C716   H745    1.081   .     S
C717   H744    1.083   .     S
C718   C720    1.394   .     A
C718   H743    1.081   .     S
C719   H742    1.079   .     S
C719   C721    1.395   .     A
C720   C722    1.412   .     A
C720   C725    1.409   .     A
C721   C726    1.416   .     A
C721   C724    1.417   .     A
C722   C98     1.396   1_556 S
C723   C728    1.398   .     A
C723   I749    2.134   .     S
C723   C726    1.425   .     A
C725   C727    1.420   .     A
C725   C96     1.412   1_556 S
C727   C729    1.389   .     A
C727   I750    2.134   .     S
C728   H733    1.084   .     S
C729   H741    1.077   .     S
C729   C94     1.391   1_556 S
C730   S767    1.776   .     S
C730   C942    1.378   .     S
C731   S768    1.772   .     S
C731   C1122   1.372   1_545 S
C732   H748    1.084   .     S
C732   C1150   1.378   1_545 S
H739   O755    0.991   .     S
H740   O758    0.991   .     S
N751   Zn769   2.011   .     S
N752   Zn770   2.011   .     S
O753   Zn769   1.994   .     S
O754   S767    1.504   .     D
O755   S767    1.681   .     S
O756   S768    1.502   .     D
O757   S768    1.504   .     D
O758   S768    1.673   .     S
O759   Zn770   1.994   .     S
O760   Zn770   2.003   .     S
O761   Zn769   2.003   .     S
O762   Zn769   1.944   .     S
O763   Zn770   1.944   .     S
O764   Zn770   1.913   .     S
O765   Zn769   1.913   .     S
O766   S767    1.502   .     D
C771   C774    1.417   .     S
C771   O830    1.281   .     A
C771   O823    1.284   .     A
C772   C774    1.392   .     A
C772   H804    1.084   .     S
C772   C1011   1.372   .     S
C773   C801    1.410   .     A
C773   C802    1.397   .     A
C773   C782    1.422   .     S
C774   C800    1.407   .     A
C775   N822    1.366   .     A
C775   H805    1.082   .     S
C775   C637    1.417   1_655 S
C776   N821    1.366   .     A
C776   H806    1.082   .     S
C777   H807    1.081   .     S
C777   N821    1.366   .     A
C778   N822    1.367   .     A
C778   H808    1.082   .     S
C778   C636    1.417   1_655 S
C779   O834    1.293   .     A
C779   C781    1.466   .     S
C779   O832    1.298   .     A
C780   O833    1.293   .     A
C780   C783    1.458   .     S
C780   O835    1.294   .     A
C781   C788    1.393   .     A
C781   C786    1.399   .     A
C782   O831    1.280   .     A
C782   O829    1.288   .     A
C783   C787    1.400   .     A
C783   C789    1.397   .     A
C784   C792    1.403   .     A
C784   C786    1.398   .     A
C784   H816    1.082   .     S
C785   C794    1.402   .     A
C785   C787    1.390   .     A
C785   H817    1.082   .     S
C786   H815    1.081   .     S
C787   H814    1.083   .     S
C788   C790    1.394   .     A
C788   H813    1.081   .     S
C789   H812    1.079   .     S
C789   C791    1.395   .     A
C790   C792    1.412   .     A
C790   C795    1.409   .     A
C791   C796    1.416   .     A
C791   C794    1.417   .     A
C792   C168    1.396   1_556 S
C793   C798    1.398   .     A
C793   I819    2.134   .     S
C793   C796    1.425   .     A
C795   C797    1.420   .     A
C795   C166    1.412   1_556 S
C797   C799    1.389   .     A
C797   I820    2.134   .     S
C798   H803    1.084   .     S
C799   H811    1.077   .     S
C799   C164    1.391   1_556 S
C800   S837    1.776   .     S
C800   C1012   1.378   .     S
C801   S838    1.772   .     S
C801   C1192   1.372   1_545 S
C802   H818    1.084   .     S
C802   C1220   1.378   1_545 S
H809   O825    0.991   .     S
H810   O828    0.991   .     S
N821   Zn839   2.011   .     S
N822   Zn840   2.011   .     S
O823   Zn839   1.994   .     S
O824   S837    1.504   .     D
O825   S837    1.681   .     S
O826   S838    1.502   .     D
O827   S838    1.504   .     D
O828   S838    1.673   .     S
O829   Zn840   1.994   .     S
O830   Zn840   2.003   .     S
O831   Zn839   2.003   .     S
O832   Zn839   1.944   .     S
O833   Zn840   1.944   .     S
O834   Zn840   1.913   .     S
O835   Zn839   1.913   .     S
O836   S837    1.502   .     D
C841   C844    1.417   .     S
C841   O900    1.281   .     A
C841   O893    1.284   .     A
C842   C844    1.392   .     A
C842   H874    1.084   .     S
C842   C1081   1.372   .     S
C843   C871    1.410   .     A
C843   C872    1.397   .     A
C843   C852    1.422   .     S
C844   C870    1.407   .     A
C845   N892    1.366   .     A
C845   H875    1.082   .     S
C845   C917    1.417   .     S
C846   N891    1.366   .     A
C846   H876    1.082   .     S
C846   C988    1.417   1_455 S
C847   H877    1.081   .     S
C847   N891    1.366   .     A
C847   C985    1.417   1_455 S
C848   N892    1.367   .     A
C848   H878    1.082   .     S
C848   C916    1.417   .     S
C849   O904    1.293   .     A
C849   C851    1.466   .     S
C849   O902    1.298   .     A
C850   O903    1.293   .     A
C850   C853    1.458   .     S
C850   O905    1.294   .     A
C851   C858    1.393   .     A
C851   C856    1.399   .     A
C852   O901    1.280   .     A
C852   O899    1.288   .     A
C853   C857    1.400   .     A
C853   C859    1.397   .     A
C854   C862    1.403   .     A
C854   C856    1.398   .     A
C854   H886    1.082   .     S
C855   C864    1.402   .     A
C855   C857    1.390   .     A
C855   H887    1.082   .     S
C856   H885    1.081   .     S
C857   H884    1.083   .     S
C858   C860    1.394   .     A
C858   H883    1.081   .     S
C859   H882    1.079   .     S
C859   C861    1.395   .     A
C860   C862    1.412   .     A
C860   C865    1.409   .     A
C861   C866    1.416   .     A
C861   C864    1.417   .     A
C862   C238    1.396   1_556 S
C863   C868    1.398   .     A
C863   I889    2.134   .     S
C863   C866    1.425   .     A
C865   C867    1.420   .     A
C865   C236    1.412   1_556 S
C867   C869    1.389   .     A
C867   I890    2.134   .     S
C868   H873    1.084   .     S
C869   H881    1.077   .     S
C869   C234    1.391   1_556 S
C870   S907    1.776   .     S
C870   C1082   1.378   .     S
C871   S908    1.772   .     S
C872   H888    1.084   .     S
H879   O895    0.991   .     S
H880   O898    0.991   .     S
N891   Zn909   2.011   .     S
N892   Zn910   2.011   .     S
O893   Zn909   1.994   .     S
O894   S907    1.504   .     D
O895   S907    1.681   .     S
O896   S908    1.502   .     D
O897   S908    1.504   .     D
O898   S908    1.673   .     S
O899   Zn910   1.994   .     S
O900   Zn910   2.003   .     S
O901   Zn909   2.003   .     S
O902   Zn909   1.944   .     S
O903   Zn910   1.944   .     S
O904   Zn910   1.913   .     S
O905   Zn909   1.913   .     S
O906   S907    1.502   .     D
C911   C914    1.417   .     S
C911   O970    1.281   .     A
C911   O963    1.284   .     A
C912   C914    1.392   .     A
C912   H944    1.084   .     S
C912   C1151   1.372   .     S
C913   C941    1.410   .     A
C913   C942    1.397   .     A
C913   C922    1.422   .     S
C914   C940    1.407   .     A
C915   N962    1.366   .     A
C915   H945    1.082   .     S
C915   C987    1.417   .     S
C916   N961    1.366   .     A
C916   H946    1.082   .     S
C917   H947    1.081   .     S
C917   N961    1.366   .     A
C918   N962    1.367   .     A
C918   H948    1.082   .     S
C918   C986    1.417   .     S
C919   O974    1.293   .     A
C919   C921    1.466   .     S
C919   O972    1.298   .     A
C920   O973    1.293   .     A
C920   C923    1.458   .     S
C920   O975    1.294   .     A
C921   C928    1.393   .     A
C921   C926    1.399   .     A
C922   O971    1.280   .     A
C922   O969    1.288   .     A
C923   C927    1.400   .     A
C923   C929    1.397   .     A
C924   C932    1.403   .     A
C924   C926    1.398   .     A
C924   H956    1.082   .     S
C925   C934    1.402   .     A
C925   C927    1.390   .     A
C925   H957    1.082   .     S
C926   H955    1.081   .     S
C927   H954    1.083   .     S
C928   C930    1.394   .     A
C928   H953    1.081   .     S
C929   H952    1.079   .     S
C929   C931    1.395   .     A
C930   C932    1.412   .     A
C930   C935    1.409   .     A
C931   C936    1.416   .     A
C931   C934    1.417   .     A
C932   C308    1.396   1_556 S
C933   C938    1.398   .     A
C933   I959    2.134   .     S
C933   C936    1.425   .     A
C935   C937    1.420   .     A
C935   C306    1.412   1_556 S
C937   C939    1.389   .     A
C937   I960    2.134   .     S
C938   H943    1.084   .     S
C939   H951    1.077   .     S
C939   C304    1.391   1_556 S
C940   S977    1.776   .     S
C940   C1152   1.378   .     S
C941   S978    1.772   .     S
C942   H958    1.084   .     S
H949   O965    0.991   .     S
H950   O968    0.991   .     S
N961   Zn979   2.011   .     S
N962   Zn980   2.011   .     S
O963   Zn979   1.994   .     S
O964   S977    1.504   .     D
O965   S977    1.681   .     S
O966   S978    1.502   .     D
O967   S978    1.504   .     D
O968   S978    1.673   .     S
O969   Zn980   1.994   .     S
O970   Zn980   2.003   .     S
O971   Zn979   2.003   .     S
O972   Zn979   1.944   .     S
O973   Zn980   1.944   .     S
O974   Zn980   1.913   .     S
O975   Zn979   1.913   .     S
O976   S977    1.502   .     D
C981   C984    1.417   .     S
C981   O1040   1.281   .     A
C981   O1033   1.284   .     A
C982   C984    1.392   .     A
C982   H1014   1.084   .     S
C982   C1221   1.372   .     S
C983   C1011   1.410   .     A
C983   C1012   1.397   .     A
C983   C992    1.422   .     S
C984   C1010   1.407   .     A
C985   N1032   1.366   .     A
C985   H1015   1.082   .     S
C985   C847    1.417   1_655 S
C986   N1031   1.366   .     A
C986   H1016   1.082   .     S
C987   H1017   1.081   .     S
C987   N1031   1.366   .     A
C988   N1032   1.367   .     A
C988   H1018   1.082   .     S
C988   C846    1.417   1_655 S
C989   O1044   1.293   .     A
C989   C991    1.466   .     S
C989   O1042   1.298   .     A
C990   O1043   1.293   .     A
C990   C993    1.458   .     S
C990   O1045   1.294   .     A
C991   C998    1.393   .     A
C991   C996    1.399   .     A
C992   O1041   1.280   .     A
C992   O1039   1.288   .     A
C993   C997    1.400   .     A
C993   C999    1.397   .     A
C994   C1002   1.403   .     A
C994   C996    1.398   .     A
C994   H1026   1.082   .     S
C995   C1004   1.402   .     A
C995   C997    1.390   .     A
C995   H1027   1.082   .     S
C996   H1025   1.081   .     S
C997   H1024   1.083   .     S
C998   C1000   1.394   .     A
C998   H1023   1.081   .     S
C999   H1022   1.079   .     S
C999   C1001   1.395   .     A
C1000  C1002   1.412   .     A
C1000  C1005   1.409   .     A
C1001  C1006   1.416   .     A
C1001  C1004   1.417   .     A
C1002  C378    1.396   1_556 S
C1003  C1008   1.398   .     A
C1003  I1029   2.134   .     S
C1003  C1006   1.425   .     A
C1005  C1007   1.420   .     A
C1005  C376    1.412   1_556 S
C1007  C1009   1.389   .     A
C1007  I1030   2.134   .     S
C1008  H1013   1.084   .     S
C1009  H1021   1.077   .     S
C1009  C374    1.391   1_556 S
C1010  S1047   1.776   .     S
C1010  C1222   1.378   .     S
C1011  S1048   1.772   .     S
C1012  H1028   1.084   .     S
H1019  O1035   0.991   .     S
H1020  O1038   0.991   .     S
N1031  Zn1049  2.011   .     S
N1032  Zn1050  2.011   .     S
O1033  Zn1049  1.994   .     S
O1034  S1047   1.504   .     D
O1035  S1047   1.681   .     S
O1036  S1048   1.502   .     D
O1037  S1048   1.504   .     D
O1038  S1048   1.673   .     S
O1039  Zn1050  1.994   .     S
O1040  Zn1050  2.003   .     S
O1041  Zn1049  2.003   .     S
O1042  Zn1049  1.944   .     S
O1043  Zn1050  1.944   .     S
O1044  Zn1050  1.913   .     S
O1045  Zn1049  1.913   .     S
O1046  S1047   1.502   .     D
C1051  C1054   1.417   .     S
C1051  O1110   1.281   .     A
C1051  O1103   1.284   .     A
C1052  C1054   1.392   .     A
C1052  H1084   1.084   .     S
C1052  C661    1.372   1_565 S
C1053  C1081   1.410   .     A
C1053  C1082   1.397   .     A
C1053  C1062   1.422   .     S
C1054  C1080   1.407   .     A
C1055  N1102   1.366   .     A
C1055  H1085   1.082   .     S
C1055  C1127   1.417   .     S
C1056  N1101   1.366   .     A
C1056  H1086   1.082   .     S
C1056  C1198   1.417   1_455 S
C1057  H1087   1.081   .     S
C1057  N1101   1.366   .     A
C1057  C1195   1.417   1_455 S
C1058  N1102   1.367   .     A
C1058  H1088   1.082   .     S
C1058  C1126   1.417   .     S
C1059  O1114   1.293   .     A
C1059  C1061   1.466   .     S
C1059  O1112   1.298   .     A
C1060  O1113   1.293   .     A
C1060  C1063   1.458   .     S
C1060  O1115   1.294   .     A
C1061  C1068   1.393   .     A
C1061  C1066   1.399   .     A
C1062  O1111   1.280   .     A
C1062  O1109   1.288   .     A
C1063  C1067   1.400   .     A
C1063  C1069   1.397   .     A
C1064  C1072   1.403   .     A
C1064  C1066   1.398   .     A
C1064  H1096   1.082   .     S
C1065  C1074   1.402   .     A
C1065  C1067   1.390   .     A
C1065  H1097   1.082   .     S
C1066  H1095   1.081   .     S
C1067  H1094   1.083   .     S
C1068  C1070   1.394   .     A
C1068  H1093   1.081   .     S
C1069  H1092   1.079   .     S
C1069  C1071   1.395   .     A
C1070  C1072   1.412   .     A
C1070  C1075   1.409   .     A
C1071  C1076   1.416   .     A
C1071  C1074   1.417   .     A
C1072  C448    1.396   1_556 S
C1073  C1078   1.398   .     A
C1073  I1099   2.134   .     S
C1073  C1076   1.425   .     A
C1075  C1077   1.420   .     A
C1075  C446    1.412   1_556 S
C1077  C1079   1.389   .     A
C1077  I1100   2.134   .     S
C1078  H1083   1.084   .     S
C1079  H1091   1.077   .     S
C1079  C444    1.391   1_556 S
C1080  S1117   1.776   .     S
C1080  C662    1.378   1_565 S
C1081  S1118   1.772   .     S
C1082  H1098   1.084   .     S
H1089  O1105   0.991   .     S
H1090  O1108   0.991   .     S
N1101  Zn1119  2.011   .     S
N1102  Zn1120  2.011   .     S
O1103  Zn1119  1.994   .     S
O1104  S1117   1.504   .     D
O1105  S1117   1.681   .     S
O1106  S1118   1.502   .     D
O1107  S1118   1.504   .     D
O1108  S1118   1.673   .     S
O1109  Zn1120  1.994   .     S
O1110  Zn1120  2.003   .     S
O1111  Zn1119  2.003   .     S
O1112  Zn1119  1.944   .     S
O1113  Zn1120  1.944   .     S
O1114  Zn1120  1.913   .     S
O1115  Zn1119  1.913   .     S
O1116  S1117   1.502   .     D
C1121  C1124   1.417   .     S
C1121  O1180   1.281   .     A
C1121  O1173   1.284   .     A
C1122  C1124   1.392   .     A
C1122  H1154   1.084   .     S
C1122  C731    1.372   1_565 S
C1123  C1151   1.410   .     A
C1123  C1152   1.397   .     A
C1123  C1132   1.422   .     S
C1124  C1150   1.407   .     A
C1125  N1172   1.366   .     A
C1125  H1155   1.082   .     S
C1125  C1197   1.417   .     S
C1126  N1171   1.366   .     A
C1126  H1156   1.082   .     S
C1127  H1157   1.081   .     S
C1127  N1171   1.366   .     A
C1128  N1172   1.367   .     A
C1128  H1158   1.082   .     S
C1128  C1196   1.417   .     S
C1129  O1184   1.293   .     A
C1129  C1131   1.466   .     S
C1129  O1182   1.298   .     A
C1130  O1183   1.293   .     A
C1130  C1133   1.458   .     S
C1130  O1185   1.294   .     A
C1131  C1138   1.393   .     A
C1131  C1136   1.399   .     A
C1132  O1181   1.280   .     A
C1132  O1179   1.288   .     A
C1133  C1137   1.400   .     A
C1133  C1139   1.397   .     A
C1134  C1142   1.403   .     A
C1134  C1136   1.398   .     A
C1134  H1166   1.082   .     S
C1135  C1144   1.402   .     A
C1135  C1137   1.390   .     A
C1135  H1167   1.082   .     S
C1136  H1165   1.081   .     S
C1137  H1164   1.083   .     S
C1138  C1140   1.394   .     A
C1138  H1163   1.081   .     S
C1139  H1162   1.079   .     S
C1139  C1141   1.395   .     A
C1140  C1142   1.412   .     A
C1140  C1145   1.409   .     A
C1141  C1146   1.416   .     A
C1141  C1144   1.417   .     A
C1142  C518    1.396   1_556 S
C1143  C1148   1.398   .     A
C1143  I1169   2.134   .     S
C1143  C1146   1.425   .     A
C1145  C1147   1.420   .     A
C1145  C516    1.412   1_556 S
C1147  C1149   1.389   .     A
C1147  I1170   2.134   .     S
C1148  H1153   1.084   .     S
C1149  H1161   1.077   .     S
C1149  C514    1.391   1_556 S
C1150  S1187   1.776   .     S
C1150  C732    1.378   1_565 S
C1151  S1188   1.772   .     S
C1152  H1168   1.084   .     S
H1159  O1175   0.991   .     S
H1160  O1178   0.991   .     S
N1171  Zn1189  2.011   .     S
N1172  Zn1190  2.011   .     S
O1173  Zn1189  1.994   .     S
O1174  S1187   1.504   .     D
O1175  S1187   1.681   .     S
O1176  S1188   1.502   .     D
O1177  S1188   1.504   .     D
O1178  S1188   1.673   .     S
O1179  Zn1190  1.994   .     S
O1180  Zn1190  2.003   .     S
O1181  Zn1189  2.003   .     S
O1182  Zn1189  1.944   .     S
O1183  Zn1190  1.944   .     S
O1184  Zn1190  1.913   .     S
O1185  Zn1189  1.913   .     S
O1186  S1187   1.502   .     D
C1191  C1194   1.417   .     S
C1191  O1250   1.281   .     A
C1191  O1243   1.284   .     A
C1192  C1194   1.392   .     A
C1192  H1224   1.084   .     S
C1192  C801    1.372   1_565 S
C1193  C1221   1.410   .     A
C1193  C1222   1.397   .     A
C1193  C1202   1.422   .     S
C1194  C1220   1.407   .     A
C1195  N1242   1.366   .     A
C1195  H1225   1.082   .     S
C1195  C1057   1.417   1_655 S
C1196  N1241   1.366   .     A
C1196  H1226   1.082   .     S
C1197  H1227   1.081   .     S
C1197  N1241   1.366   .     A
C1198  N1242   1.367   .     A
C1198  H1228   1.082   .     S
C1198  C1056   1.417   1_655 S
C1199  O1254   1.293   .     A
C1199  C1201   1.466   .     S
C1199  O1252   1.298   .     A
C1200  O1253   1.293   .     A
C1200  C1203   1.458   .     S
C1200  O1255   1.294   .     A
C1201  C1208   1.393   .     A
C1201  C1206   1.399   .     A
C1202  O1251   1.280   .     A
C1202  O1249   1.288   .     A
C1203  C1207   1.400   .     A
C1203  C1209   1.397   .     A
C1204  C1212   1.403   .     A
C1204  C1206   1.398   .     A
C1204  H1236   1.082   .     S
C1205  C1214   1.402   .     A
C1205  C1207   1.390   .     A
C1205  H1237   1.082   .     S
C1206  H1235   1.081   .     S
C1207  H1234   1.083   .     S
C1208  C1210   1.394   .     A
C1208  H1233   1.081   .     S
C1209  H1232   1.079   .     S
C1209  C1211   1.395   .     A
C1210  C1212   1.412   .     A
C1210  C1215   1.409   .     A
C1211  C1216   1.416   .     A
C1211  C1214   1.417   .     A
C1212  C588    1.396   1_556 S
C1213  C1218   1.398   .     A
C1213  I1239   2.134   .     S
C1213  C1216   1.425   .     A
C1215  C1217   1.420   .     A
C1215  C586    1.412   1_556 S
C1217  C1219   1.389   .     A
C1217  I1240   2.134   .     S
C1218  H1223   1.084   .     S
C1219  H1231   1.077   .     S
C1219  C584    1.391   1_556 S
C1220  S1257   1.776   .     S
C1220  C802    1.378   1_565 S
C1221  S1258   1.772   .     S
C1222  H1238   1.084   .     S
H1229  O1245   0.991   .     S
H1230  O1248   0.991   .     S
N1241  Zn1259  2.011   .     S
N1242  Zn1260  2.011   .     S
O1243  Zn1259  1.994   .     S
O1244  S1257   1.504   .     D
O1245  S1257   1.681   .     S
O1246  S1258   1.502   .     D
O1247  S1258   1.504   .     D
O1248  S1258   1.673   .     S
O1249  Zn1260  1.994   .     S
O1250  Zn1260  2.003   .     S
O1251  Zn1259  2.003   .     S
O1252  Zn1259  1.944   .     S
O1253  Zn1260  1.944   .     S
O1254  Zn1260  1.913   .     S
O1255  Zn1259  1.913   .     S
O1256  S1257   1.502   .     D
