data_str_m3_o1_o16_pcu_sym.38
_audit_creation_date              2020-01-03
_audit_creation_method            'Materials Studio'
_symmetry_space_group_name_H-M    'P1'
_symmetry_Int_Tables_number       1
_symmetry_cell_setting            triclinic
loop_
_symmetry_equiv_pos_as_xyz
  x,y,z
_cell_length_a                    29.7021
_cell_length_b                    31.8538
_cell_length_c                    26.1750
_cell_angle_alpha                 90.6125
_cell_angle_beta                  69.7126
_cell_angle_gamma                 89.7809
loop_
_atom_site_label
_atom_site_type_symbol
_atom_site_fract_x
_atom_site_fract_y
_atom_site_fract_z
_atom_site_U_iso_or_equiv
_atom_site_adp_type
_atom_site_occupancy
C1     C     0.16642   0.24647   0.25063   0.00000  Uiso   1.00
C2     C     0.12203   0.15884   0.41132   0.00000  Uiso   1.00
C3     C     0.19316   0.31106   0.20543   0.00000  Uiso   1.00
C4     C     0.13987   0.16416   0.35215   0.00000  Uiso   1.00
C5     C     0.19282   0.02071   0.20490   0.00000  Uiso   1.00
C6     C     0.16583   0.04268   0.25192   0.00000  Uiso   1.00
C7     C     0.13750   0.02243   0.29962   0.00000  Uiso   1.00
C8     C     0.13744   0.31212   0.29985   0.00000  Uiso   1.00
C9     C     0.16567   0.29059   0.25244   0.00000  Uiso   1.00
C10    C     0.31967   0.13989   0.21654   0.00000  Uiso   1.00
C11    C     0.03437   0.13988   0.21652   0.00000  Uiso   1.00
C12    C     0.14331   0.15566   0.49247   0.00000  Uiso   1.00
C13    C     0.01379   0.19325   0.28343   0.00000  Uiso   1.00
C14    C     0.29932   0.19336   0.28350   0.00000  Uiso   1.00
C15    C     0.16663   0.08683   0.25007   0.00000  Uiso   1.00
C16    C     0.19344   0.16697   0.14771   0.00000  Uiso   1.00
C17    C     0.25895   0.12400   0.00820   0.00000  Uiso   1.00
C18    C     0.20991   0.16185   0.08881   0.00000  Uiso   1.00
C19    C     0.07554   0.17292   0.44280   0.00000  Uiso   1.00
C20    C     0.06215   0.17572   0.49912   0.00000  Uiso   1.00
C21    C     0.09594   0.16830   0.02385   0.00000  Uiso   1.00
C22    C     0.10893   0.04619   0.34765   0.00000  Uiso   1.00
C23    C     0.15333   0.14424   0.43753   0.00000  Uiso   1.00
C24    C     0.10952   0.28958   0.34832   0.00000  Uiso   1.00
C25    C     0.30660   0.11121   0.18125   0.00000  Uiso   1.00
C26    C     0.06955   0.11136   0.18092   0.00000  Uiso   1.00
C27    C     0.26513   0.22210   0.31950   0.00000  Uiso   1.00
C28    C     0.18060   0.15247   0.01419   0.00000  Uiso   1.00
C29    C     0.22303   0.12948   0.48538   0.00000  Uiso   1.00
C30    C     0.22845   0.11151   0.43484   0.00000  Uiso   1.00
C31    C     0.19407   0.11863   0.41095   0.00000  Uiso   1.00
C32    C     0.17754   0.17229   0.06316   0.00000  Uiso   1.00
C33    C     0.25179   0.13923   0.06054   0.00000  Uiso   1.00
F34    F     0.21722   0.04092   0.15815   0.00000  Uiso   1.00
F35    F     0.14404   0.20260   0.08622   0.00000  Uiso   1.00
F36    F     0.04328   0.18463   0.41935   0.00000  Uiso   1.00
F37    F     0.19894   0.09747   0.36402   0.00000  Uiso   1.00
H38    H     0.27785   0.13195   0.07949   0.00000  Uiso   1.00
H39    H     0.02394   0.21446   0.31013   0.00000  Uiso   1.00
H40    H     0.25952   0.09213   0.41354   0.00000  Uiso   1.00
H41    H     0.29138   0.10632   0.48670   0.00000  Uiso   1.00
H42    H     0.08372   0.17082   0.06772   0.00000  Uiso   1.00
H43    H     0.02603   0.18540   0.02355   0.00000  Uiso   1.00
H44    H     0.21401   0.29364   0.16901   0.00000  Uiso   1.00
N45    N     0.04760   0.16668   0.25002   0.00000  Uiso   1.00
N46    N     0.28573   0.16665   0.25001   0.00000  Uiso   1.00
N47    N     0.08604   0.06502   0.38597   0.00000  Uiso   1.00
N48    N     0.08728   0.27167   0.38701   0.00000  Uiso   1.00
N49    N     0.29695   0.08778   0.15270   0.00000  Uiso   1.00
N50    N     0.09754   0.08842   0.15221   0.00000  Uiso   1.00
N51    N     0.23776   0.24528   0.34859   0.00000  Uiso   1.00
O52    O     0.12846   0.22775   0.25001   0.00000  Uiso   1.00
O53    O     0.20490   0.22774   0.25001   0.00000  Uiso   1.00
O54    O     0.10947   0.16666   0.32681   0.00000  Uiso   1.00
O55    O     0.18591   0.16665   0.32681   0.00000  Uiso   1.00
O56    O     0.12843   0.10559   0.25000   0.00000  Uiso   1.00
O57    O     0.20488   0.10558   0.25000   0.00000  Uiso   1.00
O58    O     0.14742   0.16668   0.17319   0.00000  Uiso   1.00
O59    O     0.22387   0.16667   0.17319   0.00000  Uiso   1.00
Zn60   Zn    0.11562   0.16667   0.25000   0.00000  Uiso   1.00
Zn61   Zn    0.21771   0.16666   0.25000   0.00000  Uiso   1.00
C62    C     0.49975   0.24647   0.25063   0.00000  Uiso   1.00
C63    C     0.45536   0.15884   0.41132   0.00000  Uiso   1.00
C64    C     0.52649   0.31106   0.20543   0.00000  Uiso   1.00
C65    C     0.47320   0.16416   0.35215   0.00000  Uiso   1.00
C66    C     0.52615   0.02071   0.20490   0.00000  Uiso   1.00
C67    C     0.49916   0.04268   0.25192   0.00000  Uiso   1.00
C68    C     0.47084   0.02243   0.29962   0.00000  Uiso   1.00
C69    C     0.47078   0.31212   0.29985   0.00000  Uiso   1.00
C70    C     0.49900   0.29059   0.25244   0.00000  Uiso   1.00
C71    C     0.65301   0.13989   0.21654   0.00000  Uiso   1.00
C72    C     0.36770   0.13988   0.21652   0.00000  Uiso   1.00
C73    C     0.47665   0.15566   0.49247   0.00000  Uiso   1.00
C74    C     0.34713   0.19325   0.28343   0.00000  Uiso   1.00
C75    C     0.63265   0.19336   0.28350   0.00000  Uiso   1.00
C76    C     0.49996   0.08683   0.25007   0.00000  Uiso   1.00
C77    C     0.52677   0.16697   0.14771   0.00000  Uiso   1.00
C78    C     0.59228   0.12400   0.00820   0.00000  Uiso   1.00
C79    C     0.54324   0.16185   0.08881   0.00000  Uiso   1.00
C80    C     0.40887   0.17292   0.44280   0.00000  Uiso   1.00
C81    C     0.39548   0.17572   0.49912   0.00000  Uiso   1.00
C82    C     0.42927   0.16830   0.02385   0.00000  Uiso   1.00
C83    C     0.44226   0.04619   0.34765   0.00000  Uiso   1.00
C84    C     0.48666   0.14424   0.43753   0.00000  Uiso   1.00
C85    C     0.44286   0.28958   0.34832   0.00000  Uiso   1.00
C86    C     0.63993   0.11121   0.18125   0.00000  Uiso   1.00
C87    C     0.40289   0.11136   0.18092   0.00000  Uiso   1.00
C88    C     0.59847   0.22210   0.31950   0.00000  Uiso   1.00
C89    C     0.51393   0.15247   0.01419   0.00000  Uiso   1.00
C90    C     0.55636   0.12948   0.48538   0.00000  Uiso   1.00
C91    C     0.56178   0.11151   0.43484   0.00000  Uiso   1.00
C92    C     0.52740   0.11863   0.41095   0.00000  Uiso   1.00
C93    C     0.51087   0.17229   0.06316   0.00000  Uiso   1.00
C94    C     0.58512   0.13923   0.06054   0.00000  Uiso   1.00
F95    F     0.55055   0.04092   0.15815   0.00000  Uiso   1.00
F96    F     0.47737   0.20260   0.08622   0.00000  Uiso   1.00
F97    F     0.37661   0.18463   0.41935   0.00000  Uiso   1.00
F98    F     0.53227   0.09747   0.36402   0.00000  Uiso   1.00
H99    H     0.61118   0.13195   0.07949   0.00000  Uiso   1.00
H100   H     0.35728   0.21446   0.31013   0.00000  Uiso   1.00
H101   H     0.59285   0.09213   0.41354   0.00000  Uiso   1.00
H102   H     0.62471   0.10632   0.48670   0.00000  Uiso   1.00
H103   H     0.41705   0.17082   0.06772   0.00000  Uiso   1.00
H104   H     0.35936   0.18540   0.02355   0.00000  Uiso   1.00
H105   H     0.54735   0.29364   0.16901   0.00000  Uiso   1.00
N106   N     0.38093   0.16668   0.25002   0.00000  Uiso   1.00
N107   N     0.61906   0.16665   0.25001   0.00000  Uiso   1.00
N108   N     0.41937   0.06502   0.38597   0.00000  Uiso   1.00
N109   N     0.42061   0.27167   0.38701   0.00000  Uiso   1.00
N110   N     0.63029   0.08778   0.15270   0.00000  Uiso   1.00
N111   N     0.43087   0.08842   0.15221   0.00000  Uiso   1.00
N112   N     0.57109   0.24528   0.34859   0.00000  Uiso   1.00
O113   O     0.46179   0.22775   0.25001   0.00000  Uiso   1.00
O114   O     0.53823   0.22774   0.25001   0.00000  Uiso   1.00
O115   O     0.44280   0.16666   0.32681   0.00000  Uiso   1.00
O116   O     0.51924   0.16665   0.32681   0.00000  Uiso   1.00
O117   O     0.46177   0.10559   0.25000   0.00000  Uiso   1.00
O118   O     0.53821   0.10558   0.25000   0.00000  Uiso   1.00
O119   O     0.48076   0.16668   0.17319   0.00000  Uiso   1.00
O120   O     0.55720   0.16667   0.17319   0.00000  Uiso   1.00
Zn121  Zn    0.44896   0.16667   0.25000   0.00000  Uiso   1.00
Zn122  Zn    0.55104   0.16666   0.25000   0.00000  Uiso   1.00
C123   C     0.83308   0.24647   0.25063   0.00000  Uiso   1.00
C124   C     0.78869   0.15884   0.41132   0.00000  Uiso   1.00
C125   C     0.85983   0.31106   0.20543   0.00000  Uiso   1.00
C126   C     0.80654   0.16416   0.35215   0.00000  Uiso   1.00
C127   C     0.85949   0.02071   0.20490   0.00000  Uiso   1.00
C128   C     0.83250   0.04268   0.25192   0.00000  Uiso   1.00
C129   C     0.80417   0.02243   0.29962   0.00000  Uiso   1.00
C130   C     0.80411   0.31212   0.29985   0.00000  Uiso   1.00
C131   C     0.83233   0.29059   0.25244   0.00000  Uiso   1.00
C132   C     0.98634   0.13989   0.21654   0.00000  Uiso   1.00
C133   C     0.70103   0.13988   0.21652   0.00000  Uiso   1.00
C134   C     0.80998   0.15566   0.49247   0.00000  Uiso   1.00
C135   C     0.68046   0.19325   0.28343   0.00000  Uiso   1.00
C136   C     0.96599   0.19336   0.28350   0.00000  Uiso   1.00
C137   C     0.83330   0.08683   0.25007   0.00000  Uiso   1.00
C138   C     0.86011   0.16697   0.14771   0.00000  Uiso   1.00
C139   C     0.92562   0.12400   0.00820   0.00000  Uiso   1.00
C140   C     0.87658   0.16185   0.08881   0.00000  Uiso   1.00
C141   C     0.74220   0.17292   0.44280   0.00000  Uiso   1.00
C142   C     0.72882   0.17572   0.49912   0.00000  Uiso   1.00
C143   C     0.76260   0.16830   0.02385   0.00000  Uiso   1.00
C144   C     0.77560   0.04619   0.34765   0.00000  Uiso   1.00
C145   C     0.81999   0.14424   0.43753   0.00000  Uiso   1.00
C146   C     0.77619   0.28958   0.34832   0.00000  Uiso   1.00
C147   C     0.97326   0.11121   0.18125   0.00000  Uiso   1.00
C148   C     0.73622   0.11136   0.18092   0.00000  Uiso   1.00
C149   C     0.93180   0.22210   0.31950   0.00000  Uiso   1.00
C150   C     0.84727   0.15247   0.01419   0.00000  Uiso   1.00
C151   C     0.88970   0.12948   0.48538   0.00000  Uiso   1.00
C152   C     0.89512   0.11151   0.43484   0.00000  Uiso   1.00
C153   C     0.86073   0.11863   0.41095   0.00000  Uiso   1.00
C154   C     0.84421   0.17229   0.06316   0.00000  Uiso   1.00
C155   C     0.91846   0.13923   0.06054   0.00000  Uiso   1.00
F156   F     0.88388   0.04092   0.15815   0.00000  Uiso   1.00
F157   F     0.81070   0.20260   0.08622   0.00000  Uiso   1.00
F158   F     0.70995   0.18463   0.41935   0.00000  Uiso   1.00
F159   F     0.86561   0.09747   0.36402   0.00000  Uiso   1.00
H160   H     0.94452   0.13195   0.07949   0.00000  Uiso   1.00
H161   H     0.69061   0.21446   0.31013   0.00000  Uiso   1.00
H162   H     0.92619   0.09213   0.41354   0.00000  Uiso   1.00
H163   H     0.95804   0.10632   0.48670   0.00000  Uiso   1.00
H164   H     0.75039   0.17082   0.06772   0.00000  Uiso   1.00
H165   H     0.69270   0.18540   0.02355   0.00000  Uiso   1.00
H166   H     0.88068   0.29364   0.16901   0.00000  Uiso   1.00
N167   N     0.71426   0.16668   0.25002   0.00000  Uiso   1.00
N168   N     0.95239   0.16665   0.25001   0.00000  Uiso   1.00
N169   N     0.75270   0.06502   0.38597   0.00000  Uiso   1.00
N170   N     0.75394   0.27167   0.38701   0.00000  Uiso   1.00
N171   N     0.96362   0.08778   0.15270   0.00000  Uiso   1.00
N172   N     0.76421   0.08842   0.15221   0.00000  Uiso   1.00
N173   N     0.90443   0.24528   0.34859   0.00000  Uiso   1.00
O174   O     0.79512   0.22775   0.25001   0.00000  Uiso   1.00
O175   O     0.87157   0.22774   0.25001   0.00000  Uiso   1.00
O176   O     0.77613   0.16666   0.32681   0.00000  Uiso   1.00
O177   O     0.85258   0.16665   0.32681   0.00000  Uiso   1.00
O178   O     0.79510   0.10559   0.25000   0.00000  Uiso   1.00
O179   O     0.87154   0.10558   0.25000   0.00000  Uiso   1.00
O180   O     0.81409   0.16668   0.17319   0.00000  Uiso   1.00
O181   O     0.89053   0.16667   0.17319   0.00000  Uiso   1.00
Zn182  Zn    0.78229   0.16667   0.25000   0.00000  Uiso   1.00
Zn183  Zn    0.88438   0.16666   0.25000   0.00000  Uiso   1.00
C184   C     0.16642   0.57980   0.25063   0.00000  Uiso   1.00
C185   C     0.12203   0.49218   0.41132   0.00000  Uiso   1.00
C186   C     0.19316   0.64439   0.20543   0.00000  Uiso   1.00
C187   C     0.13987   0.49749   0.35215   0.00000  Uiso   1.00
C188   C     0.19282   0.35405   0.20490   0.00000  Uiso   1.00
C189   C     0.16583   0.37601   0.25192   0.00000  Uiso   1.00
C190   C     0.13750   0.35576   0.29962   0.00000  Uiso   1.00
C191   C     0.13744   0.64545   0.29985   0.00000  Uiso   1.00
C192   C     0.16567   0.62392   0.25244   0.00000  Uiso   1.00
C193   C     0.31967   0.47323   0.21654   0.00000  Uiso   1.00
C194   C     0.03437   0.47321   0.21652   0.00000  Uiso   1.00
C195   C     0.14331   0.48900   0.49247   0.00000  Uiso   1.00
C196   C     0.01379   0.52658   0.28343   0.00000  Uiso   1.00
C197   C     0.29932   0.52670   0.28350   0.00000  Uiso   1.00
C198   C     0.16663   0.42017   0.25007   0.00000  Uiso   1.00
C199   C     0.19344   0.50030   0.14771   0.00000  Uiso   1.00
C200   C     0.25895   0.45734   0.00820   0.00000  Uiso   1.00
C201   C     0.20991   0.49518   0.08881   0.00000  Uiso   1.00
C202   C     0.07554   0.50626   0.44280   0.00000  Uiso   1.00
C203   C     0.06215   0.50905   0.49912   0.00000  Uiso   1.00
C204   C     0.09594   0.50163   0.02385   0.00000  Uiso   1.00
C205   C     0.10893   0.37952   0.34765   0.00000  Uiso   1.00
C206   C     0.15333   0.47758   0.43753   0.00000  Uiso   1.00
C207   C     0.10952   0.62292   0.34832   0.00000  Uiso   1.00
C208   C     0.30660   0.44455   0.18125   0.00000  Uiso   1.00
C209   C     0.06955   0.44469   0.18092   0.00000  Uiso   1.00
C210   C     0.26513   0.55544   0.31950   0.00000  Uiso   1.00
C211   C     0.18060   0.48580   0.01419   0.00000  Uiso   1.00
C212   C     0.22303   0.46281   0.48538   0.00000  Uiso   1.00
C213   C     0.22845   0.44484   0.43484   0.00000  Uiso   1.00
C214   C     0.19407   0.45196   0.41095   0.00000  Uiso   1.00
C215   C     0.17754   0.50563   0.06316   0.00000  Uiso   1.00
C216   C     0.25179   0.47256   0.06054   0.00000  Uiso   1.00
F217   F     0.21722   0.37425   0.15815   0.00000  Uiso   1.00
F218   F     0.14404   0.53593   0.08622   0.00000  Uiso   1.00
F219   F     0.04328   0.51796   0.41935   0.00000  Uiso   1.00
F220   F     0.19894   0.43080   0.36402   0.00000  Uiso   1.00
H221   H     0.27785   0.46528   0.07949   0.00000  Uiso   1.00
H222   H     0.02394   0.54780   0.31013   0.00000  Uiso   1.00
H223   H     0.25952   0.42546   0.41354   0.00000  Uiso   1.00
H224   H     0.29138   0.43965   0.48670   0.00000  Uiso   1.00
H225   H     0.08372   0.50415   0.06772   0.00000  Uiso   1.00
H226   H     0.02603   0.51873   0.02355   0.00000  Uiso   1.00
H227   H     0.21401   0.62697   0.16901   0.00000  Uiso   1.00
N228   N     0.04760   0.50001   0.25002   0.00000  Uiso   1.00
N229   N     0.28573   0.49998   0.25001   0.00000  Uiso   1.00
N230   N     0.08604   0.39836   0.38597   0.00000  Uiso   1.00
N231   N     0.08728   0.60501   0.38701   0.00000  Uiso   1.00
N232   N     0.29695   0.42111   0.15270   0.00000  Uiso   1.00
N233   N     0.09754   0.42175   0.15221   0.00000  Uiso   1.00
N234   N     0.23776   0.57861   0.34859   0.00000  Uiso   1.00
O235   O     0.12846   0.56108   0.25001   0.00000  Uiso   1.00
O236   O     0.20490   0.56107   0.25001   0.00000  Uiso   1.00
O237   O     0.10947   0.50000   0.32681   0.00000  Uiso   1.00
O238   O     0.18591   0.49999   0.32681   0.00000  Uiso   1.00
O239   O     0.12843   0.43893   0.25000   0.00000  Uiso   1.00
O240   O     0.20488   0.43892   0.25000   0.00000  Uiso   1.00
O241   O     0.14742   0.50001   0.17319   0.00000  Uiso   1.00
O242   O     0.22387   0.50000   0.17319   0.00000  Uiso   1.00
Zn243  Zn    0.11562   0.50001   0.25000   0.00000  Uiso   1.00
Zn244  Zn    0.21771   0.49999   0.25000   0.00000  Uiso   1.00
C245   C     0.49975   0.57980   0.25063   0.00000  Uiso   1.00
C246   C     0.45536   0.49218   0.41132   0.00000  Uiso   1.00
C247   C     0.52649   0.64439   0.20543   0.00000  Uiso   1.00
C248   C     0.47320   0.49749   0.35215   0.00000  Uiso   1.00
C249   C     0.52615   0.35405   0.20490   0.00000  Uiso   1.00
C250   C     0.49916   0.37601   0.25192   0.00000  Uiso   1.00
C251   C     0.47084   0.35576   0.29962   0.00000  Uiso   1.00
C252   C     0.47078   0.64545   0.29985   0.00000  Uiso   1.00
C253   C     0.49900   0.62392   0.25244   0.00000  Uiso   1.00
C254   C     0.65301   0.47323   0.21654   0.00000  Uiso   1.00
C255   C     0.36770   0.47321   0.21652   0.00000  Uiso   1.00
C256   C     0.47665   0.48900   0.49247   0.00000  Uiso   1.00
C257   C     0.34713   0.52658   0.28343   0.00000  Uiso   1.00
C258   C     0.63265   0.52670   0.28350   0.00000  Uiso   1.00
C259   C     0.49996   0.42017   0.25007   0.00000  Uiso   1.00
C260   C     0.52677   0.50030   0.14771   0.00000  Uiso   1.00
C261   C     0.59228   0.45734   0.00820   0.00000  Uiso   1.00
C262   C     0.54324   0.49518   0.08881   0.00000  Uiso   1.00
C263   C     0.40887   0.50626   0.44280   0.00000  Uiso   1.00
C264   C     0.39548   0.50905   0.49912   0.00000  Uiso   1.00
C265   C     0.42927   0.50163   0.02385   0.00000  Uiso   1.00
C266   C     0.44226   0.37952   0.34765   0.00000  Uiso   1.00
C267   C     0.48666   0.47758   0.43753   0.00000  Uiso   1.00
C268   C     0.44286   0.62292   0.34832   0.00000  Uiso   1.00
C269   C     0.63993   0.44455   0.18125   0.00000  Uiso   1.00
C270   C     0.40289   0.44469   0.18092   0.00000  Uiso   1.00
C271   C     0.59847   0.55544   0.31950   0.00000  Uiso   1.00
C272   C     0.51393   0.48580   0.01419   0.00000  Uiso   1.00
C273   C     0.55636   0.46281   0.48538   0.00000  Uiso   1.00
C274   C     0.56178   0.44484   0.43484   0.00000  Uiso   1.00
C275   C     0.52740   0.45196   0.41095   0.00000  Uiso   1.00
C276   C     0.51087   0.50563   0.06316   0.00000  Uiso   1.00
C277   C     0.58512   0.47256   0.06054   0.00000  Uiso   1.00
F278   F     0.55055   0.37425   0.15815   0.00000  Uiso   1.00
F279   F     0.47737   0.53593   0.08622   0.00000  Uiso   1.00
F280   F     0.37661   0.51796   0.41935   0.00000  Uiso   1.00
F281   F     0.53227   0.43080   0.36402   0.00000  Uiso   1.00
H282   H     0.61118   0.46528   0.07949   0.00000  Uiso   1.00
H283   H     0.35728   0.54780   0.31013   0.00000  Uiso   1.00
H284   H     0.59285   0.42546   0.41354   0.00000  Uiso   1.00
H285   H     0.62471   0.43965   0.48670   0.00000  Uiso   1.00
H286   H     0.41705   0.50415   0.06772   0.00000  Uiso   1.00
H287   H     0.35936   0.51873   0.02355   0.00000  Uiso   1.00
H288   H     0.54735   0.62697   0.16901   0.00000  Uiso   1.00
N289   N     0.38093   0.50001   0.25002   0.00000  Uiso   1.00
N290   N     0.61906   0.49998   0.25001   0.00000  Uiso   1.00
N291   N     0.41937   0.39836   0.38597   0.00000  Uiso   1.00
N292   N     0.42061   0.60501   0.38701   0.00000  Uiso   1.00
N293   N     0.63029   0.42111   0.15270   0.00000  Uiso   1.00
N294   N     0.43087   0.42175   0.15221   0.00000  Uiso   1.00
N295   N     0.57109   0.57861   0.34859   0.00000  Uiso   1.00
O296   O     0.46179   0.56108   0.25001   0.00000  Uiso   1.00
O297   O     0.53823   0.56107   0.25001   0.00000  Uiso   1.00
O298   O     0.44280   0.50000   0.32681   0.00000  Uiso   1.00
O299   O     0.51924   0.49999   0.32681   0.00000  Uiso   1.00
O300   O     0.46177   0.43893   0.25000   0.00000  Uiso   1.00
O301   O     0.53821   0.43892   0.25000   0.00000  Uiso   1.00
O302   O     0.48076   0.50001   0.17319   0.00000  Uiso   1.00
O303   O     0.55720   0.50000   0.17319   0.00000  Uiso   1.00
Zn304  Zn    0.44896   0.50001   0.25000   0.00000  Uiso   1.00
Zn305  Zn    0.55104   0.49999   0.25000   0.00000  Uiso   1.00
C306   C     0.83308   0.57980   0.25063   0.00000  Uiso   1.00
C307   C     0.78869   0.49218   0.41132   0.00000  Uiso   1.00
C308   C     0.85983   0.64439   0.20543   0.00000  Uiso   1.00
C309   C     0.80654   0.49749   0.35215   0.00000  Uiso   1.00
C310   C     0.85949   0.35405   0.20490   0.00000  Uiso   1.00
C311   C     0.83250   0.37601   0.25192   0.00000  Uiso   1.00
C312   C     0.80417   0.35576   0.29962   0.00000  Uiso   1.00
C313   C     0.80411   0.64545   0.29985   0.00000  Uiso   1.00
C314   C     0.83233   0.62392   0.25244   0.00000  Uiso   1.00
C315   C     0.98634   0.47323   0.21654   0.00000  Uiso   1.00
C316   C     0.70103   0.47321   0.21652   0.00000  Uiso   1.00
C317   C     0.80998   0.48900   0.49247   0.00000  Uiso   1.00
C318   C     0.68046   0.52658   0.28343   0.00000  Uiso   1.00
C319   C     0.96599   0.52670   0.28350   0.00000  Uiso   1.00
C320   C     0.83330   0.42017   0.25007   0.00000  Uiso   1.00
C321   C     0.86011   0.50030   0.14771   0.00000  Uiso   1.00
C322   C     0.92562   0.45734   0.00820   0.00000  Uiso   1.00
C323   C     0.87658   0.49518   0.08881   0.00000  Uiso   1.00
C324   C     0.74220   0.50626   0.44280   0.00000  Uiso   1.00
C325   C     0.72882   0.50905   0.49912   0.00000  Uiso   1.00
C326   C     0.76260   0.50163   0.02385   0.00000  Uiso   1.00
C327   C     0.77560   0.37952   0.34765   0.00000  Uiso   1.00
C328   C     0.81999   0.47758   0.43753   0.00000  Uiso   1.00
C329   C     0.77619   0.62292   0.34832   0.00000  Uiso   1.00
C330   C     0.97326   0.44455   0.18125   0.00000  Uiso   1.00
C331   C     0.73622   0.44469   0.18092   0.00000  Uiso   1.00
C332   C     0.93180   0.55544   0.31950   0.00000  Uiso   1.00
C333   C     0.84727   0.48580   0.01419   0.00000  Uiso   1.00
C334   C     0.88970   0.46281   0.48538   0.00000  Uiso   1.00
C335   C     0.89512   0.44484   0.43484   0.00000  Uiso   1.00
C336   C     0.86073   0.45196   0.41095   0.00000  Uiso   1.00
C337   C     0.84421   0.50563   0.06316   0.00000  Uiso   1.00
C338   C     0.91846   0.47256   0.06054   0.00000  Uiso   1.00
F339   F     0.88388   0.37425   0.15815   0.00000  Uiso   1.00
F340   F     0.81070   0.53593   0.08622   0.00000  Uiso   1.00
F341   F     0.70995   0.51796   0.41935   0.00000  Uiso   1.00
F342   F     0.86561   0.43080   0.36402   0.00000  Uiso   1.00
H343   H     0.94452   0.46528   0.07949   0.00000  Uiso   1.00
H344   H     0.69061   0.54780   0.31013   0.00000  Uiso   1.00
H345   H     0.92619   0.42546   0.41354   0.00000  Uiso   1.00
H346   H     0.95804   0.43965   0.48670   0.00000  Uiso   1.00
H347   H     0.75039   0.50415   0.06772   0.00000  Uiso   1.00
H348   H     0.69270   0.51873   0.02355   0.00000  Uiso   1.00
H349   H     0.88068   0.62697   0.16901   0.00000  Uiso   1.00
N350   N     0.71426   0.50001   0.25002   0.00000  Uiso   1.00
N351   N     0.95239   0.49998   0.25001   0.00000  Uiso   1.00
N352   N     0.75270   0.39836   0.38597   0.00000  Uiso   1.00
N353   N     0.75394   0.60501   0.38701   0.00000  Uiso   1.00
N354   N     0.96362   0.42111   0.15270   0.00000  Uiso   1.00
N355   N     0.76421   0.42175   0.15221   0.00000  Uiso   1.00
N356   N     0.90443   0.57861   0.34859   0.00000  Uiso   1.00
O357   O     0.79512   0.56108   0.25001   0.00000  Uiso   1.00
O358   O     0.87157   0.56107   0.25001   0.00000  Uiso   1.00
O359   O     0.77613   0.50000   0.32681   0.00000  Uiso   1.00
O360   O     0.85258   0.49999   0.32681   0.00000  Uiso   1.00
O361   O     0.79510   0.43893   0.25000   0.00000  Uiso   1.00
O362   O     0.87154   0.43892   0.25000   0.00000  Uiso   1.00
O363   O     0.81409   0.50001   0.17319   0.00000  Uiso   1.00
O364   O     0.89053   0.50000   0.17319   0.00000  Uiso   1.00
Zn365  Zn    0.78229   0.50001   0.25000   0.00000  Uiso   1.00
Zn366  Zn    0.88438   0.49999   0.25000   0.00000  Uiso   1.00
C367   C     0.16642   0.91314   0.25063   0.00000  Uiso   1.00
C368   C     0.12203   0.82551   0.41132   0.00000  Uiso   1.00
C369   C     0.19316   0.97773   0.20543   0.00000  Uiso   1.00
C370   C     0.13987   0.83083   0.35215   0.00000  Uiso   1.00
C371   C     0.19282   0.68738   0.20490   0.00000  Uiso   1.00
C372   C     0.16583   0.70935   0.25192   0.00000  Uiso   1.00
C373   C     0.13750   0.68909   0.29962   0.00000  Uiso   1.00
C374   C     0.13744   0.97879   0.29985   0.00000  Uiso   1.00
C375   C     0.16567   0.95725   0.25244   0.00000  Uiso   1.00
C376   C     0.31967   0.80656   0.21654   0.00000  Uiso   1.00
C377   C     0.03437   0.80655   0.21652   0.00000  Uiso   1.00
C378   C     0.14331   0.82233   0.49247   0.00000  Uiso   1.00
C379   C     0.01379   0.85992   0.28343   0.00000  Uiso   1.00
C380   C     0.29932   0.86003   0.28350   0.00000  Uiso   1.00
C381   C     0.16663   0.75350   0.25007   0.00000  Uiso   1.00
C382   C     0.19344   0.83363   0.14771   0.00000  Uiso   1.00
C383   C     0.25895   0.79067   0.00820   0.00000  Uiso   1.00
C384   C     0.20991   0.82852   0.08881   0.00000  Uiso   1.00
C385   C     0.07554   0.83959   0.44280   0.00000  Uiso   1.00
C386   C     0.06215   0.84239   0.49912   0.00000  Uiso   1.00
C387   C     0.09594   0.83496   0.02385   0.00000  Uiso   1.00
C388   C     0.10893   0.71286   0.34765   0.00000  Uiso   1.00
C389   C     0.15333   0.81091   0.43753   0.00000  Uiso   1.00
C390   C     0.10952   0.95625   0.34832   0.00000  Uiso   1.00
C391   C     0.30660   0.77788   0.18125   0.00000  Uiso   1.00
C392   C     0.06955   0.77802   0.18092   0.00000  Uiso   1.00
C393   C     0.26513   0.88877   0.31950   0.00000  Uiso   1.00
C394   C     0.18060   0.81913   0.01419   0.00000  Uiso   1.00
C395   C     0.22303   0.79614   0.48538   0.00000  Uiso   1.00
C396   C     0.22845   0.77817   0.43484   0.00000  Uiso   1.00
C397   C     0.19407   0.78530   0.41095   0.00000  Uiso   1.00
C398   C     0.17754   0.83896   0.06316   0.00000  Uiso   1.00
C399   C     0.25179   0.80589   0.06054   0.00000  Uiso   1.00
F400   F     0.21722   0.70759   0.15815   0.00000  Uiso   1.00
F401   F     0.14404   0.86927   0.08622   0.00000  Uiso   1.00
F402   F     0.04328   0.85129   0.41935   0.00000  Uiso   1.00
F403   F     0.19894   0.76413   0.36402   0.00000  Uiso   1.00
H404   H     0.27785   0.79861   0.07949   0.00000  Uiso   1.00
H405   H     0.02394   0.88113   0.31013   0.00000  Uiso   1.00
H406   H     0.25952   0.75879   0.41354   0.00000  Uiso   1.00
H407   H     0.29138   0.77299   0.48670   0.00000  Uiso   1.00
H408   H     0.08372   0.83748   0.06772   0.00000  Uiso   1.00
H409   H     0.02603   0.85206   0.02355   0.00000  Uiso   1.00
H410   H     0.21401   0.96031   0.16901   0.00000  Uiso   1.00
N411   N     0.04760   0.83334   0.25002   0.00000  Uiso   1.00
N412   N     0.28573   0.83331   0.25001   0.00000  Uiso   1.00
N413   N     0.08604   0.73169   0.38597   0.00000  Uiso   1.00
N414   N     0.08728   0.93834   0.38701   0.00000  Uiso   1.00
N415   N     0.29695   0.75445   0.15270   0.00000  Uiso   1.00
N416   N     0.09754   0.75508   0.15221   0.00000  Uiso   1.00
N417   N     0.23776   0.91195   0.34859   0.00000  Uiso   1.00
O418   O     0.12846   0.89442   0.25001   0.00000  Uiso   1.00
O419   O     0.20490   0.89441   0.25001   0.00000  Uiso   1.00
O420   O     0.10947   0.83333   0.32681   0.00000  Uiso   1.00
O421   O     0.18591   0.83332   0.32681   0.00000  Uiso   1.00
O422   O     0.12843   0.77226   0.25000   0.00000  Uiso   1.00
O423   O     0.20488   0.77225   0.25000   0.00000  Uiso   1.00
O424   O     0.14742   0.83335   0.17319   0.00000  Uiso   1.00
O425   O     0.22387   0.83334   0.17319   0.00000  Uiso   1.00
Zn426  Zn    0.11562   0.83334   0.25000   0.00000  Uiso   1.00
Zn427  Zn    0.21771   0.83333   0.25000   0.00000  Uiso   1.00
C428   C     0.49975   0.91314   0.25063   0.00000  Uiso   1.00
C429   C     0.45536   0.82551   0.41132   0.00000  Uiso   1.00
C430   C     0.52649   0.97773   0.20543   0.00000  Uiso   1.00
C431   C     0.47320   0.83083   0.35215   0.00000  Uiso   1.00
C432   C     0.52615   0.68738   0.20490   0.00000  Uiso   1.00
C433   C     0.49916   0.70935   0.25192   0.00000  Uiso   1.00
C434   C     0.47084   0.68909   0.29962   0.00000  Uiso   1.00
C435   C     0.47078   0.97879   0.29985   0.00000  Uiso   1.00
C436   C     0.49900   0.95725   0.25244   0.00000  Uiso   1.00
C437   C     0.65301   0.80656   0.21654   0.00000  Uiso   1.00
C438   C     0.36770   0.80655   0.21652   0.00000  Uiso   1.00
C439   C     0.47665   0.82233   0.49247   0.00000  Uiso   1.00
C440   C     0.34713   0.85992   0.28343   0.00000  Uiso   1.00
C441   C     0.63265   0.86003   0.28350   0.00000  Uiso   1.00
C442   C     0.49996   0.75350   0.25007   0.00000  Uiso   1.00
C443   C     0.52677   0.83363   0.14771   0.00000  Uiso   1.00
C444   C     0.59228   0.79067   0.00820   0.00000  Uiso   1.00
C445   C     0.54324   0.82852   0.08881   0.00000  Uiso   1.00
C446   C     0.40887   0.83959   0.44280   0.00000  Uiso   1.00
C447   C     0.39548   0.84239   0.49912   0.00000  Uiso   1.00
C448   C     0.42927   0.83496   0.02385   0.00000  Uiso   1.00
C449   C     0.44226   0.71286   0.34765   0.00000  Uiso   1.00
C450   C     0.48666   0.81091   0.43753   0.00000  Uiso   1.00
C451   C     0.44286   0.95625   0.34832   0.00000  Uiso   1.00
C452   C     0.63993   0.77788   0.18125   0.00000  Uiso   1.00
C453   C     0.40289   0.77802   0.18092   0.00000  Uiso   1.00
C454   C     0.59847   0.88877   0.31950   0.00000  Uiso   1.00
C455   C     0.51393   0.81913   0.01419   0.00000  Uiso   1.00
C456   C     0.55636   0.79614   0.48538   0.00000  Uiso   1.00
C457   C     0.56178   0.77817   0.43484   0.00000  Uiso   1.00
C458   C     0.52740   0.78530   0.41095   0.00000  Uiso   1.00
C459   C     0.51087   0.83896   0.06316   0.00000  Uiso   1.00
C460   C     0.58512   0.80589   0.06054   0.00000  Uiso   1.00
F461   F     0.55055   0.70759   0.15815   0.00000  Uiso   1.00
F462   F     0.47737   0.86927   0.08622   0.00000  Uiso   1.00
F463   F     0.37661   0.85129   0.41935   0.00000  Uiso   1.00
F464   F     0.53227   0.76413   0.36402   0.00000  Uiso   1.00
H465   H     0.61118   0.79861   0.07949   0.00000  Uiso   1.00
H466   H     0.35728   0.88113   0.31013   0.00000  Uiso   1.00
H467   H     0.59285   0.75879   0.41354   0.00000  Uiso   1.00
H468   H     0.62471   0.77299   0.48670   0.00000  Uiso   1.00
H469   H     0.41705   0.83748   0.06772   0.00000  Uiso   1.00
H470   H     0.35936   0.85206   0.02355   0.00000  Uiso   1.00
H471   H     0.54735   0.96031   0.16901   0.00000  Uiso   1.00
N472   N     0.38093   0.83334   0.25002   0.00000  Uiso   1.00
N473   N     0.61906   0.83331   0.25001   0.00000  Uiso   1.00
N474   N     0.41937   0.73169   0.38597   0.00000  Uiso   1.00
N475   N     0.42061   0.93834   0.38701   0.00000  Uiso   1.00
N476   N     0.63029   0.75445   0.15270   0.00000  Uiso   1.00
N477   N     0.43087   0.75508   0.15221   0.00000  Uiso   1.00
N478   N     0.57109   0.91195   0.34859   0.00000  Uiso   1.00
O479   O     0.46179   0.89442   0.25001   0.00000  Uiso   1.00
O480   O     0.53823   0.89441   0.25001   0.00000  Uiso   1.00
O481   O     0.44280   0.83333   0.32681   0.00000  Uiso   1.00
O482   O     0.51924   0.83332   0.32681   0.00000  Uiso   1.00
O483   O     0.46177   0.77226   0.25000   0.00000  Uiso   1.00
O484   O     0.53821   0.77225   0.25000   0.00000  Uiso   1.00
O485   O     0.48076   0.83335   0.17319   0.00000  Uiso   1.00
O486   O     0.55720   0.83334   0.17319   0.00000  Uiso   1.00
Zn487  Zn    0.44896   0.83334   0.25000   0.00000  Uiso   1.00
Zn488  Zn    0.55104   0.83333   0.25000   0.00000  Uiso   1.00
C489   C     0.83308   0.91314   0.25063   0.00000  Uiso   1.00
C490   C     0.78869   0.82551   0.41132   0.00000  Uiso   1.00
C491   C     0.85983   0.97773   0.20543   0.00000  Uiso   1.00
C492   C     0.80654   0.83083   0.35215   0.00000  Uiso   1.00
C493   C     0.85949   0.68738   0.20490   0.00000  Uiso   1.00
C494   C     0.83250   0.70935   0.25192   0.00000  Uiso   1.00
C495   C     0.80417   0.68909   0.29962   0.00000  Uiso   1.00
C496   C     0.80411   0.97879   0.29985   0.00000  Uiso   1.00
C497   C     0.83233   0.95725   0.25244   0.00000  Uiso   1.00
C498   C     0.98634   0.80656   0.21654   0.00000  Uiso   1.00
C499   C     0.70103   0.80655   0.21652   0.00000  Uiso   1.00
C500   C     0.80998   0.82233   0.49247   0.00000  Uiso   1.00
C501   C     0.68046   0.85992   0.28343   0.00000  Uiso   1.00
C502   C     0.96599   0.86003   0.28350   0.00000  Uiso   1.00
C503   C     0.83330   0.75350   0.25007   0.00000  Uiso   1.00
C504   C     0.86011   0.83363   0.14771   0.00000  Uiso   1.00
C505   C     0.92562   0.79067   0.00820   0.00000  Uiso   1.00
C506   C     0.87658   0.82852   0.08881   0.00000  Uiso   1.00
C507   C     0.74220   0.83959   0.44280   0.00000  Uiso   1.00
C508   C     0.72882   0.84239   0.49912   0.00000  Uiso   1.00
C509   C     0.76260   0.83496   0.02385   0.00000  Uiso   1.00
C510   C     0.77560   0.71286   0.34765   0.00000  Uiso   1.00
C511   C     0.81999   0.81091   0.43753   0.00000  Uiso   1.00
C512   C     0.77619   0.95625   0.34832   0.00000  Uiso   1.00
C513   C     0.97326   0.77788   0.18125   0.00000  Uiso   1.00
C514   C     0.73622   0.77802   0.18092   0.00000  Uiso   1.00
C515   C     0.93180   0.88877   0.31950   0.00000  Uiso   1.00
C516   C     0.84727   0.81913   0.01419   0.00000  Uiso   1.00
C517   C     0.88970   0.79614   0.48538   0.00000  Uiso   1.00
C518   C     0.89512   0.77817   0.43484   0.00000  Uiso   1.00
C519   C     0.86073   0.78530   0.41095   0.00000  Uiso   1.00
C520   C     0.84421   0.83896   0.06316   0.00000  Uiso   1.00
C521   C     0.91846   0.80589   0.06054   0.00000  Uiso   1.00
F522   F     0.88388   0.70759   0.15815   0.00000  Uiso   1.00
F523   F     0.81070   0.86927   0.08622   0.00000  Uiso   1.00
F524   F     0.70995   0.85129   0.41935   0.00000  Uiso   1.00
F525   F     0.86561   0.76413   0.36402   0.00000  Uiso   1.00
H526   H     0.94452   0.79861   0.07949   0.00000  Uiso   1.00
H527   H     0.69061   0.88113   0.31013   0.00000  Uiso   1.00
H528   H     0.92619   0.75879   0.41354   0.00000  Uiso   1.00
H529   H     0.95804   0.77299   0.48670   0.00000  Uiso   1.00
H530   H     0.75039   0.83748   0.06772   0.00000  Uiso   1.00
H531   H     0.69270   0.85206   0.02355   0.00000  Uiso   1.00
H532   H     0.88068   0.96031   0.16901   0.00000  Uiso   1.00
N533   N     0.71426   0.83334   0.25002   0.00000  Uiso   1.00
N534   N     0.95239   0.83331   0.25001   0.00000  Uiso   1.00
N535   N     0.75270   0.73169   0.38597   0.00000  Uiso   1.00
N536   N     0.75394   0.93834   0.38701   0.00000  Uiso   1.00
N537   N     0.96362   0.75445   0.15270   0.00000  Uiso   1.00
N538   N     0.76421   0.75508   0.15221   0.00000  Uiso   1.00
N539   N     0.90443   0.91195   0.34859   0.00000  Uiso   1.00
O540   O     0.79512   0.89442   0.25001   0.00000  Uiso   1.00
O541   O     0.87157   0.89441   0.25001   0.00000  Uiso   1.00
O542   O     0.77613   0.83333   0.32681   0.00000  Uiso   1.00
O543   O     0.85258   0.83332   0.32681   0.00000  Uiso   1.00
O544   O     0.79510   0.77226   0.25000   0.00000  Uiso   1.00
O545   O     0.87154   0.77225   0.25000   0.00000  Uiso   1.00
O546   O     0.81409   0.83335   0.17319   0.00000  Uiso   1.00
O547   O     0.89053   0.83334   0.17319   0.00000  Uiso   1.00
Zn548  Zn    0.78229   0.83334   0.25000   0.00000  Uiso   1.00
Zn549  Zn    0.88438   0.83333   0.25000   0.00000  Uiso   1.00
C550   C     0.16642   0.24647   0.75063   0.00000  Uiso   1.00
C551   C     0.12203   0.15884   0.91132   0.00000  Uiso   1.00
C552   C     0.19316   0.31106   0.70543   0.00000  Uiso   1.00
C553   C     0.13987   0.16416   0.85215   0.00000  Uiso   1.00
C554   C     0.19282   0.02071   0.70490   0.00000  Uiso   1.00
C555   C     0.16583   0.04268   0.75192   0.00000  Uiso   1.00
C556   C     0.13750   0.02243   0.79962   0.00000  Uiso   1.00
C557   C     0.13744   0.31212   0.79985   0.00000  Uiso   1.00
C558   C     0.16567   0.29059   0.75244   0.00000  Uiso   1.00
C559   C     0.31967   0.13989   0.71654   0.00000  Uiso   1.00
C560   C     0.03437   0.13988   0.71652   0.00000  Uiso   1.00
C561   C     0.14331   0.15566   0.99247   0.00000  Uiso   1.00
C562   C     0.01379   0.19325   0.78343   0.00000  Uiso   1.00
C563   C     0.29932   0.19336   0.78350   0.00000  Uiso   1.00
C564   C     0.16663   0.08683   0.75007   0.00000  Uiso   1.00
C565   C     0.19344   0.16697   0.64771   0.00000  Uiso   1.00
C566   C     0.25895   0.12400   0.50820   0.00000  Uiso   1.00
C567   C     0.20991   0.16185   0.58881   0.00000  Uiso   1.00
C568   C     0.07554   0.17292   0.94280   0.00000  Uiso   1.00
C569   C     0.06215   0.17572   0.99912   0.00000  Uiso   1.00
C570   C     0.09594   0.16830   0.52385   0.00000  Uiso   1.00
C571   C     0.10893   0.04619   0.84765   0.00000  Uiso   1.00
C572   C     0.15333   0.14424   0.93753   0.00000  Uiso   1.00
C573   C     0.10952   0.28958   0.84832   0.00000  Uiso   1.00
C574   C     0.30660   0.11121   0.68125   0.00000  Uiso   1.00
C575   C     0.06955   0.11136   0.68092   0.00000  Uiso   1.00
C576   C     0.26513   0.22210   0.81950   0.00000  Uiso   1.00
C577   C     0.18060   0.15247   0.51419   0.00000  Uiso   1.00
C578   C     0.22303   0.12948   0.98538   0.00000  Uiso   1.00
C579   C     0.22845   0.11151   0.93484   0.00000  Uiso   1.00
C580   C     0.19407   0.11863   0.91095   0.00000  Uiso   1.00
C581   C     0.17754   0.17229   0.56316   0.00000  Uiso   1.00
C582   C     0.25179   0.13923   0.56054   0.00000  Uiso   1.00
F583   F     0.21722   0.04092   0.65815   0.00000  Uiso   1.00
F584   F     0.14404   0.20260   0.58622   0.00000  Uiso   1.00
F585   F     0.04328   0.18463   0.91935   0.00000  Uiso   1.00
F586   F     0.19894   0.09747   0.86402   0.00000  Uiso   1.00
H587   H     0.27785   0.13195   0.57949   0.00000  Uiso   1.00
H588   H     0.02394   0.21446   0.81013   0.00000  Uiso   1.00
H589   H     0.25952   0.09213   0.91354   0.00000  Uiso   1.00
H590   H     0.29138   0.10632   0.98670   0.00000  Uiso   1.00
H591   H     0.08372   0.17082   0.56772   0.00000  Uiso   1.00
H592   H     0.02603   0.18540   0.52355   0.00000  Uiso   1.00
H593   H     0.21401   0.29364   0.66901   0.00000  Uiso   1.00
N594   N     0.04760   0.16668   0.75002   0.00000  Uiso   1.00
N595   N     0.28573   0.16665   0.75001   0.00000  Uiso   1.00
N596   N     0.08604   0.06502   0.88597   0.00000  Uiso   1.00
N597   N     0.08728   0.27167   0.88701   0.00000  Uiso   1.00
N598   N     0.29695   0.08778   0.65270   0.00000  Uiso   1.00
N599   N     0.09754   0.08842   0.65221   0.00000  Uiso   1.00
N600   N     0.23776   0.24528   0.84859   0.00000  Uiso   1.00
O601   O     0.12846   0.22775   0.75001   0.00000  Uiso   1.00
O602   O     0.20490   0.22774   0.75001   0.00000  Uiso   1.00
O603   O     0.10947   0.16666   0.82681   0.00000  Uiso   1.00
O604   O     0.18591   0.16665   0.82681   0.00000  Uiso   1.00
O605   O     0.12843   0.10559   0.75000   0.00000  Uiso   1.00
O606   O     0.20488   0.10558   0.75000   0.00000  Uiso   1.00
O607   O     0.14742   0.16668   0.67319   0.00000  Uiso   1.00
O608   O     0.22387   0.16667   0.67319   0.00000  Uiso   1.00
Zn609  Zn    0.11562   0.16667   0.75000   0.00000  Uiso   1.00
Zn610  Zn    0.21771   0.16666   0.75000   0.00000  Uiso   1.00
C611   C     0.49975   0.24647   0.75063   0.00000  Uiso   1.00
C612   C     0.45536   0.15884   0.91132   0.00000  Uiso   1.00
C613   C     0.52649   0.31106   0.70543   0.00000  Uiso   1.00
C614   C     0.47320   0.16416   0.85215   0.00000  Uiso   1.00
C615   C     0.52615   0.02071   0.70490   0.00000  Uiso   1.00
C616   C     0.49916   0.04268   0.75192   0.00000  Uiso   1.00
C617   C     0.47084   0.02243   0.79962   0.00000  Uiso   1.00
C618   C     0.47078   0.31212   0.79985   0.00000  Uiso   1.00
C619   C     0.49900   0.29059   0.75244   0.00000  Uiso   1.00
C620   C     0.65301   0.13989   0.71654   0.00000  Uiso   1.00
C621   C     0.36770   0.13988   0.71652   0.00000  Uiso   1.00
C622   C     0.47665   0.15566   0.99247   0.00000  Uiso   1.00
C623   C     0.34713   0.19325   0.78343   0.00000  Uiso   1.00
C624   C     0.63265   0.19336   0.78350   0.00000  Uiso   1.00
C625   C     0.49996   0.08683   0.75007   0.00000  Uiso   1.00
C626   C     0.52677   0.16697   0.64771   0.00000  Uiso   1.00
C627   C     0.59228   0.12400   0.50820   0.00000  Uiso   1.00
C628   C     0.54324   0.16185   0.58881   0.00000  Uiso   1.00
C629   C     0.40887   0.17292   0.94280   0.00000  Uiso   1.00
C630   C     0.39548   0.17572   0.99912   0.00000  Uiso   1.00
C631   C     0.42927   0.16830   0.52385   0.00000  Uiso   1.00
C632   C     0.44226   0.04619   0.84765   0.00000  Uiso   1.00
C633   C     0.48666   0.14424   0.93753   0.00000  Uiso   1.00
C634   C     0.44286   0.28958   0.84832   0.00000  Uiso   1.00
C635   C     0.63993   0.11121   0.68125   0.00000  Uiso   1.00
C636   C     0.40289   0.11136   0.68092   0.00000  Uiso   1.00
C637   C     0.59847   0.22210   0.81950   0.00000  Uiso   1.00
C638   C     0.51393   0.15247   0.51419   0.00000  Uiso   1.00
C639   C     0.55636   0.12948   0.98538   0.00000  Uiso   1.00
C640   C     0.56178   0.11151   0.93484   0.00000  Uiso   1.00
C641   C     0.52740   0.11863   0.91095   0.00000  Uiso   1.00
C642   C     0.51087   0.17229   0.56316   0.00000  Uiso   1.00
C643   C     0.58512   0.13923   0.56054   0.00000  Uiso   1.00
F644   F     0.55055   0.04092   0.65815   0.00000  Uiso   1.00
F645   F     0.47737   0.20260   0.58622   0.00000  Uiso   1.00
F646   F     0.37661   0.18463   0.91935   0.00000  Uiso   1.00
F647   F     0.53227   0.09747   0.86402   0.00000  Uiso   1.00
H648   H     0.61118   0.13195   0.57949   0.00000  Uiso   1.00
H649   H     0.35728   0.21446   0.81013   0.00000  Uiso   1.00
H650   H     0.59285   0.09213   0.91354   0.00000  Uiso   1.00
H651   H     0.62471   0.10632   0.98670   0.00000  Uiso   1.00
H652   H     0.41705   0.17082   0.56772   0.00000  Uiso   1.00
H653   H     0.35936   0.18540   0.52355   0.00000  Uiso   1.00
H654   H     0.54735   0.29364   0.66901   0.00000  Uiso   1.00
N655   N     0.38093   0.16668   0.75002   0.00000  Uiso   1.00
N656   N     0.61906   0.16665   0.75001   0.00000  Uiso   1.00
N657   N     0.41937   0.06502   0.88597   0.00000  Uiso   1.00
N658   N     0.42061   0.27167   0.88701   0.00000  Uiso   1.00
N659   N     0.63029   0.08778   0.65270   0.00000  Uiso   1.00
N660   N     0.43087   0.08842   0.65221   0.00000  Uiso   1.00
N661   N     0.57109   0.24528   0.84859   0.00000  Uiso   1.00
O662   O     0.46179   0.22775   0.75001   0.00000  Uiso   1.00
O663   O     0.53823   0.22774   0.75001   0.00000  Uiso   1.00
O664   O     0.44280   0.16666   0.82681   0.00000  Uiso   1.00
O665   O     0.51924   0.16665   0.82681   0.00000  Uiso   1.00
O666   O     0.46177   0.10559   0.75000   0.00000  Uiso   1.00
O667   O     0.53821   0.10558   0.75000   0.00000  Uiso   1.00
O668   O     0.48076   0.16668   0.67319   0.00000  Uiso   1.00
O669   O     0.55720   0.16667   0.67319   0.00000  Uiso   1.00
Zn670  Zn    0.44896   0.16667   0.75000   0.00000  Uiso   1.00
Zn671  Zn    0.55104   0.16666   0.75000   0.00000  Uiso   1.00
C672   C     0.83308   0.24647   0.75063   0.00000  Uiso   1.00
C673   C     0.78869   0.15884   0.91132   0.00000  Uiso   1.00
C674   C     0.85983   0.31106   0.70543   0.00000  Uiso   1.00
C675   C     0.80654   0.16416   0.85215   0.00000  Uiso   1.00
C676   C     0.85949   0.02071   0.70490   0.00000  Uiso   1.00
C677   C     0.83250   0.04268   0.75192   0.00000  Uiso   1.00
C678   C     0.80417   0.02243   0.79962   0.00000  Uiso   1.00
C679   C     0.80411   0.31212   0.79985   0.00000  Uiso   1.00
C680   C     0.83233   0.29059   0.75244   0.00000  Uiso   1.00
C681   C     0.98634   0.13989   0.71654   0.00000  Uiso   1.00
C682   C     0.70103   0.13988   0.71652   0.00000  Uiso   1.00
C683   C     0.80998   0.15566   0.99247   0.00000  Uiso   1.00
C684   C     0.68046   0.19325   0.78343   0.00000  Uiso   1.00
C685   C     0.96599   0.19336   0.78350   0.00000  Uiso   1.00
C686   C     0.83330   0.08683   0.75007   0.00000  Uiso   1.00
C687   C     0.86011   0.16697   0.64771   0.00000  Uiso   1.00
C688   C     0.92562   0.12400   0.50820   0.00000  Uiso   1.00
C689   C     0.87658   0.16185   0.58881   0.00000  Uiso   1.00
C690   C     0.74220   0.17292   0.94280   0.00000  Uiso   1.00
C691   C     0.72882   0.17572   0.99912   0.00000  Uiso   1.00
C692   C     0.76260   0.16830   0.52385   0.00000  Uiso   1.00
C693   C     0.77560   0.04619   0.84765   0.00000  Uiso   1.00
C694   C     0.81999   0.14424   0.93753   0.00000  Uiso   1.00
C695   C     0.77619   0.28958   0.84832   0.00000  Uiso   1.00
C696   C     0.97326   0.11121   0.68125   0.00000  Uiso   1.00
C697   C     0.73622   0.11136   0.68092   0.00000  Uiso   1.00
C698   C     0.93180   0.22210   0.81950   0.00000  Uiso   1.00
C699   C     0.84727   0.15247   0.51419   0.00000  Uiso   1.00
C700   C     0.88970   0.12948   0.98538   0.00000  Uiso   1.00
C701   C     0.89512   0.11151   0.93484   0.00000  Uiso   1.00
C702   C     0.86073   0.11863   0.91095   0.00000  Uiso   1.00
C703   C     0.84421   0.17229   0.56316   0.00000  Uiso   1.00
C704   C     0.91846   0.13923   0.56054   0.00000  Uiso   1.00
F705   F     0.88388   0.04092   0.65815   0.00000  Uiso   1.00
F706   F     0.81070   0.20260   0.58622   0.00000  Uiso   1.00
F707   F     0.70995   0.18463   0.91935   0.00000  Uiso   1.00
F708   F     0.86561   0.09747   0.86402   0.00000  Uiso   1.00
H709   H     0.94452   0.13195   0.57949   0.00000  Uiso   1.00
H710   H     0.69061   0.21446   0.81013   0.00000  Uiso   1.00
H711   H     0.92619   0.09213   0.91354   0.00000  Uiso   1.00
H712   H     0.95804   0.10632   0.98670   0.00000  Uiso   1.00
H713   H     0.75039   0.17082   0.56772   0.00000  Uiso   1.00
H714   H     0.69270   0.18540   0.52355   0.00000  Uiso   1.00
H715   H     0.88068   0.29364   0.66901   0.00000  Uiso   1.00
N716   N     0.71426   0.16668   0.75002   0.00000  Uiso   1.00
N717   N     0.95239   0.16665   0.75001   0.00000  Uiso   1.00
N718   N     0.75270   0.06502   0.88597   0.00000  Uiso   1.00
N719   N     0.75394   0.27167   0.88701   0.00000  Uiso   1.00
N720   N     0.96362   0.08778   0.65270   0.00000  Uiso   1.00
N721   N     0.76421   0.08842   0.65221   0.00000  Uiso   1.00
N722   N     0.90443   0.24528   0.84859   0.00000  Uiso   1.00
O723   O     0.79512   0.22775   0.75001   0.00000  Uiso   1.00
O724   O     0.87157   0.22774   0.75001   0.00000  Uiso   1.00
O725   O     0.77613   0.16666   0.82681   0.00000  Uiso   1.00
O726   O     0.85258   0.16665   0.82681   0.00000  Uiso   1.00
O727   O     0.79510   0.10559   0.75000   0.00000  Uiso   1.00
O728   O     0.87154   0.10558   0.75000   0.00000  Uiso   1.00
O729   O     0.81409   0.16668   0.67319   0.00000  Uiso   1.00
O730   O     0.89053   0.16667   0.67319   0.00000  Uiso   1.00
Zn731  Zn    0.78229   0.16667   0.75000   0.00000  Uiso   1.00
Zn732  Zn    0.88438   0.16666   0.75000   0.00000  Uiso   1.00
C733   C     0.16642   0.57980   0.75063   0.00000  Uiso   1.00
C734   C     0.12203   0.49218   0.91132   0.00000  Uiso   1.00
C735   C     0.19316   0.64439   0.70543   0.00000  Uiso   1.00
C736   C     0.13987   0.49749   0.85215   0.00000  Uiso   1.00
C737   C     0.19282   0.35405   0.70490   0.00000  Uiso   1.00
C738   C     0.16583   0.37601   0.75192   0.00000  Uiso   1.00
C739   C     0.13750   0.35576   0.79962   0.00000  Uiso   1.00
C740   C     0.13744   0.64545   0.79985   0.00000  Uiso   1.00
C741   C     0.16567   0.62392   0.75244   0.00000  Uiso   1.00
C742   C     0.31967   0.47323   0.71654   0.00000  Uiso   1.00
C743   C     0.03437   0.47321   0.71652   0.00000  Uiso   1.00
C744   C     0.14331   0.48900   0.99247   0.00000  Uiso   1.00
C745   C     0.01379   0.52658   0.78343   0.00000  Uiso   1.00
C746   C     0.29932   0.52670   0.78350   0.00000  Uiso   1.00
C747   C     0.16663   0.42017   0.75007   0.00000  Uiso   1.00
C748   C     0.19344   0.50030   0.64771   0.00000  Uiso   1.00
C749   C     0.25895   0.45734   0.50820   0.00000  Uiso   1.00
C750   C     0.20991   0.49518   0.58881   0.00000  Uiso   1.00
C751   C     0.07554   0.50626   0.94280   0.00000  Uiso   1.00
C752   C     0.06215   0.50905   0.99912   0.00000  Uiso   1.00
C753   C     0.09594   0.50163   0.52385   0.00000  Uiso   1.00
C754   C     0.10893   0.37952   0.84765   0.00000  Uiso   1.00
C755   C     0.15333   0.47758   0.93753   0.00000  Uiso   1.00
C756   C     0.10952   0.62292   0.84832   0.00000  Uiso   1.00
C757   C     0.30660   0.44455   0.68125   0.00000  Uiso   1.00
C758   C     0.06955   0.44469   0.68092   0.00000  Uiso   1.00
C759   C     0.26513   0.55544   0.81950   0.00000  Uiso   1.00
C760   C     0.18060   0.48580   0.51419   0.00000  Uiso   1.00
C761   C     0.22303   0.46281   0.98538   0.00000  Uiso   1.00
C762   C     0.22845   0.44484   0.93484   0.00000  Uiso   1.00
C763   C     0.19407   0.45196   0.91095   0.00000  Uiso   1.00
C764   C     0.17754   0.50563   0.56316   0.00000  Uiso   1.00
C765   C     0.25179   0.47256   0.56054   0.00000  Uiso   1.00
F766   F     0.21722   0.37425   0.65815   0.00000  Uiso   1.00
F767   F     0.14404   0.53593   0.58622   0.00000  Uiso   1.00
F768   F     0.04328   0.51796   0.91935   0.00000  Uiso   1.00
F769   F     0.19894   0.43080   0.86402   0.00000  Uiso   1.00
H770   H     0.27785   0.46528   0.57949   0.00000  Uiso   1.00
H771   H     0.02394   0.54780   0.81013   0.00000  Uiso   1.00
H772   H     0.25952   0.42546   0.91354   0.00000  Uiso   1.00
H773   H     0.29138   0.43965   0.98670   0.00000  Uiso   1.00
H774   H     0.08372   0.50415   0.56772   0.00000  Uiso   1.00
H775   H     0.02603   0.51873   0.52355   0.00000  Uiso   1.00
H776   H     0.21401   0.62697   0.66901   0.00000  Uiso   1.00
N777   N     0.04760   0.50001   0.75002   0.00000  Uiso   1.00
N778   N     0.28573   0.49998   0.75001   0.00000  Uiso   1.00
N779   N     0.08604   0.39836   0.88597   0.00000  Uiso   1.00
N780   N     0.08728   0.60501   0.88701   0.00000  Uiso   1.00
N781   N     0.29695   0.42111   0.65270   0.00000  Uiso   1.00
N782   N     0.09754   0.42175   0.65221   0.00000  Uiso   1.00
N783   N     0.23776   0.57861   0.84859   0.00000  Uiso   1.00
O784   O     0.12846   0.56108   0.75001   0.00000  Uiso   1.00
O785   O     0.20490   0.56107   0.75001   0.00000  Uiso   1.00
O786   O     0.10947   0.50000   0.82681   0.00000  Uiso   1.00
O787   O     0.18591   0.49999   0.82681   0.00000  Uiso   1.00
O788   O     0.12843   0.43893   0.75000   0.00000  Uiso   1.00
O789   O     0.20488   0.43892   0.75000   0.00000  Uiso   1.00
O790   O     0.14742   0.50001   0.67319   0.00000  Uiso   1.00
O791   O     0.22387   0.50000   0.67319   0.00000  Uiso   1.00
Zn792  Zn    0.11562   0.50001   0.75000   0.00000  Uiso   1.00
Zn793  Zn    0.21771   0.49999   0.75000   0.00000  Uiso   1.00
C794   C     0.49975   0.57980   0.75063   0.00000  Uiso   1.00
C795   C     0.45536   0.49218   0.91132   0.00000  Uiso   1.00
C796   C     0.52649   0.64439   0.70543   0.00000  Uiso   1.00
C797   C     0.47320   0.49749   0.85215   0.00000  Uiso   1.00
C798   C     0.52615   0.35405   0.70490   0.00000  Uiso   1.00
C799   C     0.49916   0.37601   0.75192   0.00000  Uiso   1.00
C800   C     0.47084   0.35576   0.79962   0.00000  Uiso   1.00
C801   C     0.47078   0.64545   0.79985   0.00000  Uiso   1.00
C802   C     0.49900   0.62392   0.75244   0.00000  Uiso   1.00
C803   C     0.65301   0.47323   0.71654   0.00000  Uiso   1.00
C804   C     0.36770   0.47321   0.71652   0.00000  Uiso   1.00
C805   C     0.47665   0.48900   0.99247   0.00000  Uiso   1.00
C806   C     0.34713   0.52658   0.78343   0.00000  Uiso   1.00
C807   C     0.63265   0.52670   0.78350   0.00000  Uiso   1.00
C808   C     0.49996   0.42017   0.75007   0.00000  Uiso   1.00
C809   C     0.52677   0.50030   0.64771   0.00000  Uiso   1.00
C810   C     0.59228   0.45734   0.50820   0.00000  Uiso   1.00
C811   C     0.54324   0.49518   0.58881   0.00000  Uiso   1.00
C812   C     0.40887   0.50626   0.94280   0.00000  Uiso   1.00
C813   C     0.39548   0.50905   0.99912   0.00000  Uiso   1.00
C814   C     0.42927   0.50163   0.52385   0.00000  Uiso   1.00
C815   C     0.44226   0.37952   0.84765   0.00000  Uiso   1.00
C816   C     0.48666   0.47758   0.93753   0.00000  Uiso   1.00
C817   C     0.44286   0.62292   0.84832   0.00000  Uiso   1.00
C818   C     0.63993   0.44455   0.68125   0.00000  Uiso   1.00
C819   C     0.40289   0.44469   0.68092   0.00000  Uiso   1.00
C820   C     0.59847   0.55544   0.81950   0.00000  Uiso   1.00
C821   C     0.51393   0.48580   0.51419   0.00000  Uiso   1.00
C822   C     0.55636   0.46281   0.98538   0.00000  Uiso   1.00
C823   C     0.56178   0.44484   0.93484   0.00000  Uiso   1.00
C824   C     0.52740   0.45196   0.91095   0.00000  Uiso   1.00
C825   C     0.51087   0.50563   0.56316   0.00000  Uiso   1.00
C826   C     0.58512   0.47256   0.56054   0.00000  Uiso   1.00
F827   F     0.55055   0.37425   0.65815   0.00000  Uiso   1.00
F828   F     0.47737   0.53593   0.58622   0.00000  Uiso   1.00
F829   F     0.37661   0.51796   0.91935   0.00000  Uiso   1.00
F830   F     0.53227   0.43080   0.86402   0.00000  Uiso   1.00
H831   H     0.61118   0.46528   0.57949   0.00000  Uiso   1.00
H832   H     0.35728   0.54780   0.81013   0.00000  Uiso   1.00
H833   H     0.59285   0.42546   0.91354   0.00000  Uiso   1.00
H834   H     0.62471   0.43965   0.98670   0.00000  Uiso   1.00
H835   H     0.41705   0.50415   0.56772   0.00000  Uiso   1.00
H836   H     0.35936   0.51873   0.52355   0.00000  Uiso   1.00
H837   H     0.54735   0.62697   0.66901   0.00000  Uiso   1.00
N838   N     0.38093   0.50001   0.75002   0.00000  Uiso   1.00
N839   N     0.61906   0.49998   0.75001   0.00000  Uiso   1.00
N840   N     0.41937   0.39836   0.88597   0.00000  Uiso   1.00
N841   N     0.42061   0.60501   0.88701   0.00000  Uiso   1.00
N842   N     0.63029   0.42111   0.65270   0.00000  Uiso   1.00
N843   N     0.43087   0.42175   0.65221   0.00000  Uiso   1.00
N844   N     0.57109   0.57861   0.84859   0.00000  Uiso   1.00
O845   O     0.46179   0.56108   0.75001   0.00000  Uiso   1.00
O846   O     0.53823   0.56107   0.75001   0.00000  Uiso   1.00
O847   O     0.44280   0.50000   0.82681   0.00000  Uiso   1.00
O848   O     0.51924   0.49999   0.82681   0.00000  Uiso   1.00
O849   O     0.46177   0.43893   0.75000   0.00000  Uiso   1.00
O850   O     0.53821   0.43892   0.75000   0.00000  Uiso   1.00
O851   O     0.48076   0.50001   0.67319   0.00000  Uiso   1.00
O852   O     0.55720   0.50000   0.67319   0.00000  Uiso   1.00
Zn853  Zn    0.44896   0.50001   0.75000   0.00000  Uiso   1.00
Zn854  Zn    0.55104   0.49999   0.75000   0.00000  Uiso   1.00
C855   C     0.83308   0.57980   0.75063   0.00000  Uiso   1.00
C856   C     0.78869   0.49218   0.91132   0.00000  Uiso   1.00
C857   C     0.85983   0.64439   0.70543   0.00000  Uiso   1.00
C858   C     0.80654   0.49749   0.85215   0.00000  Uiso   1.00
C859   C     0.85949   0.35405   0.70490   0.00000  Uiso   1.00
C860   C     0.83250   0.37601   0.75192   0.00000  Uiso   1.00
C861   C     0.80417   0.35576   0.79962   0.00000  Uiso   1.00
C862   C     0.80411   0.64545   0.79985   0.00000  Uiso   1.00
C863   C     0.83233   0.62392   0.75244   0.00000  Uiso   1.00
C864   C     0.98634   0.47323   0.71654   0.00000  Uiso   1.00
C865   C     0.70103   0.47321   0.71652   0.00000  Uiso   1.00
C866   C     0.80998   0.48900   0.99247   0.00000  Uiso   1.00
C867   C     0.68046   0.52658   0.78343   0.00000  Uiso   1.00
C868   C     0.96599   0.52670   0.78350   0.00000  Uiso   1.00
C869   C     0.83330   0.42017   0.75007   0.00000  Uiso   1.00
C870   C     0.86011   0.50030   0.64771   0.00000  Uiso   1.00
C871   C     0.92562   0.45734   0.50820   0.00000  Uiso   1.00
C872   C     0.87658   0.49518   0.58881   0.00000  Uiso   1.00
C873   C     0.74220   0.50626   0.94280   0.00000  Uiso   1.00
C874   C     0.72882   0.50905   0.99912   0.00000  Uiso   1.00
C875   C     0.76260   0.50163   0.52385   0.00000  Uiso   1.00
C876   C     0.77560   0.37952   0.84765   0.00000  Uiso   1.00
C877   C     0.81999   0.47758   0.93753   0.00000  Uiso   1.00
C878   C     0.77619   0.62292   0.84832   0.00000  Uiso   1.00
C879   C     0.97326   0.44455   0.68125   0.00000  Uiso   1.00
C880   C     0.73622   0.44469   0.68092   0.00000  Uiso   1.00
C881   C     0.93180   0.55544   0.81950   0.00000  Uiso   1.00
C882   C     0.84727   0.48580   0.51419   0.00000  Uiso   1.00
C883   C     0.88970   0.46281   0.98538   0.00000  Uiso   1.00
C884   C     0.89512   0.44484   0.93484   0.00000  Uiso   1.00
C885   C     0.86073   0.45196   0.91095   0.00000  Uiso   1.00
C886   C     0.84421   0.50563   0.56316   0.00000  Uiso   1.00
C887   C     0.91846   0.47256   0.56054   0.00000  Uiso   1.00
F888   F     0.88388   0.37425   0.65815   0.00000  Uiso   1.00
F889   F     0.81070   0.53593   0.58622   0.00000  Uiso   1.00
F890   F     0.70995   0.51796   0.91935   0.00000  Uiso   1.00
F891   F     0.86561   0.43080   0.86402   0.00000  Uiso   1.00
H892   H     0.94452   0.46528   0.57949   0.00000  Uiso   1.00
H893   H     0.69061   0.54780   0.81013   0.00000  Uiso   1.00
H894   H     0.92619   0.42546   0.91354   0.00000  Uiso   1.00
H895   H     0.95804   0.43965   0.98670   0.00000  Uiso   1.00
H896   H     0.75039   0.50415   0.56772   0.00000  Uiso   1.00
H897   H     0.69270   0.51873   0.52355   0.00000  Uiso   1.00
H898   H     0.88068   0.62697   0.66901   0.00000  Uiso   1.00
N899   N     0.71426   0.50001   0.75002   0.00000  Uiso   1.00
N900   N     0.95239   0.49998   0.75001   0.00000  Uiso   1.00
N901   N     0.75270   0.39836   0.88597   0.00000  Uiso   1.00
N902   N     0.75394   0.60501   0.88701   0.00000  Uiso   1.00
N903   N     0.96362   0.42111   0.65270   0.00000  Uiso   1.00
N904   N     0.76421   0.42175   0.65221   0.00000  Uiso   1.00
N905   N     0.90443   0.57861   0.84859   0.00000  Uiso   1.00
O906   O     0.79512   0.56108   0.75001   0.00000  Uiso   1.00
O907   O     0.87157   0.56107   0.75001   0.00000  Uiso   1.00
O908   O     0.77613   0.50000   0.82681   0.00000  Uiso   1.00
O909   O     0.85258   0.49999   0.82681   0.00000  Uiso   1.00
O910   O     0.79510   0.43893   0.75000   0.00000  Uiso   1.00
O911   O     0.87154   0.43892   0.75000   0.00000  Uiso   1.00
O912   O     0.81409   0.50001   0.67319   0.00000  Uiso   1.00
O913   O     0.89053   0.50000   0.67319   0.00000  Uiso   1.00
Zn914  Zn    0.78229   0.50001   0.75000   0.00000  Uiso   1.00
Zn915  Zn    0.88438   0.49999   0.75000   0.00000  Uiso   1.00
C916   C     0.16642   0.91314   0.75063   0.00000  Uiso   1.00
C917   C     0.12203   0.82551   0.91132   0.00000  Uiso   1.00
C918   C     0.19316   0.97773   0.70543   0.00000  Uiso   1.00
C919   C     0.13987   0.83083   0.85215   0.00000  Uiso   1.00
C920   C     0.19282   0.68738   0.70490   0.00000  Uiso   1.00
C921   C     0.16583   0.70935   0.75192   0.00000  Uiso   1.00
C922   C     0.13750   0.68909   0.79962   0.00000  Uiso   1.00
C923   C     0.13744   0.97879   0.79985   0.00000  Uiso   1.00
C924   C     0.16567   0.95725   0.75244   0.00000  Uiso   1.00
C925   C     0.31967   0.80656   0.71654   0.00000  Uiso   1.00
C926   C     0.03437   0.80655   0.71652   0.00000  Uiso   1.00
C927   C     0.14331   0.82233   0.99247   0.00000  Uiso   1.00
C928   C     0.01379   0.85992   0.78343   0.00000  Uiso   1.00
C929   C     0.29932   0.86003   0.78350   0.00000  Uiso   1.00
C930   C     0.16663   0.75350   0.75007   0.00000  Uiso   1.00
C931   C     0.19344   0.83363   0.64771   0.00000  Uiso   1.00
C932   C     0.25895   0.79067   0.50820   0.00000  Uiso   1.00
C933   C     0.20991   0.82852   0.58881   0.00000  Uiso   1.00
C934   C     0.07554   0.83959   0.94280   0.00000  Uiso   1.00
C935   C     0.06215   0.84239   0.99912   0.00000  Uiso   1.00
C936   C     0.09594   0.83496   0.52385   0.00000  Uiso   1.00
C937   C     0.10893   0.71286   0.84765   0.00000  Uiso   1.00
C938   C     0.15333   0.81091   0.93753   0.00000  Uiso   1.00
C939   C     0.10952   0.95625   0.84832   0.00000  Uiso   1.00
C940   C     0.30660   0.77788   0.68125   0.00000  Uiso   1.00
C941   C     0.06955   0.77802   0.68092   0.00000  Uiso   1.00
C942   C     0.26513   0.88877   0.81950   0.00000  Uiso   1.00
C943   C     0.18060   0.81913   0.51419   0.00000  Uiso   1.00
C944   C     0.22303   0.79614   0.98538   0.00000  Uiso   1.00
C945   C     0.22845   0.77817   0.93484   0.00000  Uiso   1.00
C946   C     0.19407   0.78530   0.91095   0.00000  Uiso   1.00
C947   C     0.17754   0.83896   0.56316   0.00000  Uiso   1.00
C948   C     0.25179   0.80589   0.56054   0.00000  Uiso   1.00
F949   F     0.21722   0.70759   0.65815   0.00000  Uiso   1.00
F950   F     0.14404   0.86927   0.58622   0.00000  Uiso   1.00
F951   F     0.04328   0.85129   0.91935   0.00000  Uiso   1.00
F952   F     0.19894   0.76413   0.86402   0.00000  Uiso   1.00
H953   H     0.27785   0.79861   0.57949   0.00000  Uiso   1.00
H954   H     0.02394   0.88113   0.81013   0.00000  Uiso   1.00
H955   H     0.25952   0.75879   0.91354   0.00000  Uiso   1.00
H956   H     0.29138   0.77299   0.98670   0.00000  Uiso   1.00
H957   H     0.08372   0.83748   0.56772   0.00000  Uiso   1.00
H958   H     0.02603   0.85206   0.52355   0.00000  Uiso   1.00
H959   H     0.21401   0.96031   0.66901   0.00000  Uiso   1.00
N960   N     0.04760   0.83334   0.75002   0.00000  Uiso   1.00
N961   N     0.28573   0.83331   0.75001   0.00000  Uiso   1.00
N962   N     0.08604   0.73169   0.88597   0.00000  Uiso   1.00
N963   N     0.08728   0.93834   0.88701   0.00000  Uiso   1.00
N964   N     0.29695   0.75445   0.65270   0.00000  Uiso   1.00
N965   N     0.09754   0.75508   0.65221   0.00000  Uiso   1.00
N966   N     0.23776   0.91195   0.84859   0.00000  Uiso   1.00
O967   O     0.12846   0.89442   0.75001   0.00000  Uiso   1.00
O968   O     0.20490   0.89441   0.75001   0.00000  Uiso   1.00
O969   O     0.10947   0.83333   0.82681   0.00000  Uiso   1.00
O970   O     0.18591   0.83332   0.82681   0.00000  Uiso   1.00
O971   O     0.12843   0.77226   0.75000   0.00000  Uiso   1.00
O972   O     0.20488   0.77225   0.75000   0.00000  Uiso   1.00
O973   O     0.14742   0.83335   0.67319   0.00000  Uiso   1.00
O974   O     0.22387   0.83334   0.67319   0.00000  Uiso   1.00
Zn975  Zn    0.11562   0.83334   0.75000   0.00000  Uiso   1.00
Zn976  Zn    0.21771   0.83333   0.75000   0.00000  Uiso   1.00
C977   C     0.49975   0.91314   0.75063   0.00000  Uiso   1.00
C978   C     0.45536   0.82551   0.91132   0.00000  Uiso   1.00
C979   C     0.52649   0.97773   0.70543   0.00000  Uiso   1.00
C980   C     0.47320   0.83083   0.85215   0.00000  Uiso   1.00
C981   C     0.52615   0.68738   0.70490   0.00000  Uiso   1.00
C982   C     0.49916   0.70935   0.75192   0.00000  Uiso   1.00
C983   C     0.47084   0.68909   0.79962   0.00000  Uiso   1.00
C984   C     0.47078   0.97879   0.79985   0.00000  Uiso   1.00
C985   C     0.49900   0.95725   0.75244   0.00000  Uiso   1.00
C986   C     0.65301   0.80656   0.71654   0.00000  Uiso   1.00
C987   C     0.36770   0.80655   0.71652   0.00000  Uiso   1.00
C988   C     0.47665   0.82233   0.99247   0.00000  Uiso   1.00
C989   C     0.34713   0.85992   0.78343   0.00000  Uiso   1.00
C990   C     0.63265   0.86003   0.78350   0.00000  Uiso   1.00
C991   C     0.49996   0.75350   0.75007   0.00000  Uiso   1.00
C992   C     0.52677   0.83363   0.64771   0.00000  Uiso   1.00
C993   C     0.59228   0.79067   0.50820   0.00000  Uiso   1.00
C994   C     0.54324   0.82852   0.58881   0.00000  Uiso   1.00
C995   C     0.40887   0.83959   0.94280   0.00000  Uiso   1.00
C996   C     0.39548   0.84239   0.99912   0.00000  Uiso   1.00
C997   C     0.42927   0.83496   0.52385   0.00000  Uiso   1.00
C998   C     0.44226   0.71286   0.84765   0.00000  Uiso   1.00
C999   C     0.48666   0.81091   0.93753   0.00000  Uiso   1.00
C1000  C     0.44286   0.95625   0.84832   0.00000  Uiso   1.00
C1001  C     0.63993   0.77788   0.68125   0.00000  Uiso   1.00
C1002  C     0.40289   0.77802   0.68092   0.00000  Uiso   1.00
C1003  C     0.59847   0.88877   0.81950   0.00000  Uiso   1.00
C1004  C     0.51393   0.81913   0.51419   0.00000  Uiso   1.00
C1005  C     0.55636   0.79614   0.98538   0.00000  Uiso   1.00
C1006  C     0.56178   0.77817   0.93484   0.00000  Uiso   1.00
C1007  C     0.52740   0.78530   0.91095   0.00000  Uiso   1.00
C1008  C     0.51087   0.83896   0.56316   0.00000  Uiso   1.00
C1009  C     0.58512   0.80589   0.56054   0.00000  Uiso   1.00
F1010  F     0.55055   0.70759   0.65815   0.00000  Uiso   1.00
F1011  F     0.47737   0.86927   0.58622   0.00000  Uiso   1.00
F1012  F     0.37661   0.85129   0.91935   0.00000  Uiso   1.00
F1013  F     0.53227   0.76413   0.86402   0.00000  Uiso   1.00
H1014  H     0.61118   0.79861   0.57949   0.00000  Uiso   1.00
H1015  H     0.35728   0.88113   0.81013   0.00000  Uiso   1.00
H1016  H     0.59285   0.75879   0.91354   0.00000  Uiso   1.00
H1017  H     0.62471   0.77299   0.98670   0.00000  Uiso   1.00
H1018  H     0.41705   0.83748   0.56772   0.00000  Uiso   1.00
H1019  H     0.35936   0.85206   0.52355   0.00000  Uiso   1.00
H1020  H     0.54735   0.96031   0.66901   0.00000  Uiso   1.00
N1021  N     0.38093   0.83334   0.75002   0.00000  Uiso   1.00
N1022  N     0.61906   0.83331   0.75001   0.00000  Uiso   1.00
N1023  N     0.41937   0.73169   0.88597   0.00000  Uiso   1.00
N1024  N     0.42061   0.93834   0.88701   0.00000  Uiso   1.00
N1025  N     0.63029   0.75445   0.65270   0.00000  Uiso   1.00
N1026  N     0.43087   0.75508   0.65221   0.00000  Uiso   1.00
N1027  N     0.57109   0.91195   0.84859   0.00000  Uiso   1.00
O1028  O     0.46179   0.89442   0.75001   0.00000  Uiso   1.00
O1029  O     0.53823   0.89441   0.75001   0.00000  Uiso   1.00
O1030  O     0.44280   0.83333   0.82681   0.00000  Uiso   1.00
O1031  O     0.51924   0.83332   0.82681   0.00000  Uiso   1.00
O1032  O     0.46177   0.77226   0.75000   0.00000  Uiso   1.00
O1033  O     0.53821   0.77225   0.75000   0.00000  Uiso   1.00
O1034  O     0.48076   0.83335   0.67319   0.00000  Uiso   1.00
O1035  O     0.55720   0.83334   0.67319   0.00000  Uiso   1.00
Zn1036 Zn    0.44896   0.83334   0.75000   0.00000  Uiso   1.00
Zn1037 Zn    0.55104   0.83333   0.75000   0.00000  Uiso   1.00
C1038  C     0.83308   0.91314   0.75063   0.00000  Uiso   1.00
C1039  C     0.78869   0.82551   0.91132   0.00000  Uiso   1.00
C1040  C     0.85983   0.97773   0.70543   0.00000  Uiso   1.00
C1041  C     0.80654   0.83083   0.85215   0.00000  Uiso   1.00
C1042  C     0.85949   0.68738   0.70490   0.00000  Uiso   1.00
C1043  C     0.83250   0.70935   0.75192   0.00000  Uiso   1.00
C1044  C     0.80417   0.68909   0.79962   0.00000  Uiso   1.00
C1045  C     0.80411   0.97879   0.79985   0.00000  Uiso   1.00
C1046  C     0.83233   0.95725   0.75244   0.00000  Uiso   1.00
C1047  C     0.98634   0.80656   0.71654   0.00000  Uiso   1.00
C1048  C     0.70103   0.80655   0.71652   0.00000  Uiso   1.00
C1049  C     0.80998   0.82233   0.99247   0.00000  Uiso   1.00
C1050  C     0.68046   0.85992   0.78343   0.00000  Uiso   1.00
C1051  C     0.96599   0.86003   0.78350   0.00000  Uiso   1.00
C1052  C     0.83330   0.75350   0.75007   0.00000  Uiso   1.00
C1053  C     0.86011   0.83363   0.64771   0.00000  Uiso   1.00
C1054  C     0.92562   0.79067   0.50820   0.00000  Uiso   1.00
C1055  C     0.87658   0.82852   0.58881   0.00000  Uiso   1.00
C1056  C     0.74220   0.83959   0.94280   0.00000  Uiso   1.00
C1057  C     0.72882   0.84239   0.99912   0.00000  Uiso   1.00
C1058  C     0.76260   0.83496   0.52385   0.00000  Uiso   1.00
C1059  C     0.77560   0.71286   0.84765   0.00000  Uiso   1.00
C1060  C     0.81999   0.81091   0.93753   0.00000  Uiso   1.00
C1061  C     0.77619   0.95625   0.84832   0.00000  Uiso   1.00
C1062  C     0.97326   0.77788   0.68125   0.00000  Uiso   1.00
C1063  C     0.73622   0.77802   0.68092   0.00000  Uiso   1.00
C1064  C     0.93180   0.88877   0.81950   0.00000  Uiso   1.00
C1065  C     0.84727   0.81913   0.51419   0.00000  Uiso   1.00
C1066  C     0.88970   0.79614   0.98538   0.00000  Uiso   1.00
C1067  C     0.89512   0.77817   0.93484   0.00000  Uiso   1.00
C1068  C     0.86073   0.78530   0.91095   0.00000  Uiso   1.00
C1069  C     0.84421   0.83896   0.56316   0.00000  Uiso   1.00
C1070  C     0.91846   0.80589   0.56054   0.00000  Uiso   1.00
F1071  F     0.88388   0.70759   0.65815   0.00000  Uiso   1.00
F1072  F     0.81070   0.86927   0.58622   0.00000  Uiso   1.00
F1073  F     0.70995   0.85129   0.91935   0.00000  Uiso   1.00
F1074  F     0.86561   0.76413   0.86402   0.00000  Uiso   1.00
H1075  H     0.94452   0.79861   0.57949   0.00000  Uiso   1.00
H1076  H     0.69061   0.88113   0.81013   0.00000  Uiso   1.00
H1077  H     0.92619   0.75879   0.91354   0.00000  Uiso   1.00
H1078  H     0.95804   0.77299   0.98670   0.00000  Uiso   1.00
H1079  H     0.75039   0.83748   0.56772   0.00000  Uiso   1.00
H1080  H     0.69270   0.85206   0.52355   0.00000  Uiso   1.00
H1081  H     0.88068   0.96031   0.66901   0.00000  Uiso   1.00
N1082  N     0.71426   0.83334   0.75002   0.00000  Uiso   1.00
N1083  N     0.95239   0.83331   0.75001   0.00000  Uiso   1.00
N1084  N     0.75270   0.73169   0.88597   0.00000  Uiso   1.00
N1085  N     0.75394   0.93834   0.88701   0.00000  Uiso   1.00
N1086  N     0.96362   0.75445   0.65270   0.00000  Uiso   1.00
N1087  N     0.76421   0.75508   0.65221   0.00000  Uiso   1.00
N1088  N     0.90443   0.91195   0.84859   0.00000  Uiso   1.00
O1089  O     0.79512   0.89442   0.75001   0.00000  Uiso   1.00
O1090  O     0.87157   0.89441   0.75001   0.00000  Uiso   1.00
O1091  O     0.77613   0.83333   0.82681   0.00000  Uiso   1.00
O1092  O     0.85258   0.83332   0.82681   0.00000  Uiso   1.00
O1093  O     0.79510   0.77226   0.75000   0.00000  Uiso   1.00
O1094  O     0.87154   0.77225   0.75000   0.00000  Uiso   1.00
O1095  O     0.81409   0.83335   0.67319   0.00000  Uiso   1.00
O1096  O     0.89053   0.83334   0.67319   0.00000  Uiso   1.00
Zn1097 Zn    0.78229   0.83334   0.75000   0.00000  Uiso   1.00
Zn1098 Zn    0.88438   0.83333   0.75000   0.00000  Uiso   1.00
loop_
_geom_bond_atom_site_label_1
_geom_bond_atom_site_label_2
_geom_bond_distance
_geom_bond_site_symmetry_2
_ccdc_geom_bond_type
C1     C9      1.405   .     S
C1     O53     1.282   .     A
C1     O52     1.282   .     A
C2     C4      1.465   .     S
C2     C19     1.409   .     A
C2     C23     1.413   .     A
C3     C9      1.389   .     A
C3     H44     1.085   .     S
C3     C188    1.370   .     S
C4     O55     1.300   .     A
C4     O54     1.295   .     A
C5     F34     1.357   .     S
C5     C6      1.393   .     A
C5     C369    1.370   1_545 S
C6     C7      1.406   .     A
C6     C15     1.408   .     S
C7     C22     1.452   .     S
C7     C374    1.390   1_545 S
C8     C24     1.452   .     S
C8     C9      1.403   .     A
C8     C190    1.390   .     S
C10    N46     1.369   .     A
C10    C25     1.439   .     S
C10    C72     1.426   .     S
C11    N45     1.370   .     A
C11    C26     1.444   .     S
C11    C132    1.426   1_455 S
C12    C23     1.407   .     A
C12    C570    1.416   .     S
C12    C577    1.413   .     S
C13    N45     1.363   .     A
C13    H39     1.083   .     S
C13    C136    1.419   1_455 S
C14    C27     1.438   .     S
C14    N46     1.374   .     A
C14    C74     1.419   .     S
C15    O56     1.281   .     A
C15    O57     1.285   .     A
C16    O58     1.297   .     A
C16    C18     1.454   .     S
C16    O59     1.296   .     A
C17    C33     1.393   .     A
C17    C578    1.403   1_554 S
C17    H590    1.084   1_554 S
C18    C33     1.399   .     A
C18    C32     1.391   .     A
C19    C20     1.389   .     A
C19    F36     1.358   .     S
C20    C570    1.391   .     S
C20    H592    1.083   .     S
C21    H42     1.080   .     S
C21    C561    1.416   1_554 S
C21    C569    1.391   1_554 S
C22    N47     1.157   .     T
C23    C31     1.418   .     A
C24    N48     1.157   .     T
C25    N49     1.156   .     T
C26    N50     1.158   .     T
C27    N51     1.158   .     T
C28    C32     1.397   .     A
C28    C561    1.413   1_554 S
C28    C578    1.420   1_554 S
C29    C30     1.392   .     A
C29    C566    1.403   .     S
C29    C577    1.420   .     S
C30    C31     1.389   .     A
C30    H40     1.084   .     S
C31    F37     1.357   .     S
C32    F35     1.360   .     S
C33    H38     1.080   .     S
H41    C566    1.084   .     S
H43    C569    1.083   1_554 S
N45    Zn60    2.020   .     S
N46    Zn61    2.020   .     S
O52    Zn60    1.984   .     S
O53    Zn61    1.981   .     S
O54    Zn60    1.955   .     S
O55    Zn61    1.902   .     S
O56    Zn60    1.981   .     S
O57    Zn61    1.984   .     S
O58    Zn60    1.902   .     S
O59    Zn61    1.955   .     S
C62    C70     1.405   .     S
C62    O114    1.282   .     A
C62    O113    1.282   .     A
C63    C65     1.465   .     S
C63    C80     1.409   .     A
C63    C84     1.413   .     A
C64    C70     1.389   .     A
C64    H105    1.085   .     S
C64    C249    1.370   .     S
C65    O116    1.300   .     A
C65    O115    1.295   .     A
C66    F95     1.357   .     S
C66    C67     1.393   .     A
C66    C430    1.370   1_545 S
C67    C68     1.406   .     A
C67    C76     1.408   .     S
C68    C83     1.452   .     S
C68    C435    1.390   1_545 S
C69    C85     1.452   .     S
C69    C70     1.403   .     A
C69    C251    1.390   .     S
C71    N107    1.369   .     A
C71    C86     1.439   .     S
C71    C133    1.426   .     S
C72    N106    1.370   .     A
C72    C87     1.444   .     S
C73    C84     1.407   .     A
C73    C631    1.416   .     S
C73    C638    1.413   .     S
C74    N106    1.363   .     A
C74    H100    1.083   .     S
C75    C88     1.438   .     S
C75    N107    1.374   .     A
C75    C135    1.419   .     S
C76    O117    1.281   .     A
C76    O118    1.285   .     A
C77    O119    1.297   .     A
C77    C79     1.454   .     S
C77    O120    1.296   .     A
C78    C94     1.393   .     A
C78    C639    1.403   1_554 S
C78    H651    1.084   1_554 S
C79    C94     1.399   .     A
C79    C93     1.391   .     A
C80    C81     1.389   .     A
C80    F97     1.358   .     S
C81    C631    1.391   .     S
C81    H653    1.083   .     S
C82    H103    1.080   .     S
C82    C622    1.416   1_554 S
C82    C630    1.391   1_554 S
C83    N108    1.157   .     T
C84    C92     1.418   .     A
C85    N109    1.157   .     T
C86    N110    1.156   .     T
C87    N111    1.158   .     T
C88    N112    1.158   .     T
C89    C93     1.397   .     A
C89    C622    1.413   1_554 S
C89    C639    1.420   1_554 S
C90    C91     1.392   .     A
C90    C627    1.403   .     S
C90    C638    1.420   .     S
C91    C92     1.389   .     A
C91    H101    1.084   .     S
C92    F98     1.357   .     S
C93    F96     1.360   .     S
C94    H99     1.080   .     S
H102   C627    1.084   .     S
H104   C630    1.083   1_554 S
N106   Zn121   2.020   .     S
N107   Zn122   2.020   .     S
O113   Zn121   1.984   .     S
O114   Zn122   1.981   .     S
O115   Zn121   1.955   .     S
O116   Zn122   1.902   .     S
O117   Zn121   1.981   .     S
O118   Zn122   1.984   .     S
O119   Zn121   1.902   .     S
O120   Zn122   1.955   .     S
C123   C131    1.405   .     S
C123   O175    1.282   .     A
C123   O174    1.282   .     A
C124   C126    1.465   .     S
C124   C141    1.409   .     A
C124   C145    1.413   .     A
C125   C131    1.389   .     A
C125   H166    1.085   .     S
C125   C310    1.370   .     S
C126   O177    1.300   .     A
C126   O176    1.295   .     A
C127   F156    1.357   .     S
C127   C128    1.393   .     A
C127   C491    1.370   1_545 S
C128   C129    1.406   .     A
C128   C137    1.408   .     S
C129   C144    1.452   .     S
C129   C496    1.390   1_545 S
C130   C146    1.452   .     S
C130   C131    1.403   .     A
C130   C312    1.390   .     S
C132   N168    1.369   .     A
C132   C147    1.439   .     S
C132   C11     1.426   1_655 S
C133   N167    1.370   .     A
C133   C148    1.444   .     S
C134   C145    1.407   .     A
C134   C692    1.416   .     S
C134   C699    1.413   .     S
C135   N167    1.363   .     A
C135   H161    1.083   .     S
C136   C149    1.438   .     S
C136   N168    1.374   .     A
C136   C13     1.419   1_655 S
C137   O178    1.281   .     A
C137   O179    1.285   .     A
C138   O180    1.297   .     A
C138   C140    1.454   .     S
C138   O181    1.296   .     A
C139   C155    1.393   .     A
C139   C700    1.403   1_554 S
C139   H712    1.084   1_554 S
C140   C155    1.399   .     A
C140   C154    1.391   .     A
C141   C142    1.389   .     A
C141   F158    1.358   .     S
C142   C692    1.391   .     S
C142   H714    1.083   .     S
C143   H164    1.080   .     S
C143   C683    1.416   1_554 S
C143   C691    1.391   1_554 S
C144   N169    1.157   .     T
C145   C153    1.418   .     A
C146   N170    1.157   .     T
C147   N171    1.156   .     T
C148   N172    1.158   .     T
C149   N173    1.158   .     T
C150   C154    1.397   .     A
C150   C683    1.413   1_554 S
C150   C700    1.420   1_554 S
C151   C152    1.392   .     A
C151   C688    1.403   .     S
C151   C699    1.420   .     S
C152   C153    1.389   .     A
C152   H162    1.084   .     S
C153   F159    1.357   .     S
C154   F157    1.360   .     S
C155   H160    1.080   .     S
H163   C688    1.084   .     S
H165   C691    1.083   1_554 S
N167   Zn182   2.020   .     S
N168   Zn183   2.020   .     S
O174   Zn182   1.984   .     S
O175   Zn183   1.981   .     S
O176   Zn182   1.955   .     S
O177   Zn183   1.902   .     S
O178   Zn182   1.981   .     S
O179   Zn183   1.984   .     S
O180   Zn182   1.902   .     S
O181   Zn183   1.955   .     S
C184   C192    1.405   .     S
C184   O236    1.282   .     A
C184   O235    1.282   .     A
C185   C187    1.465   .     S
C185   C202    1.409   .     A
C185   C206    1.413   .     A
C186   C192    1.389   .     A
C186   H227    1.085   .     S
C186   C371    1.370   .     S
C187   O238    1.300   .     A
C187   O237    1.295   .     A
C188   F217    1.357   .     S
C188   C189    1.393   .     A
C189   C190    1.406   .     A
C189   C198    1.408   .     S
C190   C205    1.452   .     S
C191   C207    1.452   .     S
C191   C192    1.403   .     A
C191   C373    1.390   .     S
C193   N229    1.369   .     A
C193   C208    1.439   .     S
C193   C255    1.426   .     S
C194   N228    1.370   .     A
C194   C209    1.444   .     S
C194   C315    1.426   1_455 S
C195   C206    1.407   .     A
C195   C753    1.416   .     S
C195   C760    1.413   .     S
C196   N228    1.363   .     A
C196   H222    1.083   .     S
C196   C319    1.419   1_455 S
C197   C210    1.438   .     S
C197   N229    1.374   .     A
C197   C257    1.419   .     S
C198   O239    1.281   .     A
C198   O240    1.285   .     A
C199   O241    1.297   .     A
C199   C201    1.454   .     S
C199   O242    1.296   .     A
C200   C216    1.393   .     A
C200   C761    1.403   1_554 S
C200   H773    1.084   1_554 S
C201   C216    1.399   .     A
C201   C215    1.391   .     A
C202   C203    1.389   .     A
C202   F219    1.358   .     S
C203   C753    1.391   .     S
C203   H775    1.083   .     S
C204   H225    1.080   .     S
C204   C744    1.416   1_554 S
C204   C752    1.391   1_554 S
C205   N230    1.157   .     T
C206   C214    1.418   .     A
C207   N231    1.157   .     T
C208   N232    1.156   .     T
C209   N233    1.158   .     T
C210   N234    1.158   .     T
C211   C215    1.397   .     A
C211   C744    1.413   1_554 S
C211   C761    1.420   1_554 S
C212   C213    1.392   .     A
C212   C749    1.403   .     S
C212   C760    1.420   .     S
C213   C214    1.389   .     A
C213   H223    1.084   .     S
C214   F220    1.357   .     S
C215   F218    1.360   .     S
C216   H221    1.080   .     S
H224   C749    1.084   .     S
H226   C752    1.083   1_554 S
N228   Zn243   2.020   .     S
N229   Zn244   2.020   .     S
O235   Zn243   1.984   .     S
O236   Zn244   1.981   .     S
O237   Zn243   1.955   .     S
O238   Zn244   1.902   .     S
O239   Zn243   1.981   .     S
O240   Zn244   1.984   .     S
O241   Zn243   1.902   .     S
O242   Zn244   1.955   .     S
C245   C253    1.405   .     S
C245   O297    1.282   .     A
C245   O296    1.282   .     A
C246   C248    1.465   .     S
C246   C263    1.409   .     A
C246   C267    1.413   .     A
C247   C253    1.389   .     A
C247   H288    1.085   .     S
C247   C432    1.370   .     S
C248   O299    1.300   .     A
C248   O298    1.295   .     A
C249   F278    1.357   .     S
C249   C250    1.393   .     A
C250   C251    1.406   .     A
C250   C259    1.408   .     S
C251   C266    1.452   .     S
C252   C268    1.452   .     S
C252   C253    1.403   .     A
C252   C434    1.390   .     S
C254   N290    1.369   .     A
C254   C269    1.439   .     S
C254   C316    1.426   .     S
C255   N289    1.370   .     A
C255   C270    1.444   .     S
C256   C267    1.407   .     A
C256   C814    1.416   .     S
C256   C821    1.413   .     S
C257   N289    1.363   .     A
C257   H283    1.083   .     S
C258   C271    1.438   .     S
C258   N290    1.374   .     A
C258   C318    1.419   .     S
C259   O300    1.281   .     A
C259   O301    1.285   .     A
C260   O302    1.297   .     A
C260   C262    1.454   .     S
C260   O303    1.296   .     A
C261   C277    1.393   .     A
C261   C822    1.403   1_554 S
C261   H834    1.084   1_554 S
C262   C277    1.399   .     A
C262   C276    1.391   .     A
C263   C264    1.389   .     A
C263   F280    1.358   .     S
C264   C814    1.391   .     S
C264   H836    1.083   .     S
C265   H286    1.080   .     S
C265   C805    1.416   1_554 S
C265   C813    1.391   1_554 S
C266   N291    1.157   .     T
C267   C275    1.418   .     A
C268   N292    1.157   .     T
C269   N293    1.156   .     T
C270   N294    1.158   .     T
C271   N295    1.158   .     T
C272   C276    1.397   .     A
C272   C805    1.413   1_554 S
C272   C822    1.420   1_554 S
C273   C274    1.392   .     A
C273   C810    1.403   .     S
C273   C821    1.420   .     S
C274   C275    1.389   .     A
C274   H284    1.084   .     S
C275   F281    1.357   .     S
C276   F279    1.360   .     S
C277   H282    1.080   .     S
H285   C810    1.084   .     S
H287   C813    1.083   1_554 S
N289   Zn304   2.020   .     S
N290   Zn305   2.020   .     S
O296   Zn304   1.984   .     S
O297   Zn305   1.981   .     S
O298   Zn304   1.955   .     S
O299   Zn305   1.902   .     S
O300   Zn304   1.981   .     S
O301   Zn305   1.984   .     S
O302   Zn304   1.902   .     S
O303   Zn305   1.955   .     S
C306   C314    1.405   .     S
C306   O358    1.282   .     A
C306   O357    1.282   .     A
C307   C309    1.465   .     S
C307   C324    1.409   .     A
C307   C328    1.413   .     A
C308   C314    1.389   .     A
C308   H349    1.085   .     S
C308   C493    1.370   .     S
C309   O360    1.300   .     A
C309   O359    1.295   .     A
C310   F339    1.357   .     S
C310   C311    1.393   .     A
C311   C312    1.406   .     A
C311   C320    1.408   .     S
C312   C327    1.452   .     S
C313   C329    1.452   .     S
C313   C314    1.403   .     A
C313   C495    1.390   .     S
C315   N351    1.369   .     A
C315   C330    1.439   .     S
C315   C194    1.426   1_655 S
C316   N350    1.370   .     A
C316   C331    1.444   .     S
C317   C328    1.407   .     A
C317   C875    1.416   .     S
C317   C882    1.413   .     S
C318   N350    1.363   .     A
C318   H344    1.083   .     S
C319   C332    1.438   .     S
C319   N351    1.374   .     A
C319   C196    1.419   1_655 S
C320   O361    1.281   .     A
C320   O362    1.285   .     A
C321   O363    1.297   .     A
C321   C323    1.454   .     S
C321   O364    1.296   .     A
C322   C338    1.393   .     A
C322   C883    1.403   1_554 S
C322   H895    1.084   1_554 S
C323   C338    1.399   .     A
C323   C337    1.391   .     A
C324   C325    1.389   .     A
C324   F341    1.358   .     S
C325   C875    1.391   .     S
C325   H897    1.083   .     S
C326   H347    1.080   .     S
C326   C866    1.416   1_554 S
C326   C874    1.391   1_554 S
C327   N352    1.157   .     T
C328   C336    1.418   .     A
C329   N353    1.157   .     T
C330   N354    1.156   .     T
C331   N355    1.158   .     T
C332   N356    1.158   .     T
C333   C337    1.397   .     A
C333   C866    1.413   1_554 S
C333   C883    1.420   1_554 S
C334   C335    1.392   .     A
C334   C871    1.403   .     S
C334   C882    1.420   .     S
C335   C336    1.389   .     A
C335   H345    1.084   .     S
C336   F342    1.357   .     S
C337   F340    1.360   .     S
C338   H343    1.080   .     S
H346   C871    1.084   .     S
H348   C874    1.083   1_554 S
N350   Zn365   2.020   .     S
N351   Zn366   2.020   .     S
O357   Zn365   1.984   .     S
O358   Zn366   1.981   .     S
O359   Zn365   1.955   .     S
O360   Zn366   1.902   .     S
O361   Zn365   1.981   .     S
O362   Zn366   1.984   .     S
O363   Zn365   1.902   .     S
O364   Zn366   1.955   .     S
C367   C375    1.405   .     S
C367   O419    1.282   .     A
C367   O418    1.282   .     A
C368   C370    1.465   .     S
C368   C385    1.409   .     A
C368   C389    1.413   .     A
C369   C375    1.389   .     A
C369   H410    1.085   .     S
C369   C5      1.370   1_565 S
C370   O421    1.300   .     A
C370   O420    1.295   .     A
C371   F400    1.357   .     S
C371   C372    1.393   .     A
C372   C373    1.406   .     A
C372   C381    1.408   .     S
C373   C388    1.452   .     S
C374   C390    1.452   .     S
C374   C375    1.403   .     A
C374   C7      1.390   1_565 S
C376   N412    1.369   .     A
C376   C391    1.439   .     S
C376   C438    1.426   .     S
C377   N411    1.370   .     A
C377   C392    1.444   .     S
C377   C498    1.426   1_455 S
C378   C389    1.407   .     A
C378   C936    1.416   .     S
C378   C943    1.413   .     S
C379   N411    1.363   .     A
C379   H405    1.083   .     S
C379   C502    1.419   1_455 S
C380   C393    1.438   .     S
C380   N412    1.374   .     A
C380   C440    1.419   .     S
C381   O422    1.281   .     A
C381   O423    1.285   .     A
C382   O424    1.297   .     A
C382   C384    1.454   .     S
C382   O425    1.296   .     A
C383   C399    1.393   .     A
C383   C944    1.403   1_554 S
C383   H956    1.084   1_554 S
C384   C399    1.399   .     A
C384   C398    1.391   .     A
C385   C386    1.389   .     A
C385   F402    1.358   .     S
C386   C936    1.391   .     S
C386   H958    1.083   .     S
C387   H408    1.080   .     S
C387   C927    1.416   1_554 S
C387   C935    1.391   1_554 S
C388   N413    1.157   .     T
C389   C397    1.418   .     A
C390   N414    1.157   .     T
C391   N415    1.156   .     T
C392   N416    1.158   .     T
C393   N417    1.158   .     T
C394   C398    1.397   .     A
C394   C927    1.413   1_554 S
C394   C944    1.420   1_554 S
C395   C396    1.392   .     A
C395   C932    1.403   .     S
C395   C943    1.420   .     S
C396   C397    1.389   .     A
C396   H406    1.084   .     S
C397   F403    1.357   .     S
C398   F401    1.360   .     S
C399   H404    1.080   .     S
H407   C932    1.084   .     S
H409   C935    1.083   1_554 S
N411   Zn426   2.020   .     S
N412   Zn427   2.020   .     S
O418   Zn426   1.984   .     S
O419   Zn427   1.981   .     S
O420   Zn426   1.955   .     S
O421   Zn427   1.902   .     S
O422   Zn426   1.981   .     S
O423   Zn427   1.984   .     S
O424   Zn426   1.902   .     S
O425   Zn427   1.955   .     S
C428   C436    1.405   .     S
C428   O480    1.282   .     A
C428   O479    1.282   .     A
C429   C431    1.465   .     S
C429   C446    1.409   .     A
C429   C450    1.413   .     A
C430   C436    1.389   .     A
C430   H471    1.085   .     S
C430   C66     1.370   1_565 S
C431   O482    1.300   .     A
C431   O481    1.295   .     A
C432   F461    1.357   .     S
C432   C433    1.393   .     A
C433   C434    1.406   .     A
C433   C442    1.408   .     S
C434   C449    1.452   .     S
C435   C451    1.452   .     S
C435   C436    1.403   .     A
C435   C68     1.390   1_565 S
C437   N473    1.369   .     A
C437   C452    1.439   .     S
C437   C499    1.426   .     S
C438   N472    1.370   .     A
C438   C453    1.444   .     S
C439   C450    1.407   .     A
C439   C997    1.416   .     S
C439   C1004   1.413   .     S
C440   N472    1.363   .     A
C440   H466    1.083   .     S
C441   C454    1.438   .     S
C441   N473    1.374   .     A
C441   C501    1.419   .     S
C442   O483    1.281   .     A
C442   O484    1.285   .     A
C443   O485    1.297   .     A
C443   C445    1.454   .     S
C443   O486    1.296   .     A
C444   C460    1.393   .     A
C444   C1005   1.403   1_554 S
C444   H1017   1.084   1_554 S
C445   C460    1.399   .     A
C445   C459    1.391   .     A
C446   C447    1.389   .     A
C446   F463    1.358   .     S
C447   C997    1.391   .     S
C447   H1019   1.083   .     S
C448   H469    1.080   .     S
C448   C988    1.416   1_554 S
C448   C996    1.391   1_554 S
C449   N474    1.157   .     T
C450   C458    1.418   .     A
C451   N475    1.157   .     T
C452   N476    1.156   .     T
C453   N477    1.158   .     T
C454   N478    1.158   .     T
C455   C459    1.397   .     A
C455   C988    1.413   1_554 S
C455   C1005   1.420   1_554 S
C456   C457    1.392   .     A
C456   C993    1.403   .     S
C456   C1004   1.420   .     S
C457   C458    1.389   .     A
C457   H467    1.084   .     S
C458   F464    1.357   .     S
C459   F462    1.360   .     S
C460   H465    1.080   .     S
H468   C993    1.084   .     S
H470   C996    1.083   1_554 S
N472   Zn487   2.020   .     S
N473   Zn488   2.020   .     S
O479   Zn487   1.984   .     S
O480   Zn488   1.981   .     S
O481   Zn487   1.955   .     S
O482   Zn488   1.902   .     S
O483   Zn487   1.981   .     S
O484   Zn488   1.984   .     S
O485   Zn487   1.902   .     S
O486   Zn488   1.955   .     S
C489   C497    1.405   .     S
C489   O541    1.282   .     A
C489   O540    1.282   .     A
C490   C492    1.465   .     S
C490   C507    1.409   .     A
C490   C511    1.413   .     A
C491   C497    1.389   .     A
C491   H532    1.085   .     S
C491   C127    1.370   1_565 S
C492   O543    1.300   .     A
C492   O542    1.295   .     A
C493   F522    1.357   .     S
C493   C494    1.393   .     A
C494   C495    1.406   .     A
C494   C503    1.408   .     S
C495   C510    1.452   .     S
C496   C512    1.452   .     S
C496   C497    1.403   .     A
C496   C129    1.390   1_565 S
C498   N534    1.369   .     A
C498   C513    1.439   .     S
C498   C377    1.426   1_655 S
C499   N533    1.370   .     A
C499   C514    1.444   .     S
C500   C511    1.407   .     A
C500   C1058   1.416   .     S
C500   C1065   1.413   .     S
C501   N533    1.363   .     A
C501   H527    1.083   .     S
C502   C515    1.438   .     S
C502   N534    1.374   .     A
C502   C379    1.419   1_655 S
C503   O544    1.281   .     A
C503   O545    1.285   .     A
C504   O546    1.297   .     A
C504   C506    1.454   .     S
C504   O547    1.296   .     A
C505   C521    1.393   .     A
C505   C1066   1.403   1_554 S
C505   H1078   1.084   1_554 S
C506   C521    1.399   .     A
C506   C520    1.391   .     A
C507   C508    1.389   .     A
C507   F524    1.358   .     S
C508   C1058   1.391   .     S
C508   H1080   1.083   .     S
C509   H530    1.080   .     S
C509   C1049   1.416   1_554 S
C509   C1057   1.391   1_554 S
C510   N535    1.157   .     T
C511   C519    1.418   .     A
C512   N536    1.157   .     T
C513   N537    1.156   .     T
C514   N538    1.158   .     T
C515   N539    1.158   .     T
C516   C520    1.397   .     A
C516   C1049   1.413   1_554 S
C516   C1066   1.420   1_554 S
C517   C518    1.392   .     A
C517   C1054   1.403   .     S
C517   C1065   1.420   .     S
C518   C519    1.389   .     A
C518   H528    1.084   .     S
C519   F525    1.357   .     S
C520   F523    1.360   .     S
C521   H526    1.080   .     S
H529   C1054   1.084   .     S
H531   C1057   1.083   1_554 S
N533   Zn548   2.020   .     S
N534   Zn549   2.020   .     S
O540   Zn548   1.984   .     S
O541   Zn549   1.981   .     S
O542   Zn548   1.955   .     S
O543   Zn549   1.902   .     S
O544   Zn548   1.981   .     S
O545   Zn549   1.984   .     S
O546   Zn548   1.902   .     S
O547   Zn549   1.955   .     S
C550   C558    1.405   .     S
C550   O602    1.282   .     A
C550   O601    1.282   .     A
C551   C553    1.465   .     S
C551   C568    1.409   .     A
C551   C572    1.413   .     A
C552   C558    1.389   .     A
C552   H593    1.085   .     S
C552   C737    1.370   .     S
C553   O604    1.300   .     A
C553   O603    1.295   .     A
C554   F583    1.357   .     S
C554   C555    1.393   .     A
C554   C918    1.370   1_545 S
C555   C556    1.406   .     A
C555   C564    1.408   .     S
C556   C571    1.452   .     S
C556   C923    1.390   1_545 S
C557   C573    1.452   .     S
C557   C558    1.403   .     A
C557   C739    1.390   .     S
C559   N595    1.369   .     A
C559   C574    1.439   .     S
C559   C621    1.426   .     S
C560   N594    1.370   .     A
C560   C575    1.444   .     S
C560   C681    1.426   1_455 S
C561   C572    1.407   .     A
C561   C21     1.416   1_556 S
C561   C28     1.413   1_556 S
C562   N594    1.363   .     A
C562   H588    1.083   .     S
C562   C685    1.419   1_455 S
C563   C576    1.438   .     S
C563   N595    1.374   .     A
C563   C623    1.419   .     S
C564   O605    1.281   .     A
C564   O606    1.285   .     A
C565   O607    1.297   .     A
C565   C567    1.454   .     S
C565   O608    1.296   .     A
C566   C582    1.393   .     A
C567   C582    1.399   .     A
C567   C581    1.391   .     A
C568   C569    1.389   .     A
C568   F585    1.358   .     S
C569   C21     1.391   1_556 S
C569   H43     1.083   1_556 S
C570   H591    1.080   .     S
C571   N596    1.157   .     T
C572   C580    1.418   .     A
C573   N597    1.157   .     T
C574   N598    1.156   .     T
C575   N599    1.158   .     T
C576   N600    1.158   .     T
C577   C581    1.397   .     A
C578   C579    1.392   .     A
C578   C17     1.403   1_556 S
C578   C28     1.420   1_556 S
C579   C580    1.389   .     A
C579   H589    1.084   .     S
C580   F586    1.357   .     S
C581   F584    1.360   .     S
C582   H587    1.080   .     S
H590   C17     1.084   1_556 S
N594   Zn609   2.020   .     S
N595   Zn610   2.020   .     S
O601   Zn609   1.984   .     S
O602   Zn610   1.981   .     S
O603   Zn609   1.955   .     S
O604   Zn610   1.902   .     S
O605   Zn609   1.981   .     S
O606   Zn610   1.984   .     S
O607   Zn609   1.902   .     S
O608   Zn610   1.955   .     S
C611   C619    1.405   .     S
C611   O663    1.282   .     A
C611   O662    1.282   .     A
C612   C614    1.465   .     S
C612   C629    1.409   .     A
C612   C633    1.413   .     A
C613   C619    1.389   .     A
C613   H654    1.085   .     S
C613   C798    1.370   .     S
C614   O665    1.300   .     A
C614   O664    1.295   .     A
C615   F644    1.357   .     S
C615   C616    1.393   .     A
C615   C979    1.370   1_545 S
C616   C617    1.406   .     A
C616   C625    1.408   .     S
C617   C632    1.452   .     S
C617   C984    1.390   1_545 S
C618   C634    1.452   .     S
C618   C619    1.403   .     A
C618   C800    1.390   .     S
C620   N656    1.369   .     A
C620   C635    1.439   .     S
C620   C682    1.426   .     S
C621   N655    1.370   .     A
C621   C636    1.444   .     S
C622   C633    1.407   .     A
C622   C82     1.416   1_556 S
C622   C89     1.413   1_556 S
C623   N655    1.363   .     A
C623   H649    1.083   .     S
C624   C637    1.438   .     S
C624   N656    1.374   .     A
C624   C684    1.419   .     S
C625   O666    1.281   .     A
C625   O667    1.285   .     A
C626   O668    1.297   .     A
C626   C628    1.454   .     S
C626   O669    1.296   .     A
C627   C643    1.393   .     A
C628   C643    1.399   .     A
C628   C642    1.391   .     A
C629   C630    1.389   .     A
C629   F646    1.358   .     S
C630   C82     1.391   1_556 S
C630   H104    1.083   1_556 S
C631   H652    1.080   .     S
C632   N657    1.157   .     T
C633   C641    1.418   .     A
C634   N658    1.157   .     T
C635   N659    1.156   .     T
C636   N660    1.158   .     T
C637   N661    1.158   .     T
C638   C642    1.397   .     A
C639   C640    1.392   .     A
C639   C78     1.403   1_556 S
C639   C89     1.420   1_556 S
C640   C641    1.389   .     A
C640   H650    1.084   .     S
C641   F647    1.357   .     S
C642   F645    1.360   .     S
C643   H648    1.080   .     S
H651   C78     1.084   1_556 S
N655   Zn670   2.020   .     S
N656   Zn671   2.020   .     S
O662   Zn670   1.984   .     S
O663   Zn671   1.981   .     S
O664   Zn670   1.955   .     S
O665   Zn671   1.902   .     S
O666   Zn670   1.981   .     S
O667   Zn671   1.984   .     S
O668   Zn670   1.902   .     S
O669   Zn671   1.955   .     S
C672   C680    1.405   .     S
C672   O724    1.282   .     A
C672   O723    1.282   .     A
C673   C675    1.465   .     S
C673   C690    1.409   .     A
C673   C694    1.413   .     A
C674   C680    1.389   .     A
C674   H715    1.085   .     S
C674   C859    1.370   .     S
C675   O726    1.300   .     A
C675   O725    1.295   .     A
C676   F705    1.357   .     S
C676   C677    1.393   .     A
C676   C1040   1.370   1_545 S
C677   C678    1.406   .     A
C677   C686    1.408   .     S
C678   C693    1.452   .     S
C678   C1045   1.390   1_545 S
C679   C695    1.452   .     S
C679   C680    1.403   .     A
C679   C861    1.390   .     S
C681   N717    1.369   .     A
C681   C696    1.439   .     S
C681   C560    1.426   1_655 S
C682   N716    1.370   .     A
C682   C697    1.444   .     S
C683   C694    1.407   .     A
C683   C143    1.416   1_556 S
C683   C150    1.413   1_556 S
C684   N716    1.363   .     A
C684   H710    1.083   .     S
C685   C698    1.438   .     S
C685   N717    1.374   .     A
C685   C562    1.419   1_655 S
C686   O727    1.281   .     A
C686   O728    1.285   .     A
C687   O729    1.297   .     A
C687   C689    1.454   .     S
C687   O730    1.296   .     A
C688   C704    1.393   .     A
C689   C704    1.399   .     A
C689   C703    1.391   .     A
C690   C691    1.389   .     A
C690   F707    1.358   .     S
C691   C143    1.391   1_556 S
C691   H165    1.083   1_556 S
C692   H713    1.080   .     S
C693   N718    1.157   .     T
C694   C702    1.418   .     A
C695   N719    1.157   .     T
C696   N720    1.156   .     T
C697   N721    1.158   .     T
C698   N722    1.158   .     T
C699   C703    1.397   .     A
C700   C701    1.392   .     A
C700   C139    1.403   1_556 S
C700   C150    1.420   1_556 S
C701   C702    1.389   .     A
C701   H711    1.084   .     S
C702   F708    1.357   .     S
C703   F706    1.360   .     S
C704   H709    1.080   .     S
H712   C139    1.084   1_556 S
N716   Zn731   2.020   .     S
N717   Zn732   2.020   .     S
O723   Zn731   1.984   .     S
O724   Zn732   1.981   .     S
O725   Zn731   1.955   .     S
O726   Zn732   1.902   .     S
O727   Zn731   1.981   .     S
O728   Zn732   1.984   .     S
O729   Zn731   1.902   .     S
O730   Zn732   1.955   .     S
C733   C741    1.405   .     S
C733   O785    1.282   .     A
C733   O784    1.282   .     A
C734   C736    1.465   .     S
C734   C751    1.409   .     A
C734   C755    1.413   .     A
C735   C741    1.389   .     A
C735   H776    1.085   .     S
C735   C920    1.370   .     S
C736   O787    1.300   .     A
C736   O786    1.295   .     A
C737   F766    1.357   .     S
C737   C738    1.393   .     A
C738   C739    1.406   .     A
C738   C747    1.408   .     S
C739   C754    1.452   .     S
C740   C756    1.452   .     S
C740   C741    1.403   .     A
C740   C922    1.390   .     S
C742   N778    1.369   .     A
C742   C757    1.439   .     S
C742   C804    1.426   .     S
C743   N777    1.370   .     A
C743   C758    1.444   .     S
C743   C864    1.426   1_455 S
C744   C755    1.407   .     A
C744   C204    1.416   1_556 S
C744   C211    1.413   1_556 S
C745   N777    1.363   .     A
C745   H771    1.083   .     S
C745   C868    1.419   1_455 S
C746   C759    1.438   .     S
C746   N778    1.374   .     A
C746   C806    1.419   .     S
C747   O788    1.281   .     A
C747   O789    1.285   .     A
C748   O790    1.297   .     A
C748   C750    1.454   .     S
C748   O791    1.296   .     A
C749   C765    1.393   .     A
C750   C765    1.399   .     A
C750   C764    1.391   .     A
C751   C752    1.389   .     A
C751   F768    1.358   .     S
C752   C204    1.391   1_556 S
C752   H226    1.083   1_556 S
C753   H774    1.080   .     S
C754   N779    1.157   .     T
C755   C763    1.418   .     A
C756   N780    1.157   .     T
C757   N781    1.156   .     T
C758   N782    1.158   .     T
C759   N783    1.158   .     T
C760   C764    1.397   .     A
C761   C762    1.392   .     A
C761   C200    1.403   1_556 S
C761   C211    1.420   1_556 S
C762   C763    1.389   .     A
C762   H772    1.084   .     S
C763   F769    1.357   .     S
C764   F767    1.360   .     S
C765   H770    1.080   .     S
H773   C200    1.084   1_556 S
N777   Zn792   2.020   .     S
N778   Zn793   2.020   .     S
O784   Zn792   1.984   .     S
O785   Zn793   1.981   .     S
O786   Zn792   1.955   .     S
O787   Zn793   1.902   .     S
O788   Zn792   1.981   .     S
O789   Zn793   1.984   .     S
O790   Zn792   1.902   .     S
O791   Zn793   1.955   .     S
C794   C802    1.405   .     S
C794   O846    1.282   .     A
C794   O845    1.282   .     A
C795   C797    1.465   .     S
C795   C812    1.409   .     A
C795   C816    1.413   .     A
C796   C802    1.389   .     A
C796   H837    1.085   .     S
C796   C981    1.370   .     S
C797   O848    1.300   .     A
C797   O847    1.295   .     A
C798   F827    1.357   .     S
C798   C799    1.393   .     A
C799   C800    1.406   .     A
C799   C808    1.408   .     S
C800   C815    1.452   .     S
C801   C817    1.452   .     S
C801   C802    1.403   .     A
C801   C983    1.390   .     S
C803   N839    1.369   .     A
C803   C818    1.439   .     S
C803   C865    1.426   .     S
C804   N838    1.370   .     A
C804   C819    1.444   .     S
C805   C816    1.407   .     A
C805   C265    1.416   1_556 S
C805   C272    1.413   1_556 S
C806   N838    1.363   .     A
C806   H832    1.083   .     S
C807   C820    1.438   .     S
C807   N839    1.374   .     A
C807   C867    1.419   .     S
C808   O849    1.281   .     A
C808   O850    1.285   .     A
C809   O851    1.297   .     A
C809   C811    1.454   .     S
C809   O852    1.296   .     A
C810   C826    1.393   .     A
C811   C826    1.399   .     A
C811   C825    1.391   .     A
C812   C813    1.389   .     A
C812   F829    1.358   .     S
C813   C265    1.391   1_556 S
C813   H287    1.083   1_556 S
C814   H835    1.080   .     S
C815   N840    1.157   .     T
C816   C824    1.418   .     A
C817   N841    1.157   .     T
C818   N842    1.156   .     T
C819   N843    1.158   .     T
C820   N844    1.158   .     T
C821   C825    1.397   .     A
C822   C823    1.392   .     A
C822   C261    1.403   1_556 S
C822   C272    1.420   1_556 S
C823   C824    1.389   .     A
C823   H833    1.084   .     S
C824   F830    1.357   .     S
C825   F828    1.360   .     S
C826   H831    1.080   .     S
H834   C261    1.084   1_556 S
N838   Zn853   2.020   .     S
N839   Zn854   2.020   .     S
O845   Zn853   1.984   .     S
O846   Zn854   1.981   .     S
O847   Zn853   1.955   .     S
O848   Zn854   1.902   .     S
O849   Zn853   1.981   .     S
O850   Zn854   1.984   .     S
O851   Zn853   1.902   .     S
O852   Zn854   1.955   .     S
C855   C863    1.405   .     S
C855   O907    1.282   .     A
C855   O906    1.282   .     A
C856   C858    1.465   .     S
C856   C873    1.409   .     A
C856   C877    1.413   .     A
C857   C863    1.389   .     A
C857   H898    1.085   .     S
C857   C1042   1.370   .     S
C858   O909    1.300   .     A
C858   O908    1.295   .     A
C859   F888    1.357   .     S
C859   C860    1.393   .     A
C860   C861    1.406   .     A
C860   C869    1.408   .     S
C861   C876    1.452   .     S
C862   C878    1.452   .     S
C862   C863    1.403   .     A
C862   C1044   1.390   .     S
C864   N900    1.369   .     A
C864   C879    1.439   .     S
C864   C743    1.426   1_655 S
C865   N899    1.370   .     A
C865   C880    1.444   .     S
C866   C877    1.407   .     A
C866   C326    1.416   1_556 S
C866   C333    1.413   1_556 S
C867   N899    1.363   .     A
C867   H893    1.083   .     S
C868   C881    1.438   .     S
C868   N900    1.374   .     A
C868   C745    1.419   1_655 S
C869   O910    1.281   .     A
C869   O911    1.285   .     A
C870   O912    1.297   .     A
C870   C872    1.454   .     S
C870   O913    1.296   .     A
C871   C887    1.393   .     A
C872   C887    1.399   .     A
C872   C886    1.391   .     A
C873   C874    1.389   .     A
C873   F890    1.358   .     S
C874   C326    1.391   1_556 S
C874   H348    1.083   1_556 S
C875   H896    1.080   .     S
C876   N901    1.157   .     T
C877   C885    1.418   .     A
C878   N902    1.157   .     T
C879   N903    1.156   .     T
C880   N904    1.158   .     T
C881   N905    1.158   .     T
C882   C886    1.397   .     A
C883   C884    1.392   .     A
C883   C322    1.403   1_556 S
C883   C333    1.420   1_556 S
C884   C885    1.389   .     A
C884   H894    1.084   .     S
C885   F891    1.357   .     S
C886   F889    1.360   .     S
C887   H892    1.080   .     S
H895   C322    1.084   1_556 S
N899   Zn914   2.020   .     S
N900   Zn915   2.020   .     S
O906   Zn914   1.984   .     S
O907   Zn915   1.981   .     S
O908   Zn914   1.955   .     S
O909   Zn915   1.902   .     S
O910   Zn914   1.981   .     S
O911   Zn915   1.984   .     S
O912   Zn914   1.902   .     S
O913   Zn915   1.955   .     S
C916   C924    1.405   .     S
C916   O968    1.282   .     A
C916   O967    1.282   .     A
C917   C919    1.465   .     S
C917   C934    1.409   .     A
C917   C938    1.413   .     A
C918   C924    1.389   .     A
C918   H959    1.085   .     S
C918   C554    1.370   1_565 S
C919   O970    1.300   .     A
C919   O969    1.295   .     A
C920   F949    1.357   .     S
C920   C921    1.393   .     A
C921   C922    1.406   .     A
C921   C930    1.408   .     S
C922   C937    1.452   .     S
C923   C939    1.452   .     S
C923   C924    1.403   .     A
C923   C556    1.390   1_565 S
C925   N961    1.369   .     A
C925   C940    1.439   .     S
C925   C987    1.426   .     S
C926   N960    1.370   .     A
C926   C941    1.444   .     S
C926   C1047   1.426   1_455 S
C927   C938    1.407   .     A
C927   C387    1.416   1_556 S
C927   C394    1.413   1_556 S
C928   N960    1.363   .     A
C928   H954    1.083   .     S
C928   C1051   1.419   1_455 S
C929   C942    1.438   .     S
C929   N961    1.374   .     A
C929   C989    1.419   .     S
C930   O971    1.281   .     A
C930   O972    1.285   .     A
C931   O973    1.297   .     A
C931   C933    1.454   .     S
C931   O974    1.296   .     A
C932   C948    1.393   .     A
C933   C948    1.399   .     A
C933   C947    1.391   .     A
C934   C935    1.389   .     A
C934   F951    1.358   .     S
C935   C387    1.391   1_556 S
C935   H409    1.083   1_556 S
C936   H957    1.080   .     S
C937   N962    1.157   .     T
C938   C946    1.418   .     A
C939   N963    1.157   .     T
C940   N964    1.156   .     T
C941   N965    1.158   .     T
C942   N966    1.158   .     T
C943   C947    1.397   .     A
C944   C945    1.392   .     A
C944   C383    1.403   1_556 S
C944   C394    1.420   1_556 S
C945   C946    1.389   .     A
C945   H955    1.084   .     S
C946   F952    1.357   .     S
C947   F950    1.360   .     S
C948   H953    1.080   .     S
H956   C383    1.084   1_556 S
N960   Zn975   2.020   .     S
N961   Zn976   2.020   .     S
O967   Zn975   1.984   .     S
O968   Zn976   1.981   .     S
O969   Zn975   1.955   .     S
O970   Zn976   1.902   .     S
O971   Zn975   1.981   .     S
O972   Zn976   1.984   .     S
O973   Zn975   1.902   .     S
O974   Zn976   1.955   .     S
C977   C985    1.405   .     S
C977   O1029   1.282   .     A
C977   O1028   1.282   .     A
C978   C980    1.465   .     S
C978   C995    1.409   .     A
C978   C999    1.413   .     A
C979   C985    1.389   .     A
C979   H1020   1.085   .     S
C979   C615    1.370   1_565 S
C980   O1031   1.300   .     A
C980   O1030   1.295   .     A
C981   F1010   1.357   .     S
C981   C982    1.393   .     A
C982   C983    1.406   .     A
C982   C991    1.408   .     S
C983   C998    1.452   .     S
C984   C1000   1.452   .     S
C984   C985    1.403   .     A
C984   C617    1.390   1_565 S
C986   N1022   1.369   .     A
C986   C1001   1.439   .     S
C986   C1048   1.426   .     S
C987   N1021   1.370   .     A
C987   C1002   1.444   .     S
C988   C999    1.407   .     A
C988   C448    1.416   1_556 S
C988   C455    1.413   1_556 S
C989   N1021   1.363   .     A
C989   H1015   1.083   .     S
C990   C1003   1.438   .     S
C990   N1022   1.374   .     A
C990   C1050   1.419   .     S
C991   O1032   1.281   .     A
C991   O1033   1.285   .     A
C992   O1034   1.297   .     A
C992   C994    1.454   .     S
C992   O1035   1.296   .     A
C993   C1009   1.393   .     A
C994   C1009   1.399   .     A
C994   C1008   1.391   .     A
C995   C996    1.389   .     A
C995   F1012   1.358   .     S
C996   C448    1.391   1_556 S
C996   H470    1.083   1_556 S
C997   H1018   1.080   .     S
C998   N1023   1.157   .     T
C999   C1007   1.418   .     A
C1000  N1024   1.157   .     T
C1001  N1025   1.156   .     T
C1002  N1026   1.158   .     T
C1003  N1027   1.158   .     T
C1004  C1008   1.397   .     A
C1005  C1006   1.392   .     A
C1005  C444    1.403   1_556 S
C1005  C455    1.420   1_556 S
C1006  C1007   1.389   .     A
C1006  H1016   1.084   .     S
C1007  F1013   1.357   .     S
C1008  F1011   1.360   .     S
C1009  H1014   1.080   .     S
H1017  C444    1.084   1_556 S
N1021  Zn1036  2.020   .     S
N1022  Zn1037  2.020   .     S
O1028  Zn1036  1.984   .     S
O1029  Zn1037  1.981   .     S
O1030  Zn1036  1.955   .     S
O1031  Zn1037  1.902   .     S
O1032  Zn1036  1.981   .     S
O1033  Zn1037  1.984   .     S
O1034  Zn1036  1.902   .     S
O1035  Zn1037  1.955   .     S
C1038  C1046   1.405   .     S
C1038  O1090   1.282   .     A
C1038  O1089   1.282   .     A
C1039  C1041   1.465   .     S
C1039  C1056   1.409   .     A
C1039  C1060   1.413   .     A
C1040  C1046   1.389   .     A
C1040  H1081   1.085   .     S
C1040  C676    1.370   1_565 S
C1041  O1092   1.300   .     A
C1041  O1091   1.295   .     A
C1042  F1071   1.357   .     S
C1042  C1043   1.393   .     A
C1043  C1044   1.406   .     A
C1043  C1052   1.408   .     S
C1044  C1059   1.452   .     S
C1045  C1061   1.452   .     S
C1045  C1046   1.403   .     A
C1045  C678    1.390   1_565 S
C1047  N1083   1.369   .     A
C1047  C1062   1.439   .     S
C1047  C926    1.426   1_655 S
C1048  N1082   1.370   .     A
C1048  C1063   1.444   .     S
C1049  C1060   1.407   .     A
C1049  C509    1.416   1_556 S
C1049  C516    1.413   1_556 S
C1050  N1082   1.363   .     A
C1050  H1076   1.083   .     S
C1051  C1064   1.438   .     S
C1051  N1083   1.374   .     A
C1051  C928    1.419   1_655 S
C1052  O1093   1.281   .     A
C1052  O1094   1.285   .     A
C1053  O1095   1.297   .     A
C1053  C1055   1.454   .     S
C1053  O1096   1.296   .     A
C1054  C1070   1.393   .     A
C1055  C1070   1.399   .     A
C1055  C1069   1.391   .     A
C1056  C1057   1.389   .     A
C1056  F1073   1.358   .     S
C1057  C509    1.391   1_556 S
C1057  H531    1.083   1_556 S
C1058  H1079   1.080   .     S
C1059  N1084   1.157   .     T
C1060  C1068   1.418   .     A
C1061  N1085   1.157   .     T
C1062  N1086   1.156   .     T
C1063  N1087   1.158   .     T
C1064  N1088   1.158   .     T
C1065  C1069   1.397   .     A
C1066  C1067   1.392   .     A
C1066  C505    1.403   1_556 S
C1066  C516    1.420   1_556 S
C1067  C1068   1.389   .     A
C1067  H1077   1.084   .     S
C1068  F1074   1.357   .     S
C1069  F1072   1.360   .     S
C1070  H1075   1.080   .     S
H1078  C505    1.084   1_556 S
N1082  Zn1097  2.020   .     S
N1083  Zn1098  2.020   .     S
O1089  Zn1097  1.984   .     S
O1090  Zn1098  1.981   .     S
O1091  Zn1097  1.955   .     S
O1092  Zn1098  1.902   .     S
O1093  Zn1097  1.981   .     S
O1094  Zn1098  1.984   .     S
O1095  Zn1097  1.902   .     S
O1096  Zn1098  1.955   .     S
