data_str_m3_o10_o16_pcu_sym.56
_audit_creation_date              2020-01-03
_audit_creation_method            'Materials Studio'
_symmetry_space_group_name_H-M    'P1'
_symmetry_Int_Tables_number       1
_symmetry_cell_setting            triclinic
loop_
_symmetry_equiv_pos_as_xyz
  x,y,z
_cell_length_a                    23.5711
_cell_length_b                    25.7685
_cell_length_c                    24.1870
_cell_angle_alpha                 92.8970
_cell_angle_beta                  101.2094
_cell_angle_gamma                 93.9768
loop_
_atom_site_label
_atom_site_type_symbol
_atom_site_fract_x
_atom_site_fract_y
_atom_site_fract_z
_atom_site_U_iso_or_equiv
_atom_site_adp_type
_atom_site_occupancy
Br1    Br    0.17514   0.23506   0.31450   0.00000  Uiso   1.00
C2     C     0.01492   0.26473   0.24896   0.00000  Uiso   1.00
C3     C     0.05308   0.16801   0.41611   0.00000  Uiso   1.00
C4     C     0.02359   0.31899   0.24907   0.00000  Uiso   1.00
C5     C     0.03530   0.16790   0.35514   0.00000  Uiso   1.00
C6     C     0.31186   0.01399   0.25263   0.00000  Uiso   1.00
C7     C     0.31880   0.06850   0.25163   0.00000  Uiso   1.00
C8     C     0.29751   0.16280   0.14482   0.00000  Uiso   1.00
C9     C     0.27009   0.09657   0.00039   0.00000  Uiso   1.00
C10    C     0.27672   0.15261   0.08475   0.00000  Uiso   1.00
C11    C     0.02462   0.19824   0.45038   0.00000  Uiso   1.00
C12    C     0.04859   0.20848   0.00727   0.00000  Uiso   1.00
C13    C     0.13234   0.16166   0.49490   0.00000  Uiso   1.00
C14    C     0.10255   0.19141   0.02941   0.00000  Uiso   1.00
C15    C     0.10363   0.14468   0.43980   0.00000  Uiso   1.00
C16    C     0.18973   0.14832   0.01310   0.00000  Uiso   1.00
C17    C     0.21396   0.11150   0.48060   0.00000  Uiso   1.00
C18    C     0.18133   0.08944   0.42960   0.00000  Uiso   1.00
C19    C     0.12676   0.10583   0.40931   0.00000  Uiso   1.00
C20    C     0.22406   0.17140   0.06256   0.00000  Uiso   1.00
C21    C     0.30095   0.11613   0.05329   0.00000  Uiso   1.00
F22    F     0.07774   0.00598   0.24560   0.00000  Uiso   1.00
H23    H     0.00873   0.10116   0.07055   0.00000  Uiso   1.00
H24    H     0.10257   0.08741   0.36972   0.00000  Uiso   1.00
H25    H     0.26916   0.33031   0.25579   0.00000  Uiso   1.00
H26    H     0.15648   0.12425   0.20873   0.00000  Uiso   1.00
H27    H     0.19832   0.06015   0.40494   0.00000  Uiso   1.00
H28    H     0.28887   0.06819   0.47623   0.00000  Uiso   1.00
H29    H     0.20951   0.20257   0.08647   0.00000  Uiso   1.00
H30    H     0.31828   0.21544   0.43280   0.00000  Uiso   1.00
H31    H     0.11919   0.20092   0.07381   0.00000  Uiso   1.00
H32    H     0.02635   0.23137   0.03388   0.00000  Uiso   1.00
N33    N     0.14493   0.15223   0.23543   0.00000  Uiso   1.00
N34    N     0.18840   0.18110   0.26458   0.00000  Uiso   1.00
O35    O     0.29769   0.24629   0.25357   0.00000  Uiso   1.00
O36    O     0.05742   0.23704   0.24423   0.00000  Uiso   1.00
O37    O     0.31490   0.17358   0.33380   0.00000  Uiso   1.00
O38    O     0.07463   0.16433   0.32446   0.00000  Uiso   1.00
O39    O     0.27592   0.09629   0.25577   0.00000  Uiso   1.00
O40    O     0.03565   0.08704   0.24643   0.00000  Uiso   1.00
O41    O     0.25870   0.16901   0.17554   0.00000  Uiso   1.00
O42    O     0.01843   0.15976   0.16620   0.00000  Uiso   1.00
Zn43   Zn    0.27119   0.17284   0.25624   0.00000  Uiso   1.00
Zn44   Zn    0.06214   0.16049   0.24376   0.00000  Uiso   1.00
Br45   Br    0.50848   0.23506   0.31450   0.00000  Uiso   1.00
C46    C     0.34826   0.26473   0.24896   0.00000  Uiso   1.00
C47    C     0.38642   0.16801   0.41611   0.00000  Uiso   1.00
C48    C     0.35693   0.31899   0.24907   0.00000  Uiso   1.00
C49    C     0.36863   0.16790   0.35514   0.00000  Uiso   1.00
C50    C     0.64519   0.01399   0.25263   0.00000  Uiso   1.00
C51    C     0.65214   0.06850   0.25163   0.00000  Uiso   1.00
C52    C     0.63084   0.16280   0.14482   0.00000  Uiso   1.00
C53    C     0.60342   0.09657   0.00039   0.00000  Uiso   1.00
C54    C     0.61005   0.15261   0.08475   0.00000  Uiso   1.00
C55    C     0.35796   0.19824   0.45038   0.00000  Uiso   1.00
C56    C     0.38193   0.20848   0.00727   0.00000  Uiso   1.00
C57    C     0.46567   0.16166   0.49490   0.00000  Uiso   1.00
C58    C     0.43588   0.19141   0.02941   0.00000  Uiso   1.00
C59    C     0.43696   0.14468   0.43980   0.00000  Uiso   1.00
C60    C     0.52307   0.14832   0.01310   0.00000  Uiso   1.00
C61    C     0.54730   0.11150   0.48060   0.00000  Uiso   1.00
C62    C     0.51466   0.08944   0.42960   0.00000  Uiso   1.00
C63    C     0.46009   0.10583   0.40931   0.00000  Uiso   1.00
C64    C     0.55739   0.17140   0.06256   0.00000  Uiso   1.00
C65    C     0.63428   0.11613   0.05329   0.00000  Uiso   1.00
F66    F     0.41107   0.00598   0.24560   0.00000  Uiso   1.00
H67    H     0.34206   0.10116   0.07055   0.00000  Uiso   1.00
H68    H     0.43591   0.08741   0.36972   0.00000  Uiso   1.00
H69    H     0.60249   0.33031   0.25579   0.00000  Uiso   1.00
H70    H     0.48982   0.12425   0.20873   0.00000  Uiso   1.00
H71    H     0.53166   0.06015   0.40494   0.00000  Uiso   1.00
H72    H     0.62220   0.06819   0.47623   0.00000  Uiso   1.00
H73    H     0.54284   0.20257   0.08647   0.00000  Uiso   1.00
H74    H     0.65161   0.21544   0.43280   0.00000  Uiso   1.00
H75    H     0.45252   0.20092   0.07381   0.00000  Uiso   1.00
H76    H     0.35968   0.23137   0.03388   0.00000  Uiso   1.00
N77    N     0.47827   0.15223   0.23543   0.00000  Uiso   1.00
N78    N     0.52173   0.18110   0.26458   0.00000  Uiso   1.00
O79    O     0.63102   0.24629   0.25357   0.00000  Uiso   1.00
O80    O     0.39075   0.23704   0.24423   0.00000  Uiso   1.00
O81    O     0.64823   0.17358   0.33380   0.00000  Uiso   1.00
O82    O     0.40796   0.16433   0.32446   0.00000  Uiso   1.00
O83    O     0.60925   0.09629   0.25577   0.00000  Uiso   1.00
O84    O     0.36898   0.08704   0.24643   0.00000  Uiso   1.00
O85    O     0.59204   0.16901   0.17554   0.00000  Uiso   1.00
O86    O     0.35177   0.15976   0.16620   0.00000  Uiso   1.00
Zn87   Zn    0.60453   0.17284   0.25624   0.00000  Uiso   1.00
Zn88   Zn    0.39547   0.16049   0.24376   0.00000  Uiso   1.00
Br89   Br    0.84181   0.23506   0.31450   0.00000  Uiso   1.00
C90    C     0.68159   0.26473   0.24896   0.00000  Uiso   1.00
C91    C     0.71975   0.16801   0.41611   0.00000  Uiso   1.00
C92    C     0.69026   0.31899   0.24907   0.00000  Uiso   1.00
C93    C     0.70197   0.16790   0.35514   0.00000  Uiso   1.00
C94    C     0.97852   0.01399   0.25263   0.00000  Uiso   1.00
C95    C     0.98547   0.06850   0.25163   0.00000  Uiso   1.00
C96    C     0.96418   0.16280   0.14482   0.00000  Uiso   1.00
C97    C     0.93676   0.09657   0.00039   0.00000  Uiso   1.00
C98    C     0.94339   0.15261   0.08475   0.00000  Uiso   1.00
C99    C     0.69129   0.19824   0.45038   0.00000  Uiso   1.00
C100   C     0.71526   0.20848   0.00727   0.00000  Uiso   1.00
C101   C     0.79900   0.16166   0.49490   0.00000  Uiso   1.00
C102   C     0.76921   0.19141   0.02941   0.00000  Uiso   1.00
C103   C     0.77030   0.14468   0.43980   0.00000  Uiso   1.00
C104   C     0.85640   0.14832   0.01310   0.00000  Uiso   1.00
C105   C     0.88063   0.11150   0.48060   0.00000  Uiso   1.00
C106   C     0.84800   0.08944   0.42960   0.00000  Uiso   1.00
C107   C     0.79342   0.10583   0.40931   0.00000  Uiso   1.00
C108   C     0.89073   0.17140   0.06256   0.00000  Uiso   1.00
C109   C     0.96761   0.11613   0.05329   0.00000  Uiso   1.00
F110   F     0.74441   0.00598   0.24560   0.00000  Uiso   1.00
H111   H     0.67540   0.10116   0.07055   0.00000  Uiso   1.00
H112   H     0.76924   0.08741   0.36972   0.00000  Uiso   1.00
H113   H     0.93582   0.33031   0.25579   0.00000  Uiso   1.00
H114   H     0.82315   0.12425   0.20873   0.00000  Uiso   1.00
H115   H     0.86499   0.06015   0.40494   0.00000  Uiso   1.00
H116   H     0.95553   0.06819   0.47623   0.00000  Uiso   1.00
H117   H     0.87617   0.20257   0.08647   0.00000  Uiso   1.00
H118   H     0.98495   0.21544   0.43280   0.00000  Uiso   1.00
H119   H     0.78586   0.20092   0.07381   0.00000  Uiso   1.00
H120   H     0.69302   0.23137   0.03388   0.00000  Uiso   1.00
N121   N     0.81160   0.15223   0.23543   0.00000  Uiso   1.00
N122   N     0.85507   0.18110   0.26458   0.00000  Uiso   1.00
O123   O     0.96435   0.24629   0.25357   0.00000  Uiso   1.00
O124   O     0.72408   0.23704   0.24423   0.00000  Uiso   1.00
O125   O     0.98157   0.17358   0.33380   0.00000  Uiso   1.00
O126   O     0.74130   0.16433   0.32446   0.00000  Uiso   1.00
O127   O     0.94258   0.09629   0.25577   0.00000  Uiso   1.00
O128   O     0.70231   0.08704   0.24643   0.00000  Uiso   1.00
O129   O     0.92537   0.16901   0.17554   0.00000  Uiso   1.00
O130   O     0.68510   0.15976   0.16620   0.00000  Uiso   1.00
Zn131  Zn    0.93786   0.17284   0.25624   0.00000  Uiso   1.00
Zn132  Zn    0.72881   0.16049   0.24376   0.00000  Uiso   1.00
Br133  Br    0.17514   0.56840   0.31450   0.00000  Uiso   1.00
C134   C     0.01492   0.59806   0.24896   0.00000  Uiso   1.00
C135   C     0.05308   0.50135   0.41611   0.00000  Uiso   1.00
C136   C     0.02359   0.65232   0.24907   0.00000  Uiso   1.00
C137   C     0.03530   0.50123   0.35514   0.00000  Uiso   1.00
C138   C     0.31186   0.34732   0.25263   0.00000  Uiso   1.00
C139   C     0.31880   0.40184   0.25163   0.00000  Uiso   1.00
C140   C     0.29751   0.49613   0.14482   0.00000  Uiso   1.00
C141   C     0.27009   0.42990   0.00039   0.00000  Uiso   1.00
C142   C     0.27672   0.48594   0.08475   0.00000  Uiso   1.00
C143   C     0.02462   0.53158   0.45038   0.00000  Uiso   1.00
C144   C     0.04859   0.54181   0.00727   0.00000  Uiso   1.00
C145   C     0.13234   0.49499   0.49490   0.00000  Uiso   1.00
C146   C     0.10255   0.52474   0.02941   0.00000  Uiso   1.00
C147   C     0.10363   0.47801   0.43980   0.00000  Uiso   1.00
C148   C     0.18973   0.48166   0.01310   0.00000  Uiso   1.00
C149   C     0.21396   0.44484   0.48060   0.00000  Uiso   1.00
C150   C     0.18133   0.42277   0.42960   0.00000  Uiso   1.00
C151   C     0.12676   0.43916   0.40931   0.00000  Uiso   1.00
C152   C     0.22406   0.50474   0.06256   0.00000  Uiso   1.00
C153   C     0.30095   0.44947   0.05329   0.00000  Uiso   1.00
F154   F     0.07774   0.33931   0.24560   0.00000  Uiso   1.00
H155   H     0.00873   0.43449   0.07055   0.00000  Uiso   1.00
H156   H     0.10257   0.42074   0.36972   0.00000  Uiso   1.00
H157   H     0.26916   0.66364   0.25579   0.00000  Uiso   1.00
H158   H     0.15648   0.45759   0.20873   0.00000  Uiso   1.00
H159   H     0.19832   0.39348   0.40494   0.00000  Uiso   1.00
H160   H     0.28887   0.40153   0.47623   0.00000  Uiso   1.00
H161   H     0.20951   0.53590   0.08647   0.00000  Uiso   1.00
H162   H     0.31828   0.54877   0.43280   0.00000  Uiso   1.00
H163   H     0.11919   0.53425   0.07381   0.00000  Uiso   1.00
H164   H     0.02635   0.56470   0.03388   0.00000  Uiso   1.00
N165   N     0.14493   0.48556   0.23543   0.00000  Uiso   1.00
N166   N     0.18840   0.51444   0.26458   0.00000  Uiso   1.00
O167   O     0.29769   0.57963   0.25357   0.00000  Uiso   1.00
O168   O     0.05742   0.57038   0.24423   0.00000  Uiso   1.00
O169   O     0.31490   0.50691   0.33380   0.00000  Uiso   1.00
O170   O     0.07463   0.49766   0.32446   0.00000  Uiso   1.00
O171   O     0.27592   0.42962   0.25577   0.00000  Uiso   1.00
O172   O     0.03565   0.42037   0.24643   0.00000  Uiso   1.00
O173   O     0.25870   0.50234   0.17554   0.00000  Uiso   1.00
O174   O     0.01843   0.49309   0.16620   0.00000  Uiso   1.00
Zn175  Zn    0.27119   0.50618   0.25624   0.00000  Uiso   1.00
Zn176  Zn    0.06214   0.49382   0.24376   0.00000  Uiso   1.00
Br177  Br    0.50848   0.56840   0.31450   0.00000  Uiso   1.00
C178   C     0.34826   0.59806   0.24896   0.00000  Uiso   1.00
C179   C     0.38642   0.50135   0.41611   0.00000  Uiso   1.00
C180   C     0.35693   0.65232   0.24907   0.00000  Uiso   1.00
C181   C     0.36863   0.50123   0.35514   0.00000  Uiso   1.00
C182   C     0.64519   0.34732   0.25263   0.00000  Uiso   1.00
C183   C     0.65214   0.40184   0.25163   0.00000  Uiso   1.00
C184   C     0.63084   0.49613   0.14482   0.00000  Uiso   1.00
C185   C     0.60342   0.42990   0.00039   0.00000  Uiso   1.00
C186   C     0.61005   0.48594   0.08475   0.00000  Uiso   1.00
C187   C     0.35796   0.53158   0.45038   0.00000  Uiso   1.00
C188   C     0.38193   0.54181   0.00727   0.00000  Uiso   1.00
C189   C     0.46567   0.49499   0.49490   0.00000  Uiso   1.00
C190   C     0.43588   0.52474   0.02941   0.00000  Uiso   1.00
C191   C     0.43696   0.47801   0.43980   0.00000  Uiso   1.00
C192   C     0.52307   0.48166   0.01310   0.00000  Uiso   1.00
C193   C     0.54730   0.44484   0.48060   0.00000  Uiso   1.00
C194   C     0.51466   0.42277   0.42960   0.00000  Uiso   1.00
C195   C     0.46009   0.43916   0.40931   0.00000  Uiso   1.00
C196   C     0.55739   0.50474   0.06256   0.00000  Uiso   1.00
C197   C     0.63428   0.44947   0.05329   0.00000  Uiso   1.00
F198   F     0.41107   0.33931   0.24560   0.00000  Uiso   1.00
H199   H     0.34206   0.43449   0.07055   0.00000  Uiso   1.00
H200   H     0.43591   0.42074   0.36972   0.00000  Uiso   1.00
H201   H     0.60249   0.66364   0.25579   0.00000  Uiso   1.00
H202   H     0.48982   0.45759   0.20873   0.00000  Uiso   1.00
H203   H     0.53166   0.39348   0.40494   0.00000  Uiso   1.00
H204   H     0.62220   0.40153   0.47623   0.00000  Uiso   1.00
H205   H     0.54284   0.53590   0.08647   0.00000  Uiso   1.00
H206   H     0.65161   0.54877   0.43280   0.00000  Uiso   1.00
H207   H     0.45252   0.53425   0.07381   0.00000  Uiso   1.00
H208   H     0.35968   0.56470   0.03388   0.00000  Uiso   1.00
N209   N     0.47827   0.48556   0.23543   0.00000  Uiso   1.00
N210   N     0.52173   0.51444   0.26458   0.00000  Uiso   1.00
O211   O     0.63102   0.57963   0.25357   0.00000  Uiso   1.00
O212   O     0.39075   0.57038   0.24423   0.00000  Uiso   1.00
O213   O     0.64823   0.50691   0.33380   0.00000  Uiso   1.00
O214   O     0.40796   0.49766   0.32446   0.00000  Uiso   1.00
O215   O     0.60925   0.42962   0.25577   0.00000  Uiso   1.00
O216   O     0.36898   0.42037   0.24643   0.00000  Uiso   1.00
O217   O     0.59204   0.50234   0.17554   0.00000  Uiso   1.00
O218   O     0.35177   0.49309   0.16620   0.00000  Uiso   1.00
Zn219  Zn    0.60453   0.50618   0.25624   0.00000  Uiso   1.00
Zn220  Zn    0.39547   0.49382   0.24376   0.00000  Uiso   1.00
Br221  Br    0.84181   0.56840   0.31450   0.00000  Uiso   1.00
C222   C     0.68159   0.59806   0.24896   0.00000  Uiso   1.00
C223   C     0.71975   0.50135   0.41611   0.00000  Uiso   1.00
C224   C     0.69026   0.65232   0.24907   0.00000  Uiso   1.00
C225   C     0.70197   0.50123   0.35514   0.00000  Uiso   1.00
C226   C     0.97852   0.34732   0.25263   0.00000  Uiso   1.00
C227   C     0.98547   0.40184   0.25163   0.00000  Uiso   1.00
C228   C     0.96418   0.49613   0.14482   0.00000  Uiso   1.00
C229   C     0.93676   0.42990   0.00039   0.00000  Uiso   1.00
C230   C     0.94339   0.48594   0.08475   0.00000  Uiso   1.00
C231   C     0.69129   0.53158   0.45038   0.00000  Uiso   1.00
C232   C     0.71526   0.54181   0.00727   0.00000  Uiso   1.00
C233   C     0.79900   0.49499   0.49490   0.00000  Uiso   1.00
C234   C     0.76921   0.52474   0.02941   0.00000  Uiso   1.00
C235   C     0.77030   0.47801   0.43980   0.00000  Uiso   1.00
C236   C     0.85640   0.48166   0.01310   0.00000  Uiso   1.00
C237   C     0.88063   0.44484   0.48060   0.00000  Uiso   1.00
C238   C     0.84800   0.42277   0.42960   0.00000  Uiso   1.00
C239   C     0.79342   0.43916   0.40931   0.00000  Uiso   1.00
C240   C     0.89073   0.50474   0.06256   0.00000  Uiso   1.00
C241   C     0.96761   0.44947   0.05329   0.00000  Uiso   1.00
F242   F     0.74441   0.33931   0.24560   0.00000  Uiso   1.00
H243   H     0.67540   0.43449   0.07055   0.00000  Uiso   1.00
H244   H     0.76924   0.42074   0.36972   0.00000  Uiso   1.00
H245   H     0.93582   0.66364   0.25579   0.00000  Uiso   1.00
H246   H     0.82315   0.45759   0.20873   0.00000  Uiso   1.00
H247   H     0.86499   0.39348   0.40494   0.00000  Uiso   1.00
H248   H     0.95553   0.40153   0.47623   0.00000  Uiso   1.00
H249   H     0.87617   0.53590   0.08647   0.00000  Uiso   1.00
H250   H     0.98495   0.54877   0.43280   0.00000  Uiso   1.00
H251   H     0.78586   0.53425   0.07381   0.00000  Uiso   1.00
H252   H     0.69302   0.56470   0.03388   0.00000  Uiso   1.00
N253   N     0.81160   0.48556   0.23543   0.00000  Uiso   1.00
N254   N     0.85507   0.51444   0.26458   0.00000  Uiso   1.00
O255   O     0.96435   0.57963   0.25357   0.00000  Uiso   1.00
O256   O     0.72408   0.57038   0.24423   0.00000  Uiso   1.00
O257   O     0.98157   0.50691   0.33380   0.00000  Uiso   1.00
O258   O     0.74130   0.49766   0.32446   0.00000  Uiso   1.00
O259   O     0.94258   0.42962   0.25577   0.00000  Uiso   1.00
O260   O     0.70231   0.42037   0.24643   0.00000  Uiso   1.00
O261   O     0.92537   0.50234   0.17554   0.00000  Uiso   1.00
O262   O     0.68510   0.49309   0.16620   0.00000  Uiso   1.00
Zn263  Zn    0.93786   0.50618   0.25624   0.00000  Uiso   1.00
Zn264  Zn    0.72881   0.49382   0.24376   0.00000  Uiso   1.00
Br265  Br    0.17514   0.90173   0.31450   0.00000  Uiso   1.00
C266   C     0.01492   0.93140   0.24896   0.00000  Uiso   1.00
C267   C     0.05308   0.83468   0.41611   0.00000  Uiso   1.00
C268   C     0.02359   0.98566   0.24907   0.00000  Uiso   1.00
C269   C     0.03530   0.83457   0.35514   0.00000  Uiso   1.00
C270   C     0.31186   0.68065   0.25263   0.00000  Uiso   1.00
C271   C     0.31880   0.73517   0.25163   0.00000  Uiso   1.00
C272   C     0.29751   0.82946   0.14482   0.00000  Uiso   1.00
C273   C     0.27009   0.76324   0.00039   0.00000  Uiso   1.00
C274   C     0.27672   0.81927   0.08475   0.00000  Uiso   1.00
C275   C     0.02462   0.86491   0.45038   0.00000  Uiso   1.00
C276   C     0.04859   0.87515   0.00727   0.00000  Uiso   1.00
C277   C     0.13234   0.82832   0.49490   0.00000  Uiso   1.00
C278   C     0.10255   0.85807   0.02941   0.00000  Uiso   1.00
C279   C     0.10363   0.81135   0.43980   0.00000  Uiso   1.00
C280   C     0.18973   0.81499   0.01310   0.00000  Uiso   1.00
C281   C     0.21396   0.77817   0.48060   0.00000  Uiso   1.00
C282   C     0.18133   0.75610   0.42960   0.00000  Uiso   1.00
C283   C     0.12676   0.77249   0.40931   0.00000  Uiso   1.00
C284   C     0.22406   0.83807   0.06256   0.00000  Uiso   1.00
C285   C     0.30095   0.78280   0.05329   0.00000  Uiso   1.00
F286   F     0.07774   0.67265   0.24560   0.00000  Uiso   1.00
H287   H     0.00873   0.76783   0.07055   0.00000  Uiso   1.00
H288   H     0.10257   0.75407   0.36972   0.00000  Uiso   1.00
H289   H     0.26916   0.99697   0.25579   0.00000  Uiso   1.00
H290   H     0.15648   0.79092   0.20873   0.00000  Uiso   1.00
H291   H     0.19832   0.72681   0.40494   0.00000  Uiso   1.00
H292   H     0.28887   0.73486   0.47623   0.00000  Uiso   1.00
H293   H     0.20951   0.86924   0.08647   0.00000  Uiso   1.00
H294   H     0.31828   0.88211   0.43280   0.00000  Uiso   1.00
H295   H     0.11919   0.86759   0.07381   0.00000  Uiso   1.00
H296   H     0.02635   0.89803   0.03388   0.00000  Uiso   1.00
N297   N     0.14493   0.81890   0.23543   0.00000  Uiso   1.00
N298   N     0.18840   0.84777   0.26458   0.00000  Uiso   1.00
O299   O     0.29769   0.91296   0.25357   0.00000  Uiso   1.00
O300   O     0.05742   0.90371   0.24423   0.00000  Uiso   1.00
O301   O     0.31490   0.84024   0.33380   0.00000  Uiso   1.00
O302   O     0.07463   0.83099   0.32446   0.00000  Uiso   1.00
O303   O     0.27592   0.76296   0.25577   0.00000  Uiso   1.00
O304   O     0.03565   0.75371   0.24643   0.00000  Uiso   1.00
O305   O     0.25870   0.83567   0.17554   0.00000  Uiso   1.00
O306   O     0.01843   0.82642   0.16620   0.00000  Uiso   1.00
Zn307  Zn    0.27119   0.83951   0.25624   0.00000  Uiso   1.00
Zn308  Zn    0.06214   0.82716   0.24376   0.00000  Uiso   1.00
Br309  Br    0.50848   0.90173   0.31450   0.00000  Uiso   1.00
C310   C     0.34826   0.93140   0.24896   0.00000  Uiso   1.00
C311   C     0.38642   0.83468   0.41611   0.00000  Uiso   1.00
C312   C     0.35693   0.98566   0.24907   0.00000  Uiso   1.00
C313   C     0.36863   0.83457   0.35514   0.00000  Uiso   1.00
C314   C     0.64519   0.68065   0.25263   0.00000  Uiso   1.00
C315   C     0.65214   0.73517   0.25163   0.00000  Uiso   1.00
C316   C     0.63084   0.82946   0.14482   0.00000  Uiso   1.00
C317   C     0.60342   0.76324   0.00039   0.00000  Uiso   1.00
C318   C     0.61005   0.81927   0.08475   0.00000  Uiso   1.00
C319   C     0.35796   0.86491   0.45038   0.00000  Uiso   1.00
C320   C     0.38193   0.87515   0.00727   0.00000  Uiso   1.00
C321   C     0.46567   0.82832   0.49490   0.00000  Uiso   1.00
C322   C     0.43588   0.85807   0.02941   0.00000  Uiso   1.00
C323   C     0.43696   0.81135   0.43980   0.00000  Uiso   1.00
C324   C     0.52307   0.81499   0.01310   0.00000  Uiso   1.00
C325   C     0.54730   0.77817   0.48060   0.00000  Uiso   1.00
C326   C     0.51466   0.75610   0.42960   0.00000  Uiso   1.00
C327   C     0.46009   0.77249   0.40931   0.00000  Uiso   1.00
C328   C     0.55739   0.83807   0.06256   0.00000  Uiso   1.00
C329   C     0.63428   0.78280   0.05329   0.00000  Uiso   1.00
F330   F     0.41107   0.67265   0.24560   0.00000  Uiso   1.00
H331   H     0.34206   0.76783   0.07055   0.00000  Uiso   1.00
H332   H     0.43591   0.75407   0.36972   0.00000  Uiso   1.00
H333   H     0.60249   0.99697   0.25579   0.00000  Uiso   1.00
H334   H     0.48982   0.79092   0.20873   0.00000  Uiso   1.00
H335   H     0.53166   0.72681   0.40494   0.00000  Uiso   1.00
H336   H     0.62220   0.73486   0.47623   0.00000  Uiso   1.00
H337   H     0.54284   0.86924   0.08647   0.00000  Uiso   1.00
H338   H     0.65161   0.88211   0.43280   0.00000  Uiso   1.00
H339   H     0.45252   0.86759   0.07381   0.00000  Uiso   1.00
H340   H     0.35968   0.89803   0.03388   0.00000  Uiso   1.00
N341   N     0.47827   0.81890   0.23543   0.00000  Uiso   1.00
N342   N     0.52173   0.84777   0.26458   0.00000  Uiso   1.00
O343   O     0.63102   0.91296   0.25357   0.00000  Uiso   1.00
O344   O     0.39075   0.90371   0.24423   0.00000  Uiso   1.00
O345   O     0.64823   0.84024   0.33380   0.00000  Uiso   1.00
O346   O     0.40796   0.83099   0.32446   0.00000  Uiso   1.00
O347   O     0.60925   0.76296   0.25577   0.00000  Uiso   1.00
O348   O     0.36898   0.75371   0.24643   0.00000  Uiso   1.00
O349   O     0.59204   0.83567   0.17554   0.00000  Uiso   1.00
O350   O     0.35177   0.82642   0.16620   0.00000  Uiso   1.00
Zn351  Zn    0.60453   0.83951   0.25624   0.00000  Uiso   1.00
Zn352  Zn    0.39547   0.82716   0.24376   0.00000  Uiso   1.00
Br353  Br    0.84181   0.90173   0.31450   0.00000  Uiso   1.00
C354   C     0.68159   0.93140   0.24896   0.00000  Uiso   1.00
C355   C     0.71975   0.83468   0.41611   0.00000  Uiso   1.00
C356   C     0.69026   0.98566   0.24907   0.00000  Uiso   1.00
C357   C     0.70197   0.83457   0.35514   0.00000  Uiso   1.00
C358   C     0.97852   0.68065   0.25263   0.00000  Uiso   1.00
C359   C     0.98547   0.73517   0.25163   0.00000  Uiso   1.00
C360   C     0.96418   0.82946   0.14482   0.00000  Uiso   1.00
C361   C     0.93676   0.76324   0.00039   0.00000  Uiso   1.00
C362   C     0.94339   0.81927   0.08475   0.00000  Uiso   1.00
C363   C     0.69129   0.86491   0.45038   0.00000  Uiso   1.00
C364   C     0.71526   0.87515   0.00727   0.00000  Uiso   1.00
C365   C     0.79900   0.82832   0.49490   0.00000  Uiso   1.00
C366   C     0.76921   0.85807   0.02941   0.00000  Uiso   1.00
C367   C     0.77030   0.81135   0.43980   0.00000  Uiso   1.00
C368   C     0.85640   0.81499   0.01310   0.00000  Uiso   1.00
C369   C     0.88063   0.77817   0.48060   0.00000  Uiso   1.00
C370   C     0.84800   0.75610   0.42960   0.00000  Uiso   1.00
C371   C     0.79342   0.77249   0.40931   0.00000  Uiso   1.00
C372   C     0.89073   0.83807   0.06256   0.00000  Uiso   1.00
C373   C     0.96761   0.78280   0.05329   0.00000  Uiso   1.00
F374   F     0.74441   0.67265   0.24560   0.00000  Uiso   1.00
H375   H     0.67540   0.76783   0.07055   0.00000  Uiso   1.00
H376   H     0.76924   0.75407   0.36972   0.00000  Uiso   1.00
H377   H     0.93582   0.99697   0.25579   0.00000  Uiso   1.00
H378   H     0.82315   0.79092   0.20873   0.00000  Uiso   1.00
H379   H     0.86499   0.72681   0.40494   0.00000  Uiso   1.00
H380   H     0.95553   0.73486   0.47623   0.00000  Uiso   1.00
H381   H     0.87617   0.86924   0.08647   0.00000  Uiso   1.00
H382   H     0.98495   0.88211   0.43280   0.00000  Uiso   1.00
H383   H     0.78586   0.86759   0.07381   0.00000  Uiso   1.00
H384   H     0.69302   0.89803   0.03388   0.00000  Uiso   1.00
N385   N     0.81160   0.81890   0.23543   0.00000  Uiso   1.00
N386   N     0.85507   0.84777   0.26458   0.00000  Uiso   1.00
O387   O     0.96435   0.91296   0.25357   0.00000  Uiso   1.00
O388   O     0.72408   0.90371   0.24423   0.00000  Uiso   1.00
O389   O     0.98157   0.84024   0.33380   0.00000  Uiso   1.00
O390   O     0.74130   0.83099   0.32446   0.00000  Uiso   1.00
O391   O     0.94258   0.76296   0.25577   0.00000  Uiso   1.00
O392   O     0.70231   0.75371   0.24643   0.00000  Uiso   1.00
O393   O     0.92537   0.83567   0.17554   0.00000  Uiso   1.00
O394   O     0.68510   0.82642   0.16620   0.00000  Uiso   1.00
Zn395  Zn    0.93786   0.83951   0.25624   0.00000  Uiso   1.00
Zn396  Zn    0.72881   0.82716   0.24376   0.00000  Uiso   1.00
Br397  Br    0.17514   0.23506   0.81450   0.00000  Uiso   1.00
C398   C     0.01492   0.26473   0.74896   0.00000  Uiso   1.00
C399   C     0.05308   0.16801   0.91611   0.00000  Uiso   1.00
C400   C     0.02359   0.31899   0.74907   0.00000  Uiso   1.00
C401   C     0.03530   0.16790   0.85514   0.00000  Uiso   1.00
C402   C     0.31186   0.01399   0.75263   0.00000  Uiso   1.00
C403   C     0.31880   0.06850   0.75163   0.00000  Uiso   1.00
C404   C     0.29751   0.16280   0.64482   0.00000  Uiso   1.00
C405   C     0.27009   0.09657   0.50039   0.00000  Uiso   1.00
C406   C     0.27672   0.15261   0.58475   0.00000  Uiso   1.00
C407   C     0.02462   0.19824   0.95038   0.00000  Uiso   1.00
C408   C     0.04859   0.20848   0.50727   0.00000  Uiso   1.00
C409   C     0.13234   0.16166   0.99490   0.00000  Uiso   1.00
C410   C     0.10255   0.19141   0.52941   0.00000  Uiso   1.00
C411   C     0.10363   0.14468   0.93980   0.00000  Uiso   1.00
C412   C     0.18973   0.14832   0.51310   0.00000  Uiso   1.00
C413   C     0.21396   0.11150   0.98060   0.00000  Uiso   1.00
C414   C     0.18133   0.08944   0.92960   0.00000  Uiso   1.00
C415   C     0.12676   0.10583   0.90931   0.00000  Uiso   1.00
C416   C     0.22406   0.17140   0.56256   0.00000  Uiso   1.00
C417   C     0.30095   0.11613   0.55329   0.00000  Uiso   1.00
F418   F     0.07774   0.00598   0.74560   0.00000  Uiso   1.00
H419   H     0.00873   0.10116   0.57055   0.00000  Uiso   1.00
H420   H     0.10257   0.08741   0.86972   0.00000  Uiso   1.00
H421   H     0.26916   0.33031   0.75579   0.00000  Uiso   1.00
H422   H     0.15648   0.12425   0.70873   0.00000  Uiso   1.00
H423   H     0.19832   0.06015   0.90494   0.00000  Uiso   1.00
H424   H     0.28887   0.06819   0.97623   0.00000  Uiso   1.00
H425   H     0.20951   0.20257   0.58647   0.00000  Uiso   1.00
H426   H     0.31828   0.21544   0.93280   0.00000  Uiso   1.00
H427   H     0.11919   0.20092   0.57381   0.00000  Uiso   1.00
H428   H     0.02635   0.23137   0.53388   0.00000  Uiso   1.00
N429   N     0.14493   0.15223   0.73543   0.00000  Uiso   1.00
N430   N     0.18840   0.18110   0.76458   0.00000  Uiso   1.00
O431   O     0.29769   0.24629   0.75357   0.00000  Uiso   1.00
O432   O     0.05742   0.23704   0.74423   0.00000  Uiso   1.00
O433   O     0.31490   0.17358   0.83380   0.00000  Uiso   1.00
O434   O     0.07463   0.16433   0.82446   0.00000  Uiso   1.00
O435   O     0.27592   0.09629   0.75577   0.00000  Uiso   1.00
O436   O     0.03565   0.08704   0.74643   0.00000  Uiso   1.00
O437   O     0.25870   0.16901   0.67554   0.00000  Uiso   1.00
O438   O     0.01843   0.15976   0.66620   0.00000  Uiso   1.00
Zn439  Zn    0.27119   0.17284   0.75624   0.00000  Uiso   1.00
Zn440  Zn    0.06214   0.16049   0.74376   0.00000  Uiso   1.00
Br441  Br    0.50848   0.23506   0.81450   0.00000  Uiso   1.00
C442   C     0.34826   0.26473   0.74896   0.00000  Uiso   1.00
C443   C     0.38642   0.16801   0.91611   0.00000  Uiso   1.00
C444   C     0.35693   0.31899   0.74907   0.00000  Uiso   1.00
C445   C     0.36863   0.16790   0.85514   0.00000  Uiso   1.00
C446   C     0.64519   0.01399   0.75263   0.00000  Uiso   1.00
C447   C     0.65214   0.06850   0.75163   0.00000  Uiso   1.00
C448   C     0.63084   0.16280   0.64482   0.00000  Uiso   1.00
C449   C     0.60342   0.09657   0.50039   0.00000  Uiso   1.00
C450   C     0.61005   0.15261   0.58475   0.00000  Uiso   1.00
C451   C     0.35796   0.19824   0.95038   0.00000  Uiso   1.00
C452   C     0.38193   0.20848   0.50727   0.00000  Uiso   1.00
C453   C     0.46567   0.16166   0.99490   0.00000  Uiso   1.00
C454   C     0.43588   0.19141   0.52941   0.00000  Uiso   1.00
C455   C     0.43696   0.14468   0.93980   0.00000  Uiso   1.00
C456   C     0.52307   0.14832   0.51310   0.00000  Uiso   1.00
C457   C     0.54730   0.11150   0.98060   0.00000  Uiso   1.00
C458   C     0.51466   0.08944   0.92960   0.00000  Uiso   1.00
C459   C     0.46009   0.10583   0.90931   0.00000  Uiso   1.00
C460   C     0.55739   0.17140   0.56256   0.00000  Uiso   1.00
C461   C     0.63428   0.11613   0.55329   0.00000  Uiso   1.00
F462   F     0.41107   0.00598   0.74560   0.00000  Uiso   1.00
H463   H     0.34206   0.10116   0.57055   0.00000  Uiso   1.00
H464   H     0.43591   0.08741   0.86972   0.00000  Uiso   1.00
H465   H     0.60249   0.33031   0.75579   0.00000  Uiso   1.00
H466   H     0.48982   0.12425   0.70873   0.00000  Uiso   1.00
H467   H     0.53166   0.06015   0.90494   0.00000  Uiso   1.00
H468   H     0.62220   0.06819   0.97623   0.00000  Uiso   1.00
H469   H     0.54284   0.20257   0.58647   0.00000  Uiso   1.00
H470   H     0.65161   0.21544   0.93280   0.00000  Uiso   1.00
H471   H     0.45252   0.20092   0.57381   0.00000  Uiso   1.00
H472   H     0.35968   0.23137   0.53388   0.00000  Uiso   1.00
N473   N     0.47827   0.15223   0.73543   0.00000  Uiso   1.00
N474   N     0.52173   0.18110   0.76458   0.00000  Uiso   1.00
O475   O     0.63102   0.24629   0.75357   0.00000  Uiso   1.00
O476   O     0.39075   0.23704   0.74423   0.00000  Uiso   1.00
O477   O     0.64823   0.17358   0.83380   0.00000  Uiso   1.00
O478   O     0.40796   0.16433   0.82446   0.00000  Uiso   1.00
O479   O     0.60925   0.09629   0.75577   0.00000  Uiso   1.00
O480   O     0.36898   0.08704   0.74643   0.00000  Uiso   1.00
O481   O     0.59204   0.16901   0.67554   0.00000  Uiso   1.00
O482   O     0.35177   0.15976   0.66620   0.00000  Uiso   1.00
Zn483  Zn    0.60453   0.17284   0.75624   0.00000  Uiso   1.00
Zn484  Zn    0.39547   0.16049   0.74376   0.00000  Uiso   1.00
Br485  Br    0.84181   0.23506   0.81450   0.00000  Uiso   1.00
C486   C     0.68159   0.26473   0.74896   0.00000  Uiso   1.00
C487   C     0.71975   0.16801   0.91611   0.00000  Uiso   1.00
C488   C     0.69026   0.31899   0.74907   0.00000  Uiso   1.00
C489   C     0.70197   0.16790   0.85514   0.00000  Uiso   1.00
C490   C     0.97852   0.01399   0.75263   0.00000  Uiso   1.00
C491   C     0.98547   0.06850   0.75163   0.00000  Uiso   1.00
C492   C     0.96418   0.16280   0.64482   0.00000  Uiso   1.00
C493   C     0.93676   0.09657   0.50039   0.00000  Uiso   1.00
C494   C     0.94339   0.15261   0.58475   0.00000  Uiso   1.00
C495   C     0.69129   0.19824   0.95038   0.00000  Uiso   1.00
C496   C     0.71526   0.20848   0.50727   0.00000  Uiso   1.00
C497   C     0.79900   0.16166   0.99490   0.00000  Uiso   1.00
C498   C     0.76921   0.19141   0.52941   0.00000  Uiso   1.00
C499   C     0.77030   0.14468   0.93980   0.00000  Uiso   1.00
C500   C     0.85640   0.14832   0.51310   0.00000  Uiso   1.00
C501   C     0.88063   0.11150   0.98060   0.00000  Uiso   1.00
C502   C     0.84800   0.08944   0.92960   0.00000  Uiso   1.00
C503   C     0.79342   0.10583   0.90931   0.00000  Uiso   1.00
C504   C     0.89073   0.17140   0.56256   0.00000  Uiso   1.00
C505   C     0.96761   0.11613   0.55329   0.00000  Uiso   1.00
F506   F     0.74441   0.00598   0.74560   0.00000  Uiso   1.00
H507   H     0.67540   0.10116   0.57055   0.00000  Uiso   1.00
H508   H     0.76924   0.08741   0.86972   0.00000  Uiso   1.00
H509   H     0.93582   0.33031   0.75579   0.00000  Uiso   1.00
H510   H     0.82315   0.12425   0.70873   0.00000  Uiso   1.00
H511   H     0.86499   0.06015   0.90494   0.00000  Uiso   1.00
H512   H     0.95553   0.06819   0.97623   0.00000  Uiso   1.00
H513   H     0.87617   0.20257   0.58647   0.00000  Uiso   1.00
H514   H     0.98495   0.21544   0.93280   0.00000  Uiso   1.00
H515   H     0.78586   0.20092   0.57381   0.00000  Uiso   1.00
H516   H     0.69302   0.23137   0.53388   0.00000  Uiso   1.00
N517   N     0.81160   0.15223   0.73543   0.00000  Uiso   1.00
N518   N     0.85507   0.18110   0.76458   0.00000  Uiso   1.00
O519   O     0.96435   0.24629   0.75357   0.00000  Uiso   1.00
O520   O     0.72408   0.23704   0.74423   0.00000  Uiso   1.00
O521   O     0.98157   0.17358   0.83380   0.00000  Uiso   1.00
O522   O     0.74130   0.16433   0.82446   0.00000  Uiso   1.00
O523   O     0.94258   0.09629   0.75577   0.00000  Uiso   1.00
O524   O     0.70231   0.08704   0.74643   0.00000  Uiso   1.00
O525   O     0.92537   0.16901   0.67554   0.00000  Uiso   1.00
O526   O     0.68510   0.15976   0.66620   0.00000  Uiso   1.00
Zn527  Zn    0.93786   0.17284   0.75624   0.00000  Uiso   1.00
Zn528  Zn    0.72881   0.16049   0.74376   0.00000  Uiso   1.00
Br529  Br    0.17514   0.56840   0.81450   0.00000  Uiso   1.00
C530   C     0.01492   0.59806   0.74896   0.00000  Uiso   1.00
C531   C     0.05308   0.50135   0.91611   0.00000  Uiso   1.00
C532   C     0.02359   0.65232   0.74907   0.00000  Uiso   1.00
C533   C     0.03530   0.50123   0.85514   0.00000  Uiso   1.00
C534   C     0.31186   0.34732   0.75263   0.00000  Uiso   1.00
C535   C     0.31880   0.40184   0.75163   0.00000  Uiso   1.00
C536   C     0.29751   0.49613   0.64482   0.00000  Uiso   1.00
C537   C     0.27009   0.42990   0.50039   0.00000  Uiso   1.00
C538   C     0.27672   0.48594   0.58475   0.00000  Uiso   1.00
C539   C     0.02462   0.53158   0.95038   0.00000  Uiso   1.00
C540   C     0.04859   0.54181   0.50727   0.00000  Uiso   1.00
C541   C     0.13234   0.49499   0.99490   0.00000  Uiso   1.00
C542   C     0.10255   0.52474   0.52941   0.00000  Uiso   1.00
C543   C     0.10363   0.47801   0.93980   0.00000  Uiso   1.00
C544   C     0.18973   0.48166   0.51310   0.00000  Uiso   1.00
C545   C     0.21396   0.44484   0.98060   0.00000  Uiso   1.00
C546   C     0.18133   0.42277   0.92960   0.00000  Uiso   1.00
C547   C     0.12676   0.43916   0.90931   0.00000  Uiso   1.00
C548   C     0.22406   0.50474   0.56256   0.00000  Uiso   1.00
C549   C     0.30095   0.44947   0.55329   0.00000  Uiso   1.00
F550   F     0.07774   0.33931   0.74560   0.00000  Uiso   1.00
H551   H     0.00873   0.43449   0.57055   0.00000  Uiso   1.00
H552   H     0.10257   0.42074   0.86972   0.00000  Uiso   1.00
H553   H     0.26916   0.66364   0.75579   0.00000  Uiso   1.00
H554   H     0.15648   0.45759   0.70873   0.00000  Uiso   1.00
H555   H     0.19832   0.39348   0.90494   0.00000  Uiso   1.00
H556   H     0.28887   0.40153   0.97623   0.00000  Uiso   1.00
H557   H     0.20951   0.53590   0.58647   0.00000  Uiso   1.00
H558   H     0.31828   0.54877   0.93280   0.00000  Uiso   1.00
H559   H     0.11919   0.53425   0.57381   0.00000  Uiso   1.00
H560   H     0.02635   0.56470   0.53388   0.00000  Uiso   1.00
N561   N     0.14493   0.48556   0.73543   0.00000  Uiso   1.00
N562   N     0.18840   0.51444   0.76458   0.00000  Uiso   1.00
O563   O     0.29769   0.57963   0.75357   0.00000  Uiso   1.00
O564   O     0.05742   0.57038   0.74423   0.00000  Uiso   1.00
O565   O     0.31490   0.50691   0.83380   0.00000  Uiso   1.00
O566   O     0.07463   0.49766   0.82446   0.00000  Uiso   1.00
O567   O     0.27592   0.42962   0.75577   0.00000  Uiso   1.00
O568   O     0.03565   0.42037   0.74643   0.00000  Uiso   1.00
O569   O     0.25870   0.50234   0.67554   0.00000  Uiso   1.00
O570   O     0.01843   0.49309   0.66620   0.00000  Uiso   1.00
Zn571  Zn    0.27119   0.50618   0.75624   0.00000  Uiso   1.00
Zn572  Zn    0.06214   0.49382   0.74376   0.00000  Uiso   1.00
Br573  Br    0.50848   0.56840   0.81450   0.00000  Uiso   1.00
C574   C     0.34826   0.59806   0.74896   0.00000  Uiso   1.00
C575   C     0.38642   0.50135   0.91611   0.00000  Uiso   1.00
C576   C     0.35693   0.65232   0.74907   0.00000  Uiso   1.00
C577   C     0.36863   0.50123   0.85514   0.00000  Uiso   1.00
C578   C     0.64519   0.34732   0.75263   0.00000  Uiso   1.00
C579   C     0.65214   0.40184   0.75163   0.00000  Uiso   1.00
C580   C     0.63084   0.49613   0.64482   0.00000  Uiso   1.00
C581   C     0.60342   0.42990   0.50039   0.00000  Uiso   1.00
C582   C     0.61005   0.48594   0.58475   0.00000  Uiso   1.00
C583   C     0.35796   0.53158   0.95038   0.00000  Uiso   1.00
C584   C     0.38193   0.54181   0.50727   0.00000  Uiso   1.00
C585   C     0.46567   0.49499   0.99490   0.00000  Uiso   1.00
C586   C     0.43588   0.52474   0.52941   0.00000  Uiso   1.00
C587   C     0.43696   0.47801   0.93980   0.00000  Uiso   1.00
C588   C     0.52307   0.48166   0.51310   0.00000  Uiso   1.00
C589   C     0.54730   0.44484   0.98060   0.00000  Uiso   1.00
C590   C     0.51466   0.42277   0.92960   0.00000  Uiso   1.00
C591   C     0.46009   0.43916   0.90931   0.00000  Uiso   1.00
C592   C     0.55739   0.50474   0.56256   0.00000  Uiso   1.00
C593   C     0.63428   0.44947   0.55329   0.00000  Uiso   1.00
F594   F     0.41107   0.33931   0.74560   0.00000  Uiso   1.00
H595   H     0.34206   0.43449   0.57055   0.00000  Uiso   1.00
H596   H     0.43591   0.42074   0.86972   0.00000  Uiso   1.00
H597   H     0.60249   0.66364   0.75579   0.00000  Uiso   1.00
H598   H     0.48982   0.45759   0.70873   0.00000  Uiso   1.00
H599   H     0.53166   0.39348   0.90494   0.00000  Uiso   1.00
H600   H     0.62220   0.40153   0.97623   0.00000  Uiso   1.00
H601   H     0.54284   0.53590   0.58647   0.00000  Uiso   1.00
H602   H     0.65161   0.54877   0.93280   0.00000  Uiso   1.00
H603   H     0.45252   0.53425   0.57381   0.00000  Uiso   1.00
H604   H     0.35968   0.56470   0.53388   0.00000  Uiso   1.00
N605   N     0.47827   0.48556   0.73543   0.00000  Uiso   1.00
N606   N     0.52173   0.51444   0.76458   0.00000  Uiso   1.00
O607   O     0.63102   0.57963   0.75357   0.00000  Uiso   1.00
O608   O     0.39075   0.57038   0.74423   0.00000  Uiso   1.00
O609   O     0.64823   0.50691   0.83380   0.00000  Uiso   1.00
O610   O     0.40796   0.49766   0.82446   0.00000  Uiso   1.00
O611   O     0.60925   0.42962   0.75577   0.00000  Uiso   1.00
O612   O     0.36898   0.42037   0.74643   0.00000  Uiso   1.00
O613   O     0.59204   0.50234   0.67554   0.00000  Uiso   1.00
O614   O     0.35177   0.49309   0.66620   0.00000  Uiso   1.00
Zn615  Zn    0.60453   0.50618   0.75624   0.00000  Uiso   1.00
Zn616  Zn    0.39547   0.49382   0.74376   0.00000  Uiso   1.00
Br617  Br    0.84181   0.56840   0.81450   0.00000  Uiso   1.00
C618   C     0.68159   0.59806   0.74896   0.00000  Uiso   1.00
C619   C     0.71975   0.50135   0.91611   0.00000  Uiso   1.00
C620   C     0.69026   0.65232   0.74907   0.00000  Uiso   1.00
C621   C     0.70197   0.50123   0.85514   0.00000  Uiso   1.00
C622   C     0.97852   0.34732   0.75263   0.00000  Uiso   1.00
C623   C     0.98547   0.40184   0.75163   0.00000  Uiso   1.00
C624   C     0.96418   0.49613   0.64482   0.00000  Uiso   1.00
C625   C     0.93676   0.42990   0.50039   0.00000  Uiso   1.00
C626   C     0.94339   0.48594   0.58475   0.00000  Uiso   1.00
C627   C     0.69129   0.53158   0.95038   0.00000  Uiso   1.00
C628   C     0.71526   0.54181   0.50727   0.00000  Uiso   1.00
C629   C     0.79900   0.49499   0.99490   0.00000  Uiso   1.00
C630   C     0.76921   0.52474   0.52941   0.00000  Uiso   1.00
C631   C     0.77030   0.47801   0.93980   0.00000  Uiso   1.00
C632   C     0.85640   0.48166   0.51310   0.00000  Uiso   1.00
C633   C     0.88063   0.44484   0.98060   0.00000  Uiso   1.00
C634   C     0.84800   0.42277   0.92960   0.00000  Uiso   1.00
C635   C     0.79342   0.43916   0.90931   0.00000  Uiso   1.00
C636   C     0.89073   0.50474   0.56256   0.00000  Uiso   1.00
C637   C     0.96761   0.44947   0.55329   0.00000  Uiso   1.00
F638   F     0.74441   0.33931   0.74560   0.00000  Uiso   1.00
H639   H     0.67540   0.43449   0.57055   0.00000  Uiso   1.00
H640   H     0.76924   0.42074   0.86972   0.00000  Uiso   1.00
H641   H     0.93582   0.66364   0.75579   0.00000  Uiso   1.00
H642   H     0.82315   0.45759   0.70873   0.00000  Uiso   1.00
H643   H     0.86499   0.39348   0.90494   0.00000  Uiso   1.00
H644   H     0.95553   0.40153   0.97623   0.00000  Uiso   1.00
H645   H     0.87617   0.53590   0.58647   0.00000  Uiso   1.00
H646   H     0.98495   0.54877   0.93280   0.00000  Uiso   1.00
H647   H     0.78586   0.53425   0.57381   0.00000  Uiso   1.00
H648   H     0.69302   0.56470   0.53388   0.00000  Uiso   1.00
N649   N     0.81160   0.48556   0.73543   0.00000  Uiso   1.00
N650   N     0.85507   0.51444   0.76458   0.00000  Uiso   1.00
O651   O     0.96435   0.57963   0.75357   0.00000  Uiso   1.00
O652   O     0.72408   0.57038   0.74423   0.00000  Uiso   1.00
O653   O     0.98157   0.50691   0.83380   0.00000  Uiso   1.00
O654   O     0.74130   0.49766   0.82446   0.00000  Uiso   1.00
O655   O     0.94258   0.42962   0.75577   0.00000  Uiso   1.00
O656   O     0.70231   0.42037   0.74643   0.00000  Uiso   1.00
O657   O     0.92537   0.50234   0.67554   0.00000  Uiso   1.00
O658   O     0.68510   0.49309   0.66620   0.00000  Uiso   1.00
Zn659  Zn    0.93786   0.50618   0.75624   0.00000  Uiso   1.00
Zn660  Zn    0.72881   0.49382   0.74376   0.00000  Uiso   1.00
Br661  Br    0.17514   0.90173   0.81450   0.00000  Uiso   1.00
C662   C     0.01492   0.93140   0.74896   0.00000  Uiso   1.00
C663   C     0.05308   0.83468   0.91611   0.00000  Uiso   1.00
C664   C     0.02359   0.98566   0.74907   0.00000  Uiso   1.00
C665   C     0.03530   0.83457   0.85514   0.00000  Uiso   1.00
C666   C     0.31186   0.68065   0.75263   0.00000  Uiso   1.00
C667   C     0.31880   0.73517   0.75163   0.00000  Uiso   1.00
C668   C     0.29751   0.82946   0.64482   0.00000  Uiso   1.00
C669   C     0.27009   0.76324   0.50039   0.00000  Uiso   1.00
C670   C     0.27672   0.81927   0.58475   0.00000  Uiso   1.00
C671   C     0.02462   0.86491   0.95038   0.00000  Uiso   1.00
C672   C     0.04859   0.87515   0.50727   0.00000  Uiso   1.00
C673   C     0.13234   0.82832   0.99490   0.00000  Uiso   1.00
C674   C     0.10255   0.85807   0.52941   0.00000  Uiso   1.00
C675   C     0.10363   0.81135   0.93980   0.00000  Uiso   1.00
C676   C     0.18973   0.81499   0.51310   0.00000  Uiso   1.00
C677   C     0.21396   0.77817   0.98060   0.00000  Uiso   1.00
C678   C     0.18133   0.75610   0.92960   0.00000  Uiso   1.00
C679   C     0.12676   0.77249   0.90931   0.00000  Uiso   1.00
C680   C     0.22406   0.83807   0.56256   0.00000  Uiso   1.00
C681   C     0.30095   0.78280   0.55329   0.00000  Uiso   1.00
F682   F     0.07774   0.67265   0.74560   0.00000  Uiso   1.00
H683   H     0.00873   0.76783   0.57055   0.00000  Uiso   1.00
H684   H     0.10257   0.75407   0.86972   0.00000  Uiso   1.00
H685   H     0.26916   0.99697   0.75579   0.00000  Uiso   1.00
H686   H     0.15648   0.79092   0.70873   0.00000  Uiso   1.00
H687   H     0.19832   0.72681   0.90494   0.00000  Uiso   1.00
H688   H     0.28887   0.73486   0.97623   0.00000  Uiso   1.00
H689   H     0.20951   0.86924   0.58647   0.00000  Uiso   1.00
H690   H     0.31828   0.88211   0.93280   0.00000  Uiso   1.00
H691   H     0.11919   0.86759   0.57381   0.00000  Uiso   1.00
H692   H     0.02635   0.89803   0.53388   0.00000  Uiso   1.00
N693   N     0.14493   0.81890   0.73543   0.00000  Uiso   1.00
N694   N     0.18840   0.84777   0.76458   0.00000  Uiso   1.00
O695   O     0.29769   0.91296   0.75357   0.00000  Uiso   1.00
O696   O     0.05742   0.90371   0.74423   0.00000  Uiso   1.00
O697   O     0.31490   0.84024   0.83380   0.00000  Uiso   1.00
O698   O     0.07463   0.83099   0.82446   0.00000  Uiso   1.00
O699   O     0.27592   0.76296   0.75577   0.00000  Uiso   1.00
O700   O     0.03565   0.75371   0.74643   0.00000  Uiso   1.00
O701   O     0.25870   0.83567   0.67554   0.00000  Uiso   1.00
O702   O     0.01843   0.82642   0.66620   0.00000  Uiso   1.00
Zn703  Zn    0.27119   0.83951   0.75624   0.00000  Uiso   1.00
Zn704  Zn    0.06214   0.82716   0.74376   0.00000  Uiso   1.00
Br705  Br    0.50848   0.90173   0.81450   0.00000  Uiso   1.00
C706   C     0.34826   0.93140   0.74896   0.00000  Uiso   1.00
C707   C     0.38642   0.83468   0.91611   0.00000  Uiso   1.00
C708   C     0.35693   0.98566   0.74907   0.00000  Uiso   1.00
C709   C     0.36863   0.83457   0.85514   0.00000  Uiso   1.00
C710   C     0.64519   0.68065   0.75263   0.00000  Uiso   1.00
C711   C     0.65214   0.73517   0.75163   0.00000  Uiso   1.00
C712   C     0.63084   0.82946   0.64482   0.00000  Uiso   1.00
C713   C     0.60342   0.76324   0.50039   0.00000  Uiso   1.00
C714   C     0.61005   0.81927   0.58475   0.00000  Uiso   1.00
C715   C     0.35796   0.86491   0.95038   0.00000  Uiso   1.00
C716   C     0.38193   0.87515   0.50727   0.00000  Uiso   1.00
C717   C     0.46567   0.82832   0.99490   0.00000  Uiso   1.00
C718   C     0.43588   0.85807   0.52941   0.00000  Uiso   1.00
C719   C     0.43696   0.81135   0.93980   0.00000  Uiso   1.00
C720   C     0.52307   0.81499   0.51310   0.00000  Uiso   1.00
C721   C     0.54730   0.77817   0.98060   0.00000  Uiso   1.00
C722   C     0.51466   0.75610   0.92960   0.00000  Uiso   1.00
C723   C     0.46009   0.77249   0.90931   0.00000  Uiso   1.00
C724   C     0.55739   0.83807   0.56256   0.00000  Uiso   1.00
C725   C     0.63428   0.78280   0.55329   0.00000  Uiso   1.00
F726   F     0.41107   0.67265   0.74560   0.00000  Uiso   1.00
H727   H     0.34206   0.76783   0.57055   0.00000  Uiso   1.00
H728   H     0.43591   0.75407   0.86972   0.00000  Uiso   1.00
H729   H     0.60249   0.99697   0.75579   0.00000  Uiso   1.00
H730   H     0.48982   0.79092   0.70873   0.00000  Uiso   1.00
H731   H     0.53166   0.72681   0.90494   0.00000  Uiso   1.00
H732   H     0.62220   0.73486   0.97623   0.00000  Uiso   1.00
H733   H     0.54284   0.86924   0.58647   0.00000  Uiso   1.00
H734   H     0.65161   0.88211   0.93280   0.00000  Uiso   1.00
H735   H     0.45252   0.86759   0.57381   0.00000  Uiso   1.00
H736   H     0.35968   0.89803   0.53388   0.00000  Uiso   1.00
N737   N     0.47827   0.81890   0.73543   0.00000  Uiso   1.00
N738   N     0.52173   0.84777   0.76458   0.00000  Uiso   1.00
O739   O     0.63102   0.91296   0.75357   0.00000  Uiso   1.00
O740   O     0.39075   0.90371   0.74423   0.00000  Uiso   1.00
O741   O     0.64823   0.84024   0.83380   0.00000  Uiso   1.00
O742   O     0.40796   0.83099   0.82446   0.00000  Uiso   1.00
O743   O     0.60925   0.76296   0.75577   0.00000  Uiso   1.00
O744   O     0.36898   0.75371   0.74643   0.00000  Uiso   1.00
O745   O     0.59204   0.83567   0.67554   0.00000  Uiso   1.00
O746   O     0.35177   0.82642   0.66620   0.00000  Uiso   1.00
Zn747  Zn    0.60453   0.83951   0.75624   0.00000  Uiso   1.00
Zn748  Zn    0.39547   0.82716   0.74376   0.00000  Uiso   1.00
Br749  Br    0.84181   0.90173   0.81450   0.00000  Uiso   1.00
C750   C     0.68159   0.93140   0.74896   0.00000  Uiso   1.00
C751   C     0.71975   0.83468   0.91611   0.00000  Uiso   1.00
C752   C     0.69026   0.98566   0.74907   0.00000  Uiso   1.00
C753   C     0.70197   0.83457   0.85514   0.00000  Uiso   1.00
C754   C     0.97852   0.68065   0.75263   0.00000  Uiso   1.00
C755   C     0.98547   0.73517   0.75163   0.00000  Uiso   1.00
C756   C     0.96418   0.82946   0.64482   0.00000  Uiso   1.00
C757   C     0.93676   0.76324   0.50039   0.00000  Uiso   1.00
C758   C     0.94339   0.81927   0.58475   0.00000  Uiso   1.00
C759   C     0.69129   0.86491   0.95038   0.00000  Uiso   1.00
C760   C     0.71526   0.87515   0.50727   0.00000  Uiso   1.00
C761   C     0.79900   0.82832   0.99490   0.00000  Uiso   1.00
C762   C     0.76921   0.85807   0.52941   0.00000  Uiso   1.00
C763   C     0.77030   0.81135   0.93980   0.00000  Uiso   1.00
C764   C     0.85640   0.81499   0.51310   0.00000  Uiso   1.00
C765   C     0.88063   0.77817   0.98060   0.00000  Uiso   1.00
C766   C     0.84800   0.75610   0.92960   0.00000  Uiso   1.00
C767   C     0.79342   0.77249   0.90931   0.00000  Uiso   1.00
C768   C     0.89073   0.83807   0.56256   0.00000  Uiso   1.00
C769   C     0.96761   0.78280   0.55329   0.00000  Uiso   1.00
F770   F     0.74441   0.67265   0.74560   0.00000  Uiso   1.00
H771   H     0.67540   0.76783   0.57055   0.00000  Uiso   1.00
H772   H     0.76924   0.75407   0.86972   0.00000  Uiso   1.00
H773   H     0.93582   0.99697   0.75579   0.00000  Uiso   1.00
H774   H     0.82315   0.79092   0.70873   0.00000  Uiso   1.00
H775   H     0.86499   0.72681   0.90494   0.00000  Uiso   1.00
H776   H     0.95553   0.73486   0.97623   0.00000  Uiso   1.00
H777   H     0.87617   0.86924   0.58647   0.00000  Uiso   1.00
H778   H     0.98495   0.88211   0.93280   0.00000  Uiso   1.00
H779   H     0.78586   0.86759   0.57381   0.00000  Uiso   1.00
H780   H     0.69302   0.89803   0.53388   0.00000  Uiso   1.00
N781   N     0.81160   0.81890   0.73543   0.00000  Uiso   1.00
N782   N     0.85507   0.84777   0.76458   0.00000  Uiso   1.00
O783   O     0.96435   0.91296   0.75357   0.00000  Uiso   1.00
O784   O     0.72408   0.90371   0.74423   0.00000  Uiso   1.00
O785   O     0.98157   0.84024   0.83380   0.00000  Uiso   1.00
O786   O     0.74130   0.83099   0.82446   0.00000  Uiso   1.00
O787   O     0.94258   0.76296   0.75577   0.00000  Uiso   1.00
O788   O     0.70231   0.75371   0.74643   0.00000  Uiso   1.00
O789   O     0.92537   0.83567   0.67554   0.00000  Uiso   1.00
O790   O     0.68510   0.82642   0.66620   0.00000  Uiso   1.00
Zn791  Zn    0.93786   0.83951   0.75624   0.00000  Uiso   1.00
Zn792  Zn    0.72881   0.82716   0.74376   0.00000  Uiso   1.00
loop_
_geom_bond_atom_site_label_1
_geom_bond_atom_site_label_2
_geom_bond_distance
_geom_bond_site_symmetry_2
_ccdc_geom_bond_type
Br1    N34     1.878   .     S
C2     C4      1.399   .     S
C2     O36     1.289   .     A
C2     O123    1.280   1_455 S
C3     C15     1.407   .     A
C3     C11     1.403   .     A
C3     C5      1.453   .     S
C4     C226    1.344   1_455 S
C4     F154    1.365   .     S
C5     O38     1.300   .     A
C5     O125    1.293   1_455 S
C6     C7      1.405   .     S
C6     C312    1.344   1_545 S
C6     H289    1.088   1_545 S
C7     O39     1.295   .     A
C7     O84     1.276   .     S
C8     O41     1.299   .     A
C8     C10     1.445   .     S
C8     O86     1.292   .     S
C9     C21     1.394   .     A
C9     C413    1.404   1_554 S
C9     H424    1.084   1_554 S
C10    C21     1.400   .     A
C10    C20     1.383   .     A
C11    C408    1.387   .     S
C11    H118    1.083   1_455 S
C12    C14     1.391   .     A
C12    H32     1.083   .     S
C12    C407    1.387   1_554 S
C13    C15     1.405   .     A
C13    C410    1.420   .     S
C13    C412    1.411   .     S
C14    H31     1.079   .     S
C14    C409    1.420   1_554 S
C15    C19     1.415   .     A
C16    C20     1.387   .     A
C16    C409    1.411   1_554 S
C16    C413    1.421   1_554 S
C17    C18     1.392   .     A
C17    C405    1.404   .     S
C17    C412    1.421   .     S
C18    C19     1.387   .     A
C18    H27     1.084   .     S
C19    H24     1.082   .     S
C20    H29     1.080   .     S
C21    H67     1.083   .     S
F22    C268    1.365   1_545 S
H23    C109    1.083   1_455 S
H25    C138    1.088   .     S
H26    N33     1.029   .     S
H28    C405    1.084   .     S
H30    C55     1.083   .     S
N33    N34     1.289   .     D
N33    Zn44    2.025   .     S
N34    Zn43    2.025   .     S
O35    Zn43    1.960   .     S
O35    C46     1.280   .     S
O36    Zn44    1.983   .     S
O37    Zn43    1.955   .     S
O37    C49     1.293   .     S
O38    Zn44    1.913   .     S
O39    Zn43    1.983   .     S
O40    Zn44    1.960   .     S
O40    C95     1.276   1_455 S
O41    Zn43    1.913   .     S
O42    Zn44    1.955   .     S
O42    C96     1.292   1_455 S
Br45   N78     1.878   .     S
C46    C48     1.399   .     S
C46    O80     1.289   .     A
C47    C59     1.407   .     A
C47    C55     1.403   .     A
C47    C49     1.453   .     S
C48    C138    1.344   .     S
C48    F198    1.365   .     S
C49    O82     1.300   .     A
C50    C51     1.405   .     S
C50    C356    1.344   1_545 S
C50    H333    1.088   1_545 S
C51    O83     1.295   .     A
C51    O128    1.276   .     S
C52    O85     1.299   .     A
C52    C54     1.445   .     S
C52    O130    1.292   .     S
C53    C65     1.394   .     A
C53    C457    1.404   1_554 S
C53    H468    1.084   1_554 S
C54    C65     1.400   .     A
C54    C64     1.383   .     A
C55    C452    1.387   .     S
C56    C58     1.391   .     A
C56    H76     1.083   .     S
C56    C451    1.387   1_554 S
C57    C59     1.405   .     A
C57    C454    1.420   .     S
C57    C456    1.411   .     S
C58    H75     1.079   .     S
C58    C453    1.420   1_554 S
C59    C63     1.415   .     A
C60    C64     1.387   .     A
C60    C453    1.411   1_554 S
C60    C457    1.421   1_554 S
C61    C62     1.392   .     A
C61    C449    1.404   .     S
C61    C456    1.421   .     S
C62    C63     1.387   .     A
C62    H71     1.084   .     S
C63    H68     1.082   .     S
C64    H73     1.080   .     S
C65    H111    1.083   .     S
F66    C312    1.365   1_545 S
H69    C182    1.088   .     S
H70    N77     1.029   .     S
H72    C449    1.084   .     S
H74    C99     1.083   .     S
N77    N78     1.289   .     D
N77    Zn88    2.025   .     S
N78    Zn87    2.025   .     S
O79    Zn87    1.960   .     S
O79    C90     1.280   .     S
O80    Zn88    1.983   .     S
O81    Zn87    1.955   .     S
O81    C93     1.293   .     S
O82    Zn88    1.913   .     S
O83    Zn87    1.983   .     S
O84    Zn88    1.960   .     S
O85    Zn87    1.913   .     S
O86    Zn88    1.955   .     S
Br89   N122    1.878   .     S
C90    C92     1.399   .     S
C90    O124    1.289   .     A
C91    C103    1.407   .     A
C91    C99     1.403   .     A
C91    C93     1.453   .     S
C92    C182    1.344   .     S
C92    F242    1.365   .     S
C93    O126    1.300   .     A
C94    C95     1.405   .     S
C94    C268    1.344   1_645 S
C94    H377    1.088   1_545 S
C95    O127    1.295   .     A
C95    O40     1.276   1_655 S
C96    O129    1.299   .     A
C96    C98     1.445   .     S
C96    O42     1.292   1_655 S
C97    C109    1.394   .     A
C97    C501    1.404   1_554 S
C97    H512    1.084   1_554 S
C98    C109    1.400   .     A
C98    C108    1.383   .     A
C99    C496    1.387   .     S
C100   C102    1.391   .     A
C100   H120    1.083   .     S
C100   C495    1.387   1_554 S
C101   C103    1.405   .     A
C101   C498    1.420   .     S
C101   C500    1.411   .     S
C102   H119    1.079   .     S
C102   C497    1.420   1_554 S
C103   C107    1.415   .     A
C104   C108    1.387   .     A
C104   C497    1.411   1_554 S
C104   C501    1.421   1_554 S
C105   C106    1.392   .     A
C105   C493    1.404   .     S
C105   C500    1.421   .     S
C106   C107    1.387   .     A
C106   H115    1.084   .     S
C107   H112    1.082   .     S
C108   H117    1.080   .     S
C109   H23     1.083   1_655 S
F110   C356    1.365   1_545 S
H113   C226    1.088   .     S
H114   N121    1.029   .     S
H116   C493    1.084   .     S
H118   C11     1.083   1_655 S
N121   N122    1.289   .     D
N121   Zn132   2.025   .     S
N122   Zn131   2.025   .     S
O123   Zn131   1.960   .     S
O123   C2      1.280   1_655 S
O124   Zn132   1.983   .     S
O125   Zn131   1.955   .     S
O125   C5      1.293   1_655 S
O126   Zn132   1.913   .     S
O127   Zn131   1.983   .     S
O128   Zn132   1.960   .     S
O129   Zn131   1.913   .     S
O130   Zn132   1.955   .     S
Br133  N166    1.878   .     S
C134   C136    1.399   .     S
C134   O168    1.289   .     A
C134   O255    1.280   1_455 S
C135   C147    1.407   .     A
C135   C143    1.403   .     A
C135   C137    1.453   .     S
C136   C358    1.344   1_455 S
C136   F286    1.365   .     S
C137   O170    1.300   .     A
C137   O257    1.293   1_455 S
C138   C139    1.405   .     S
C139   O171    1.295   .     A
C139   O216    1.276   .     S
C140   O173    1.299   .     A
C140   C142    1.445   .     S
C140   O218    1.292   .     S
C141   C153    1.394   .     A
C141   C545    1.404   1_554 S
C141   H556    1.084   1_554 S
C142   C153    1.400   .     A
C142   C152    1.383   .     A
C143   C540    1.387   .     S
C143   H250    1.083   1_455 S
C144   C146    1.391   .     A
C144   H164    1.083   .     S
C144   C539    1.387   1_554 S
C145   C147    1.405   .     A
C145   C542    1.420   .     S
C145   C544    1.411   .     S
C146   H163    1.079   .     S
C146   C541    1.420   1_554 S
C147   C151    1.415   .     A
C148   C152    1.387   .     A
C148   C541    1.411   1_554 S
C148   C545    1.421   1_554 S
C149   C150    1.392   .     A
C149   C537    1.404   .     S
C149   C544    1.421   .     S
C150   C151    1.387   .     A
C150   H159    1.084   .     S
C151   H156    1.082   .     S
C152   H161    1.080   .     S
C153   H199    1.083   .     S
H155   C241    1.083   1_455 S
H157   C270    1.088   .     S
H158   N165    1.029   .     S
H160   C537    1.084   .     S
H162   C187    1.083   .     S
N165   N166    1.289   .     D
N165   Zn176   2.025   .     S
N166   Zn175   2.025   .     S
O167   Zn175   1.960   .     S
O167   C178    1.280   .     S
O168   Zn176   1.983   .     S
O169   Zn175   1.955   .     S
O169   C181    1.293   .     S
O170   Zn176   1.913   .     S
O171   Zn175   1.983   .     S
O172   Zn176   1.960   .     S
O172   C227    1.276   1_455 S
O173   Zn175   1.913   .     S
O174   Zn176   1.955   .     S
O174   C228    1.292   1_455 S
Br177  N210    1.878   .     S
C178   C180    1.399   .     S
C178   O212    1.289   .     A
C179   C191    1.407   .     A
C179   C187    1.403   .     A
C179   C181    1.453   .     S
C180   C270    1.344   .     S
C180   F330    1.365   .     S
C181   O214    1.300   .     A
C182   C183    1.405   .     S
C183   O215    1.295   .     A
C183   O260    1.276   .     S
C184   O217    1.299   .     A
C184   C186    1.445   .     S
C184   O262    1.292   .     S
C185   C197    1.394   .     A
C185   C589    1.404   1_554 S
C185   H600    1.084   1_554 S
C186   C197    1.400   .     A
C186   C196    1.383   .     A
C187   C584    1.387   .     S
C188   C190    1.391   .     A
C188   H208    1.083   .     S
C188   C583    1.387   1_554 S
C189   C191    1.405   .     A
C189   C586    1.420   .     S
C189   C588    1.411   .     S
C190   H207    1.079   .     S
C190   C585    1.420   1_554 S
C191   C195    1.415   .     A
C192   C196    1.387   .     A
C192   C585    1.411   1_554 S
C192   C589    1.421   1_554 S
C193   C194    1.392   .     A
C193   C581    1.404   .     S
C193   C588    1.421   .     S
C194   C195    1.387   .     A
C194   H203    1.084   .     S
C195   H200    1.082   .     S
C196   H205    1.080   .     S
C197   H243    1.083   .     S
H201   C314    1.088   .     S
H202   N209    1.029   .     S
H204   C581    1.084   .     S
H206   C231    1.083   .     S
N209   N210    1.289   .     D
N209   Zn220   2.025   .     S
N210   Zn219   2.025   .     S
O211   Zn219   1.960   .     S
O211   C222    1.280   .     S
O212   Zn220   1.983   .     S
O213   Zn219   1.955   .     S
O213   C225    1.293   .     S
O214   Zn220   1.913   .     S
O215   Zn219   1.983   .     S
O216   Zn220   1.960   .     S
O217   Zn219   1.913   .     S
O218   Zn220   1.955   .     S
Br221  N254    1.878   .     S
C222   C224    1.399   .     S
C222   O256    1.289   .     A
C223   C235    1.407   .     A
C223   C231    1.403   .     A
C223   C225    1.453   .     S
C224   C314    1.344   .     S
C224   F374    1.365   .     S
C225   O258    1.300   .     A
C226   C227    1.405   .     S
C226   C4      1.344   1_655 S
C227   O259    1.295   .     A
C227   O172    1.276   1_655 S
C228   O261    1.299   .     A
C228   C230    1.445   .     S
C228   O174    1.292   1_655 S
C229   C241    1.394   .     A
C229   C633    1.404   1_554 S
C229   H644    1.084   1_554 S
C230   C241    1.400   .     A
C230   C240    1.383   .     A
C231   C628    1.387   .     S
C232   C234    1.391   .     A
C232   H252    1.083   .     S
C232   C627    1.387   1_554 S
C233   C235    1.405   .     A
C233   C630    1.420   .     S
C233   C632    1.411   .     S
C234   H251    1.079   .     S
C234   C629    1.420   1_554 S
C235   C239    1.415   .     A
C236   C240    1.387   .     A
C236   C629    1.411   1_554 S
C236   C633    1.421   1_554 S
C237   C238    1.392   .     A
C237   C625    1.404   .     S
C237   C632    1.421   .     S
C238   C239    1.387   .     A
C238   H247    1.084   .     S
C239   H244    1.082   .     S
C240   H249    1.080   .     S
C241   H155    1.083   1_655 S
H245   C358    1.088   .     S
H246   N253    1.029   .     S
H248   C625    1.084   .     S
H250   C143    1.083   1_655 S
N253   N254    1.289   .     D
N253   Zn264   2.025   .     S
N254   Zn263   2.025   .     S
O255   Zn263   1.960   .     S
O255   C134    1.280   1_655 S
O256   Zn264   1.983   .     S
O257   Zn263   1.955   .     S
O257   C137    1.293   1_655 S
O258   Zn264   1.913   .     S
O259   Zn263   1.983   .     S
O260   Zn264   1.960   .     S
O261   Zn263   1.913   .     S
O262   Zn264   1.955   .     S
Br265  N298    1.878   .     S
C266   C268    1.399   .     S
C266   O300    1.289   .     A
C266   O387    1.280   1_455 S
C267   C279    1.407   .     A
C267   C275    1.403   .     A
C267   C269    1.453   .     S
C268   C94     1.344   1_465 S
C268   F22     1.365   1_565 S
C269   O302    1.300   .     A
C269   O389    1.293   1_455 S
C270   C271    1.405   .     S
C271   O303    1.295   .     A
C271   O348    1.276   .     S
C272   O305    1.299   .     A
C272   C274    1.445   .     S
C272   O350    1.292   .     S
C273   C285    1.394   .     A
C273   C677    1.404   1_554 S
C273   H688    1.084   1_554 S
C274   C285    1.400   .     A
C274   C284    1.383   .     A
C275   C672    1.387   .     S
C275   H382    1.083   1_455 S
C276   C278    1.391   .     A
C276   H296    1.083   .     S
C276   C671    1.387   1_554 S
C277   C279    1.405   .     A
C277   C674    1.420   .     S
C277   C676    1.411   .     S
C278   H295    1.079   .     S
C278   C673    1.420   1_554 S
C279   C283    1.415   .     A
C280   C284    1.387   .     A
C280   C673    1.411   1_554 S
C280   C677    1.421   1_554 S
C281   C282    1.392   .     A
C281   C669    1.404   .     S
C281   C676    1.421   .     S
C282   C283    1.387   .     A
C282   H291    1.084   .     S
C283   H288    1.082   .     S
C284   H293    1.080   .     S
C285   H331    1.083   .     S
H287   C373    1.083   1_455 S
H289   C6      1.088   1_565 S
H290   N297    1.029   .     S
H292   C669    1.084   .     S
H294   C319    1.083   .     S
N297   N298    1.289   .     D
N297   Zn308   2.025   .     S
N298   Zn307   2.025   .     S
O299   Zn307   1.960   .     S
O299   C310    1.280   .     S
O300   Zn308   1.983   .     S
O301   Zn307   1.955   .     S
O301   C313    1.293   .     S
O302   Zn308   1.913   .     S
O303   Zn307   1.983   .     S
O304   Zn308   1.960   .     S
O304   C359    1.276   1_455 S
O305   Zn307   1.913   .     S
O306   Zn308   1.955   .     S
O306   C360    1.292   1_455 S
Br309  N342    1.878   .     S
C310   C312    1.399   .     S
C310   O344    1.289   .     A
C311   C323    1.407   .     A
C311   C319    1.403   .     A
C311   C313    1.453   .     S
C312   C6      1.344   1_565 S
C312   F66     1.365   1_565 S
C313   O346    1.300   .     A
C314   C315    1.405   .     S
C315   O347    1.295   .     A
C315   O392    1.276   .     S
C316   O349    1.299   .     A
C316   C318    1.445   .     S
C316   O394    1.292   .     S
C317   C329    1.394   .     A
C317   C721    1.404   1_554 S
C317   H732    1.084   1_554 S
C318   C329    1.400   .     A
C318   C328    1.383   .     A
C319   C716    1.387   .     S
C320   C322    1.391   .     A
C320   H340    1.083   .     S
C320   C715    1.387   1_554 S
C321   C323    1.405   .     A
C321   C718    1.420   .     S
C321   C720    1.411   .     S
C322   H339    1.079   .     S
C322   C717    1.420   1_554 S
C323   C327    1.415   .     A
C324   C328    1.387   .     A
C324   C717    1.411   1_554 S
C324   C721    1.421   1_554 S
C325   C326    1.392   .     A
C325   C713    1.404   .     S
C325   C720    1.421   .     S
C326   C327    1.387   .     A
C326   H335    1.084   .     S
C327   H332    1.082   .     S
C328   H337    1.080   .     S
C329   H375    1.083   .     S
H333   C50     1.088   1_565 S
H334   N341    1.029   .     S
H336   C713    1.084   .     S
H338   C363    1.083   .     S
N341   N342    1.289   .     D
N341   Zn352   2.025   .     S
N342   Zn351   2.025   .     S
O343   Zn351   1.960   .     S
O343   C354    1.280   .     S
O344   Zn352   1.983   .     S
O345   Zn351   1.955   .     S
O345   C357    1.293   .     S
O346   Zn352   1.913   .     S
O347   Zn351   1.983   .     S
O348   Zn352   1.960   .     S
O349   Zn351   1.913   .     S
O350   Zn352   1.955   .     S
Br353  N386    1.878   .     S
C354   C356    1.399   .     S
C354   O388    1.289   .     A
C355   C367    1.407   .     A
C355   C363    1.403   .     A
C355   C357    1.453   .     S
C356   C50     1.344   1_565 S
C356   F110    1.365   1_565 S
C357   O390    1.300   .     A
C358   C359    1.405   .     S
C358   C136    1.344   1_655 S
C359   O391    1.295   .     A
C359   O304    1.276   1_655 S
C360   O393    1.299   .     A
C360   C362    1.445   .     S
C360   O306    1.292   1_655 S
C361   C373    1.394   .     A
C361   C765    1.404   1_554 S
C361   H776    1.084   1_554 S
C362   C373    1.400   .     A
C362   C372    1.383   .     A
C363   C760    1.387   .     S
C364   C366    1.391   .     A
C364   H384    1.083   .     S
C364   C759    1.387   1_554 S
C365   C367    1.405   .     A
C365   C762    1.420   .     S
C365   C764    1.411   .     S
C366   H383    1.079   .     S
C366   C761    1.420   1_554 S
C367   C371    1.415   .     A
C368   C372    1.387   .     A
C368   C761    1.411   1_554 S
C368   C765    1.421   1_554 S
C369   C370    1.392   .     A
C369   C757    1.404   .     S
C369   C764    1.421   .     S
C370   C371    1.387   .     A
C370   H379    1.084   .     S
C371   H376    1.082   .     S
C372   H381    1.080   .     S
C373   H287    1.083   1_655 S
H377   C94     1.088   1_565 S
H378   N385    1.029   .     S
H380   C757    1.084   .     S
H382   C275    1.083   1_655 S
N385   N386    1.289   .     D
N385   Zn396   2.025   .     S
N386   Zn395   2.025   .     S
O387   Zn395   1.960   .     S
O387   C266    1.280   1_655 S
O388   Zn396   1.983   .     S
O389   Zn395   1.955   .     S
O389   C269    1.293   1_655 S
O390   Zn396   1.913   .     S
O391   Zn395   1.983   .     S
O392   Zn396   1.960   .     S
O393   Zn395   1.913   .     S
O394   Zn396   1.955   .     S
Br397  N430    1.878   .     S
C398   C400    1.399   .     S
C398   O432    1.289   .     A
C398   O519    1.280   1_455 S
C399   C411    1.407   .     A
C399   C407    1.403   .     A
C399   C401    1.453   .     S
C400   C622    1.344   1_455 S
C400   F550    1.365   .     S
C401   O434    1.300   .     A
C401   O521    1.293   1_455 S
C402   C403    1.405   .     S
C402   C708    1.344   1_545 S
C402   H685    1.088   1_545 S
C403   O435    1.295   .     A
C403   O480    1.276   .     S
C404   O437    1.299   .     A
C404   C406    1.445   .     S
C404   O482    1.292   .     S
C405   C417    1.394   .     A
C406   C417    1.400   .     A
C406   C416    1.383   .     A
C407   C12     1.387   1_556 S
C407   H514    1.083   1_455 S
C408   C410    1.391   .     A
C408   H428    1.083   .     S
C409   C411    1.405   .     A
C409   C14     1.420   1_556 S
C409   C16     1.411   1_556 S
C410   H427    1.079   .     S
C411   C415    1.415   .     A
C412   C416    1.387   .     A
C413   C414    1.392   .     A
C413   C9      1.404   1_556 S
C413   C16     1.421   1_556 S
C414   C415    1.387   .     A
C414   H423    1.084   .     S
C415   H420    1.082   .     S
C416   H425    1.080   .     S
C417   H463    1.083   .     S
F418   C664    1.365   1_545 S
H419   C505    1.083   1_455 S
H421   C534    1.088   .     S
H422   N429    1.029   .     S
H424   C9      1.084   1_556 S
H426   C451    1.083   .     S
N429   N430    1.289   .     D
N429   Zn440   2.025   .     S
N430   Zn439   2.025   .     S
O431   Zn439   1.960   .     S
O431   C442    1.280   .     S
O432   Zn440   1.983   .     S
O433   Zn439   1.955   .     S
O433   C445    1.293   .     S
O434   Zn440   1.913   .     S
O435   Zn439   1.983   .     S
O436   Zn440   1.960   .     S
O436   C491    1.276   1_455 S
O437   Zn439   1.913   .     S
O438   Zn440   1.955   .     S
O438   C492    1.292   1_455 S
Br441  N474    1.878   .     S
C442   C444    1.399   .     S
C442   O476    1.289   .     A
C443   C455    1.407   .     A
C443   C451    1.403   .     A
C443   C445    1.453   .     S
C444   C534    1.344   .     S
C444   F594    1.365   .     S
C445   O478    1.300   .     A
C446   C447    1.405   .     S
C446   C752    1.344   1_545 S
C446   H729    1.088   1_545 S
C447   O479    1.295   .     A
C447   O524    1.276   .     S
C448   O481    1.299   .     A
C448   C450    1.445   .     S
C448   O526    1.292   .     S
C449   C461    1.394   .     A
C450   C461    1.400   .     A
C450   C460    1.383   .     A
C451   C56     1.387   1_556 S
C452   C454    1.391   .     A
C452   H472    1.083   .     S
C453   C455    1.405   .     A
C453   C58     1.420   1_556 S
C453   C60     1.411   1_556 S
C454   H471    1.079   .     S
C455   C459    1.415   .     A
C456   C460    1.387   .     A
C457   C458    1.392   .     A
C457   C53     1.404   1_556 S
C457   C60     1.421   1_556 S
C458   C459    1.387   .     A
C458   H467    1.084   .     S
C459   H464    1.082   .     S
C460   H469    1.080   .     S
C461   H507    1.083   .     S
F462   C708    1.365   1_545 S
H465   C578    1.088   .     S
H466   N473    1.029   .     S
H468   C53     1.084   1_556 S
H470   C495    1.083   .     S
N473   N474    1.289   .     D
N473   Zn484   2.025   .     S
N474   Zn483   2.025   .     S
O475   Zn483   1.960   .     S
O475   C486    1.280   .     S
O476   Zn484   1.983   .     S
O477   Zn483   1.955   .     S
O477   C489    1.293   .     S
O478   Zn484   1.913   .     S
O479   Zn483   1.983   .     S
O480   Zn484   1.960   .     S
O481   Zn483   1.913   .     S
O482   Zn484   1.955   .     S
Br485  N518    1.878   .     S
C486   C488    1.399   .     S
C486   O520    1.289   .     A
C487   C499    1.407   .     A
C487   C495    1.403   .     A
C487   C489    1.453   .     S
C488   C578    1.344   .     S
C488   F638    1.365   .     S
C489   O522    1.300   .     A
C490   C491    1.405   .     S
C490   C664    1.344   1_645 S
C490   H773    1.088   1_545 S
C491   O523    1.295   .     A
C491   O436    1.276   1_655 S
C492   O525    1.299   .     A
C492   C494    1.445   .     S
C492   O438    1.292   1_655 S
C493   C505    1.394   .     A
C494   C505    1.400   .     A
C494   C504    1.383   .     A
C495   C100    1.387   1_556 S
C496   C498    1.391   .     A
C496   H516    1.083   .     S
C497   C499    1.405   .     A
C497   C102    1.420   1_556 S
C497   C104    1.411   1_556 S
C498   H515    1.079   .     S
C499   C503    1.415   .     A
C500   C504    1.387   .     A
C501   C502    1.392   .     A
C501   C97     1.404   1_556 S
C501   C104    1.421   1_556 S
C502   C503    1.387   .     A
C502   H511    1.084   .     S
C503   H508    1.082   .     S
C504   H513    1.080   .     S
C505   H419    1.083   1_655 S
F506   C752    1.365   1_545 S
H509   C622    1.088   .     S
H510   N517    1.029   .     S
H512   C97     1.084   1_556 S
H514   C407    1.083   1_655 S
N517   N518    1.289   .     D
N517   Zn528   2.025   .     S
N518   Zn527   2.025   .     S
O519   Zn527   1.960   .     S
O519   C398    1.280   1_655 S
O520   Zn528   1.983   .     S
O521   Zn527   1.955   .     S
O521   C401    1.293   1_655 S
O522   Zn528   1.913   .     S
O523   Zn527   1.983   .     S
O524   Zn528   1.960   .     S
O525   Zn527   1.913   .     S
O526   Zn528   1.955   .     S
Br529  N562    1.878   .     S
C530   C532    1.399   .     S
C530   O564    1.289   .     A
C530   O651    1.280   1_455 S
C531   C543    1.407   .     A
C531   C539    1.403   .     A
C531   C533    1.453   .     S
C532   C754    1.344   1_455 S
C532   F682    1.365   .     S
C533   O566    1.300   .     A
C533   O653    1.293   1_455 S
C534   C535    1.405   .     S
C535   O567    1.295   .     A
C535   O612    1.276   .     S
C536   O569    1.299   .     A
C536   C538    1.445   .     S
C536   O614    1.292   .     S
C537   C549    1.394   .     A
C538   C549    1.400   .     A
C538   C548    1.383   .     A
C539   C144    1.387   1_556 S
C539   H646    1.083   1_455 S
C540   C542    1.391   .     A
C540   H560    1.083   .     S
C541   C543    1.405   .     A
C541   C146    1.420   1_556 S
C541   C148    1.411   1_556 S
C542   H559    1.079   .     S
C543   C547    1.415   .     A
C544   C548    1.387   .     A
C545   C546    1.392   .     A
C545   C141    1.404   1_556 S
C545   C148    1.421   1_556 S
C546   C547    1.387   .     A
C546   H555    1.084   .     S
C547   H552    1.082   .     S
C548   H557    1.080   .     S
C549   H595    1.083   .     S
H551   C637    1.083   1_455 S
H553   C666    1.088   .     S
H554   N561    1.029   .     S
H556   C141    1.084   1_556 S
H558   C583    1.083   .     S
N561   N562    1.289   .     D
N561   Zn572   2.025   .     S
N562   Zn571   2.025   .     S
O563   Zn571   1.960   .     S
O563   C574    1.280   .     S
O564   Zn572   1.983   .     S
O565   Zn571   1.955   .     S
O565   C577    1.293   .     S
O566   Zn572   1.913   .     S
O567   Zn571   1.983   .     S
O568   Zn572   1.960   .     S
O568   C623    1.276   1_455 S
O569   Zn571   1.913   .     S
O570   Zn572   1.955   .     S
O570   C624    1.292   1_455 S
Br573  N606    1.878   .     S
C574   C576    1.399   .     S
C574   O608    1.289   .     A
C575   C587    1.407   .     A
C575   C583    1.403   .     A
C575   C577    1.453   .     S
C576   C666    1.344   .     S
C576   F726    1.365   .     S
C577   O610    1.300   .     A
C578   C579    1.405   .     S
C579   O611    1.295   .     A
C579   O656    1.276   .     S
C580   O613    1.299   .     A
C580   C582    1.445   .     S
C580   O658    1.292   .     S
C581   C593    1.394   .     A
C582   C593    1.400   .     A
C582   C592    1.383   .     A
C583   C188    1.387   1_556 S
C584   C586    1.391   .     A
C584   H604    1.083   .     S
C585   C587    1.405   .     A
C585   C190    1.420   1_556 S
C585   C192    1.411   1_556 S
C586   H603    1.079   .     S
C587   C591    1.415   .     A
C588   C592    1.387   .     A
C589   C590    1.392   .     A
C589   C185    1.404   1_556 S
C589   C192    1.421   1_556 S
C590   C591    1.387   .     A
C590   H599    1.084   .     S
C591   H596    1.082   .     S
C592   H601    1.080   .     S
C593   H639    1.083   .     S
H597   C710    1.088   .     S
H598   N605    1.029   .     S
H600   C185    1.084   1_556 S
H602   C627    1.083   .     S
N605   N606    1.289   .     D
N605   Zn616   2.025   .     S
N606   Zn615   2.025   .     S
O607   Zn615   1.960   .     S
O607   C618    1.280   .     S
O608   Zn616   1.983   .     S
O609   Zn615   1.955   .     S
O609   C621    1.293   .     S
O610   Zn616   1.913   .     S
O611   Zn615   1.983   .     S
O612   Zn616   1.960   .     S
O613   Zn615   1.913   .     S
O614   Zn616   1.955   .     S
Br617  N650    1.878   .     S
C618   C620    1.399   .     S
C618   O652    1.289   .     A
C619   C631    1.407   .     A
C619   C627    1.403   .     A
C619   C621    1.453   .     S
C620   C710    1.344   .     S
C620   F770    1.365   .     S
C621   O654    1.300   .     A
C622   C623    1.405   .     S
C622   C400    1.344   1_655 S
C623   O655    1.295   .     A
C623   O568    1.276   1_655 S
C624   O657    1.299   .     A
C624   C626    1.445   .     S
C624   O570    1.292   1_655 S
C625   C637    1.394   .     A
C626   C637    1.400   .     A
C626   C636    1.383   .     A
C627   C232    1.387   1_556 S
C628   C630    1.391   .     A
C628   H648    1.083   .     S
C629   C631    1.405   .     A
C629   C234    1.420   1_556 S
C629   C236    1.411   1_556 S
C630   H647    1.079   .     S
C631   C635    1.415   .     A
C632   C636    1.387   .     A
C633   C634    1.392   .     A
C633   C229    1.404   1_556 S
C633   C236    1.421   1_556 S
C634   C635    1.387   .     A
C634   H643    1.084   .     S
C635   H640    1.082   .     S
C636   H645    1.080   .     S
C637   H551    1.083   1_655 S
H641   C754    1.088   .     S
H642   N649    1.029   .     S
H644   C229    1.084   1_556 S
H646   C539    1.083   1_655 S
N649   N650    1.289   .     D
N649   Zn660   2.025   .     S
N650   Zn659   2.025   .     S
O651   Zn659   1.960   .     S
O651   C530    1.280   1_655 S
O652   Zn660   1.983   .     S
O653   Zn659   1.955   .     S
O653   C533    1.293   1_655 S
O654   Zn660   1.913   .     S
O655   Zn659   1.983   .     S
O656   Zn660   1.960   .     S
O657   Zn659   1.913   .     S
O658   Zn660   1.955   .     S
Br661  N694    1.878   .     S
C662   C664    1.399   .     S
C662   O696    1.289   .     A
C662   O783    1.280   1_455 S
C663   C675    1.407   .     A
C663   C671    1.403   .     A
C663   C665    1.453   .     S
C664   C490    1.344   1_465 S
C664   F418    1.365   1_565 S
C665   O698    1.300   .     A
C665   O785    1.293   1_455 S
C666   C667    1.405   .     S
C667   O699    1.295   .     A
C667   O744    1.276   .     S
C668   O701    1.299   .     A
C668   C670    1.445   .     S
C668   O746    1.292   .     S
C669   C681    1.394   .     A
C670   C681    1.400   .     A
C670   C680    1.383   .     A
C671   C276    1.387   1_556 S
C671   H778    1.083   1_455 S
C672   C674    1.391   .     A
C672   H692    1.083   .     S
C673   C675    1.405   .     A
C673   C278    1.420   1_556 S
C673   C280    1.411   1_556 S
C674   H691    1.079   .     S
C675   C679    1.415   .     A
C676   C680    1.387   .     A
C677   C678    1.392   .     A
C677   C273    1.404   1_556 S
C677   C280    1.421   1_556 S
C678   C679    1.387   .     A
C678   H687    1.084   .     S
C679   H684    1.082   .     S
C680   H689    1.080   .     S
C681   H727    1.083   .     S
H683   C769    1.083   1_455 S
H685   C402    1.088   1_565 S
H686   N693    1.029   .     S
H688   C273    1.084   1_556 S
H690   C715    1.083   .     S
N693   N694    1.289   .     D
N693   Zn704   2.025   .     S
N694   Zn703   2.025   .     S
O695   Zn703   1.960   .     S
O695   C706    1.280   .     S
O696   Zn704   1.983   .     S
O697   Zn703   1.955   .     S
O697   C709    1.293   .     S
O698   Zn704   1.913   .     S
O699   Zn703   1.983   .     S
O700   Zn704   1.960   .     S
O700   C755    1.276   1_455 S
O701   Zn703   1.913   .     S
O702   Zn704   1.955   .     S
O702   C756    1.292   1_455 S
Br705  N738    1.878   .     S
C706   C708    1.399   .     S
C706   O740    1.289   .     A
C707   C719    1.407   .     A
C707   C715    1.403   .     A
C707   C709    1.453   .     S
C708   C402    1.344   1_565 S
C708   F462    1.365   1_565 S
C709   O742    1.300   .     A
C710   C711    1.405   .     S
C711   O743    1.295   .     A
C711   O788    1.276   .     S
C712   O745    1.299   .     A
C712   C714    1.445   .     S
C712   O790    1.292   .     S
C713   C725    1.394   .     A
C714   C725    1.400   .     A
C714   C724    1.383   .     A
C715   C320    1.387   1_556 S
C716   C718    1.391   .     A
C716   H736    1.083   .     S
C717   C719    1.405   .     A
C717   C322    1.420   1_556 S
C717   C324    1.411   1_556 S
C718   H735    1.079   .     S
C719   C723    1.415   .     A
C720   C724    1.387   .     A
C721   C722    1.392   .     A
C721   C317    1.404   1_556 S
C721   C324    1.421   1_556 S
C722   C723    1.387   .     A
C722   H731    1.084   .     S
C723   H728    1.082   .     S
C724   H733    1.080   .     S
C725   H771    1.083   .     S
H729   C446    1.088   1_565 S
H730   N737    1.029   .     S
H732   C317    1.084   1_556 S
H734   C759    1.083   .     S
N737   N738    1.289   .     D
N737   Zn748   2.025   .     S
N738   Zn747   2.025   .     S
O739   Zn747   1.960   .     S
O739   C750    1.280   .     S
O740   Zn748   1.983   .     S
O741   Zn747   1.955   .     S
O741   C753    1.293   .     S
O742   Zn748   1.913   .     S
O743   Zn747   1.983   .     S
O744   Zn748   1.960   .     S
O745   Zn747   1.913   .     S
O746   Zn748   1.955   .     S
Br749  N782    1.878   .     S
C750   C752    1.399   .     S
C750   O784    1.289   .     A
C751   C763    1.407   .     A
C751   C759    1.403   .     A
C751   C753    1.453   .     S
C752   C446    1.344   1_565 S
C752   F506    1.365   1_565 S
C753   O786    1.300   .     A
C754   C755    1.405   .     S
C754   C532    1.344   1_655 S
C755   O787    1.295   .     A
C755   O700    1.276   1_655 S
C756   O789    1.299   .     A
C756   C758    1.445   .     S
C756   O702    1.292   1_655 S
C757   C769    1.394   .     A
C758   C769    1.400   .     A
C758   C768    1.383   .     A
C759   C364    1.387   1_556 S
C760   C762    1.391   .     A
C760   H780    1.083   .     S
C761   C763    1.405   .     A
C761   C366    1.420   1_556 S
C761   C368    1.411   1_556 S
C762   H779    1.079   .     S
C763   C767    1.415   .     A
C764   C768    1.387   .     A
C765   C766    1.392   .     A
C765   C361    1.404   1_556 S
C765   C368    1.421   1_556 S
C766   C767    1.387   .     A
C766   H775    1.084   .     S
C767   H772    1.082   .     S
C768   H777    1.080   .     S
C769   H683    1.083   1_655 S
H773   C490    1.088   1_565 S
H774   N781    1.029   .     S
H776   C361    1.084   1_556 S
H778   C671    1.083   1_655 S
N781   N782    1.289   .     D
N781   Zn792   2.025   .     S
N782   Zn791   2.025   .     S
O783   Zn791   1.960   .     S
O783   C662    1.280   1_655 S
O784   Zn792   1.983   .     S
O785   Zn791   1.955   .     S
O785   C665    1.293   1_655 S
O786   Zn792   1.913   .     S
O787   Zn791   1.983   .     S
O788   Zn792   1.960   .     S
O789   Zn791   1.913   .     S
O790   Zn792   1.955   .     S
