data_str_m3_o2_o5_pcu_sym.131
_audit_creation_date              2020-01-03
_audit_creation_method            'Materials Studio'
_symmetry_space_group_name_H-M    'P1'
_symmetry_Int_Tables_number       1
_symmetry_cell_setting            triclinic
loop_
_symmetry_equiv_pos_as_xyz
  x,y,z
_cell_length_a                    29.9180
_cell_length_b                    28.6649
_cell_length_c                    26.6793
_cell_angle_alpha                 89.9997
_cell_angle_beta                  92.1123
_cell_angle_gamma                 89.9980
loop_
_atom_site_label
_atom_site_type_symbol
_atom_site_fract_x
_atom_site_fract_y
_atom_site_fract_z
_atom_site_U_iso_or_equiv
_atom_site_adp_type
_atom_site_occupancy
C1     C     0.16421   0.25007   0.16628   0.00000  Uiso   1.00
C2     C     0.33579   0.25006   0.16705   0.00000  Uiso   1.00
C3     C     0.22794   0.10160   0.12882   0.00000  Uiso   1.00
C4     C     0.28322   0.39829   0.19243   0.00000  Uiso   1.00
C5     C     0.27205   0.10160   0.20451   0.00000  Uiso   1.00
C6     C     0.21678   0.39829   0.14090   0.00000  Uiso   1.00
C7     C     0.22899   0.05224   0.12779   0.00000  Uiso   1.00
C8     C     0.28410   0.44766   0.19133   0.00000  Uiso   1.00
C9     C     0.27101   0.05224   0.20553   0.00000  Uiso   1.00
C10    C     0.21590   0.44766   0.14199   0.00000  Uiso   1.00
C11    C     0.24983   0.25000   0.07297   0.00000  Uiso   1.00
C12    C     0.25017   0.25000   0.26036   0.00000  Uiso   1.00
C13    C     0.25000   0.02648   0.16666   0.00000  Uiso   1.00
C14    C     0.25000   0.47340   0.16666   0.00000  Uiso   1.00
C15    C     0.24993   0.24999   0.02182   0.00000  Uiso   1.00
C16    C     0.25007   0.24999   0.31151   0.00000  Uiso   1.00
C17    C     0.04906   0.26768   0.20884   0.00000  Uiso   1.00
C18    C     0.45438   0.23677   0.20944   0.00000  Uiso   1.00
C19    C     0.45094   0.26776   0.12450   0.00000  Uiso   1.00
C20    C     0.04563   0.23686   0.12384   0.00000  Uiso   1.00
C21    C     0.09527   0.26648   0.20914   0.00000  Uiso   1.00
C22    C     0.40821   0.23637   0.20996   0.00000  Uiso   1.00
C23    C     0.40473   0.26655   0.12421   0.00000  Uiso   1.00
C24    C     0.09180   0.23645   0.12334   0.00000  Uiso   1.00
C25    C     0.11650   0.25053   0.16639   0.00000  Uiso   1.00
C26    C     0.38351   0.25052   0.16693   0.00000  Uiso   1.00
C27    C     0.02421   0.25246   0.16647   0.00000  Uiso   1.00
C28    C     0.47579   0.25245   0.16684   0.00000  Uiso   1.00
H29    H     0.03259   0.28058   0.24158   0.00000  Uiso   1.00
H30    H     0.47350   0.22478   0.24224   0.00000  Uiso   1.00
H31    H     0.46740   0.28072   0.09179   0.00000  Uiso   1.00
H32    H     0.02651   0.22492   0.09102   0.00000  Uiso   1.00
H33    H     0.21280   0.03414   0.09654   0.00000  Uiso   1.00
H34    H     0.31153   0.46579   0.21031   0.00000  Uiso   1.00
H35    H     0.28720   0.03413   0.23679   0.00000  Uiso   1.00
H36    H     0.18847   0.46579   0.12301   0.00000  Uiso   1.00
N37    N     0.25000   0.12624   0.16667   0.00000  Uiso   1.00
N38    N     0.25000   0.37377   0.16667   0.00000  Uiso   1.00
O39    O     0.18453   0.28974   0.16667   0.00000  Uiso   1.00
O40    O     0.31547   0.21026   0.16666   0.00000  Uiso   1.00
O41    O     0.31547   0.28974   0.16666   0.00000  Uiso   1.00
O42    O     0.18453   0.21026   0.16667   0.00000  Uiso   1.00
O43    O     0.25000   0.28973   0.09511   0.00000  Uiso   1.00
O44    O     0.25000   0.21027   0.23822   0.00000  Uiso   1.00
O45    O     0.25000   0.28973   0.23822   0.00000  Uiso   1.00
O46    O     0.25000   0.21027   0.09511   0.00000  Uiso   1.00
Zn47   Zn    0.25000   0.30307   0.16667   0.00000  Uiso   1.00
Zn48   Zn    0.25000   0.19693   0.16667   0.00000  Uiso   1.00
C49    C     0.20136   0.12569   0.08898   0.00000  Uiso   1.00
H50    H     0.18720   0.15946   0.09558   0.00000  Uiso   1.00
O51    O     0.19399   0.10738   0.04817   0.00000  Uiso   1.00
C52    C     0.31836   0.37412   0.22301   0.00000  Uiso   1.00
H53    H     0.31280   0.33995   0.23824   0.00000  Uiso   1.00
O54    O     0.35432   0.39286   0.23267   0.00000  Uiso   1.00
C55    C     0.29864   0.12568   0.24435   0.00000  Uiso   1.00
H56    H     0.31278   0.15945   0.23776   0.00000  Uiso   1.00
O57    O     0.30602   0.10736   0.28516   0.00000  Uiso   1.00
C58    C     0.18164   0.37412   0.11032   0.00000  Uiso   1.00
H59    H     0.18719   0.33995   0.09509   0.00000  Uiso   1.00
O60    O     0.14568   0.39287   0.10065   0.00000  Uiso   1.00
Cl61   Cl    0.12553   0.28452   0.26373   0.00000  Uiso   1.00
Cl62   Cl    0.38261   0.22026   0.26581   0.00000  Uiso   1.00
Cl63   Cl    0.37446   0.28470   0.06966   0.00000  Uiso   1.00
Cl64   Cl    0.11741   0.22040   0.06748   0.00000  Uiso   1.00
C65    C     0.66421   0.25007   0.16628   0.00000  Uiso   1.00
C66    C     0.83579   0.25006   0.16705   0.00000  Uiso   1.00
C67    C     0.72794   0.10160   0.12882   0.00000  Uiso   1.00
C68    C     0.78322   0.39829   0.19243   0.00000  Uiso   1.00
C69    C     0.77205   0.10160   0.20451   0.00000  Uiso   1.00
C70    C     0.71678   0.39829   0.14090   0.00000  Uiso   1.00
C71    C     0.72899   0.05224   0.12779   0.00000  Uiso   1.00
C72    C     0.78410   0.44766   0.19133   0.00000  Uiso   1.00
C73    C     0.77101   0.05224   0.20553   0.00000  Uiso   1.00
C74    C     0.71590   0.44766   0.14199   0.00000  Uiso   1.00
C75    C     0.74983   0.25000   0.07297   0.00000  Uiso   1.00
C76    C     0.75017   0.25000   0.26036   0.00000  Uiso   1.00
C77    C     0.75000   0.02648   0.16666   0.00000  Uiso   1.00
C78    C     0.75000   0.47340   0.16666   0.00000  Uiso   1.00
C79    C     0.74993   0.24999   0.02182   0.00000  Uiso   1.00
C80    C     0.75007   0.24999   0.31151   0.00000  Uiso   1.00
C81    C     0.54906   0.26768   0.20884   0.00000  Uiso   1.00
C82    C     0.95438   0.23677   0.20944   0.00000  Uiso   1.00
C83    C     0.95094   0.26776   0.12450   0.00000  Uiso   1.00
C84    C     0.54563   0.23686   0.12384   0.00000  Uiso   1.00
C85    C     0.59527   0.26648   0.20914   0.00000  Uiso   1.00
C86    C     0.90821   0.23637   0.20996   0.00000  Uiso   1.00
C87    C     0.90473   0.26655   0.12421   0.00000  Uiso   1.00
C88    C     0.59180   0.23645   0.12334   0.00000  Uiso   1.00
C89    C     0.61650   0.25053   0.16639   0.00000  Uiso   1.00
C90    C     0.88351   0.25052   0.16693   0.00000  Uiso   1.00
C91    C     0.52421   0.25246   0.16647   0.00000  Uiso   1.00
C92    C     0.97579   0.25245   0.16684   0.00000  Uiso   1.00
H93    H     0.53259   0.28058   0.24158   0.00000  Uiso   1.00
H94    H     0.97350   0.22478   0.24224   0.00000  Uiso   1.00
H95    H     0.96740   0.28072   0.09179   0.00000  Uiso   1.00
H96    H     0.52651   0.22492   0.09102   0.00000  Uiso   1.00
H97    H     0.71280   0.03414   0.09654   0.00000  Uiso   1.00
H98    H     0.81153   0.46579   0.21031   0.00000  Uiso   1.00
H99    H     0.78720   0.03413   0.23679   0.00000  Uiso   1.00
H100   H     0.68847   0.46579   0.12301   0.00000  Uiso   1.00
N101   N     0.75000   0.12624   0.16667   0.00000  Uiso   1.00
N102   N     0.75000   0.37377   0.16667   0.00000  Uiso   1.00
O103   O     0.68453   0.28974   0.16667   0.00000  Uiso   1.00
O104   O     0.81547   0.21026   0.16666   0.00000  Uiso   1.00
O105   O     0.81547   0.28974   0.16666   0.00000  Uiso   1.00
O106   O     0.68453   0.21026   0.16667   0.00000  Uiso   1.00
O107   O     0.75000   0.28973   0.09511   0.00000  Uiso   1.00
O108   O     0.75000   0.21027   0.23822   0.00000  Uiso   1.00
O109   O     0.75000   0.28973   0.23822   0.00000  Uiso   1.00
O110   O     0.75000   0.21027   0.09511   0.00000  Uiso   1.00
Zn111  Zn    0.75000   0.30307   0.16667   0.00000  Uiso   1.00
Zn112  Zn    0.75000   0.19693   0.16667   0.00000  Uiso   1.00
C113   C     0.70136   0.12569   0.08898   0.00000  Uiso   1.00
H114   H     0.68720   0.15946   0.09558   0.00000  Uiso   1.00
O115   O     0.69399   0.10738   0.04817   0.00000  Uiso   1.00
C116   C     0.81836   0.37412   0.22301   0.00000  Uiso   1.00
H117   H     0.81280   0.33995   0.23824   0.00000  Uiso   1.00
O118   O     0.85432   0.39286   0.23267   0.00000  Uiso   1.00
C119   C     0.79864   0.12568   0.24435   0.00000  Uiso   1.00
H120   H     0.81278   0.15945   0.23776   0.00000  Uiso   1.00
O121   O     0.80602   0.10736   0.28516   0.00000  Uiso   1.00
C122   C     0.68164   0.37412   0.11032   0.00000  Uiso   1.00
H123   H     0.68719   0.33995   0.09509   0.00000  Uiso   1.00
O124   O     0.64568   0.39287   0.10065   0.00000  Uiso   1.00
Cl125  Cl    0.62553   0.28452   0.26373   0.00000  Uiso   1.00
Cl126  Cl    0.88261   0.22026   0.26581   0.00000  Uiso   1.00
Cl127  Cl    0.87446   0.28470   0.06966   0.00000  Uiso   1.00
Cl128  Cl    0.61741   0.22040   0.06748   0.00000  Uiso   1.00
C129   C     0.16421   0.75007   0.16628   0.00000  Uiso   1.00
C130   C     0.33579   0.75006   0.16705   0.00000  Uiso   1.00
C131   C     0.22794   0.60160   0.12882   0.00000  Uiso   1.00
C132   C     0.28322   0.89829   0.19243   0.00000  Uiso   1.00
C133   C     0.27205   0.60160   0.20451   0.00000  Uiso   1.00
C134   C     0.21678   0.89829   0.14090   0.00000  Uiso   1.00
C135   C     0.22899   0.55224   0.12779   0.00000  Uiso   1.00
C136   C     0.28410   0.94766   0.19133   0.00000  Uiso   1.00
C137   C     0.27101   0.55224   0.20553   0.00000  Uiso   1.00
C138   C     0.21590   0.94766   0.14199   0.00000  Uiso   1.00
C139   C     0.24983   0.75000   0.07297   0.00000  Uiso   1.00
C140   C     0.25017   0.75000   0.26036   0.00000  Uiso   1.00
C141   C     0.25000   0.52648   0.16666   0.00000  Uiso   1.00
C142   C     0.25000   0.97340   0.16666   0.00000  Uiso   1.00
C143   C     0.24993   0.74999   0.02182   0.00000  Uiso   1.00
C144   C     0.25007   0.74999   0.31151   0.00000  Uiso   1.00
C145   C     0.04906   0.76768   0.20884   0.00000  Uiso   1.00
C146   C     0.45438   0.73677   0.20944   0.00000  Uiso   1.00
C147   C     0.45094   0.76776   0.12450   0.00000  Uiso   1.00
C148   C     0.04563   0.73686   0.12384   0.00000  Uiso   1.00
C149   C     0.09527   0.76648   0.20914   0.00000  Uiso   1.00
C150   C     0.40821   0.73637   0.20996   0.00000  Uiso   1.00
C151   C     0.40473   0.76655   0.12421   0.00000  Uiso   1.00
C152   C     0.09180   0.73645   0.12334   0.00000  Uiso   1.00
C153   C     0.11650   0.75053   0.16639   0.00000  Uiso   1.00
C154   C     0.38351   0.75052   0.16693   0.00000  Uiso   1.00
C155   C     0.02421   0.75246   0.16647   0.00000  Uiso   1.00
C156   C     0.47579   0.75245   0.16684   0.00000  Uiso   1.00
H157   H     0.03259   0.78058   0.24158   0.00000  Uiso   1.00
H158   H     0.47350   0.72478   0.24224   0.00000  Uiso   1.00
H159   H     0.46740   0.78072   0.09179   0.00000  Uiso   1.00
H160   H     0.02651   0.72492   0.09102   0.00000  Uiso   1.00
H161   H     0.21280   0.53414   0.09654   0.00000  Uiso   1.00
H162   H     0.31153   0.96579   0.21031   0.00000  Uiso   1.00
H163   H     0.28720   0.53413   0.23679   0.00000  Uiso   1.00
H164   H     0.18847   0.96579   0.12301   0.00000  Uiso   1.00
N165   N     0.25000   0.62624   0.16667   0.00000  Uiso   1.00
N166   N     0.25000   0.87377   0.16667   0.00000  Uiso   1.00
O167   O     0.18453   0.78974   0.16667   0.00000  Uiso   1.00
O168   O     0.31547   0.71026   0.16666   0.00000  Uiso   1.00
O169   O     0.31547   0.78974   0.16666   0.00000  Uiso   1.00
O170   O     0.18453   0.71026   0.16667   0.00000  Uiso   1.00
O171   O     0.25000   0.78973   0.09511   0.00000  Uiso   1.00
O172   O     0.25000   0.71027   0.23822   0.00000  Uiso   1.00
O173   O     0.25000   0.78973   0.23822   0.00000  Uiso   1.00
O174   O     0.25000   0.71027   0.09511   0.00000  Uiso   1.00
Zn175  Zn    0.25000   0.80307   0.16667   0.00000  Uiso   1.00
Zn176  Zn    0.25000   0.69693   0.16667   0.00000  Uiso   1.00
C177   C     0.20136   0.62569   0.08898   0.00000  Uiso   1.00
H178   H     0.18720   0.65946   0.09558   0.00000  Uiso   1.00
O179   O     0.19399   0.60738   0.04817   0.00000  Uiso   1.00
C180   C     0.31836   0.87412   0.22301   0.00000  Uiso   1.00
H181   H     0.31280   0.83995   0.23824   0.00000  Uiso   1.00
O182   O     0.35432   0.89286   0.23267   0.00000  Uiso   1.00
C183   C     0.29864   0.62568   0.24435   0.00000  Uiso   1.00
H184   H     0.31278   0.65945   0.23776   0.00000  Uiso   1.00
O185   O     0.30602   0.60736   0.28516   0.00000  Uiso   1.00
C186   C     0.18164   0.87412   0.11032   0.00000  Uiso   1.00
H187   H     0.18719   0.83995   0.09509   0.00000  Uiso   1.00
O188   O     0.14568   0.89287   0.10065   0.00000  Uiso   1.00
Cl189  Cl    0.12553   0.78452   0.26373   0.00000  Uiso   1.00
Cl190  Cl    0.38261   0.72026   0.26581   0.00000  Uiso   1.00
Cl191  Cl    0.37446   0.78470   0.06966   0.00000  Uiso   1.00
Cl192  Cl    0.11741   0.72040   0.06748   0.00000  Uiso   1.00
C193   C     0.66421   0.75007   0.16628   0.00000  Uiso   1.00
C194   C     0.83579   0.75006   0.16705   0.00000  Uiso   1.00
C195   C     0.72794   0.60160   0.12882   0.00000  Uiso   1.00
C196   C     0.78322   0.89829   0.19243   0.00000  Uiso   1.00
C197   C     0.77205   0.60160   0.20451   0.00000  Uiso   1.00
C198   C     0.71678   0.89829   0.14090   0.00000  Uiso   1.00
C199   C     0.72899   0.55224   0.12779   0.00000  Uiso   1.00
C200   C     0.78410   0.94766   0.19133   0.00000  Uiso   1.00
C201   C     0.77101   0.55224   0.20553   0.00000  Uiso   1.00
C202   C     0.71590   0.94766   0.14199   0.00000  Uiso   1.00
C203   C     0.74983   0.75000   0.07297   0.00000  Uiso   1.00
C204   C     0.75017   0.75000   0.26036   0.00000  Uiso   1.00
C205   C     0.75000   0.52648   0.16666   0.00000  Uiso   1.00
C206   C     0.75000   0.97340   0.16666   0.00000  Uiso   1.00
C207   C     0.74993   0.74999   0.02182   0.00000  Uiso   1.00
C208   C     0.75007   0.74999   0.31151   0.00000  Uiso   1.00
C209   C     0.54906   0.76768   0.20884   0.00000  Uiso   1.00
C210   C     0.95438   0.73677   0.20944   0.00000  Uiso   1.00
C211   C     0.95094   0.76776   0.12450   0.00000  Uiso   1.00
C212   C     0.54563   0.73686   0.12384   0.00000  Uiso   1.00
C213   C     0.59527   0.76648   0.20914   0.00000  Uiso   1.00
C214   C     0.90821   0.73637   0.20996   0.00000  Uiso   1.00
C215   C     0.90473   0.76655   0.12421   0.00000  Uiso   1.00
C216   C     0.59180   0.73645   0.12334   0.00000  Uiso   1.00
C217   C     0.61650   0.75053   0.16639   0.00000  Uiso   1.00
C218   C     0.88351   0.75052   0.16693   0.00000  Uiso   1.00
C219   C     0.52421   0.75246   0.16647   0.00000  Uiso   1.00
C220   C     0.97579   0.75245   0.16684   0.00000  Uiso   1.00
H221   H     0.53259   0.78058   0.24158   0.00000  Uiso   1.00
H222   H     0.97350   0.72478   0.24224   0.00000  Uiso   1.00
H223   H     0.96740   0.78072   0.09179   0.00000  Uiso   1.00
H224   H     0.52651   0.72492   0.09102   0.00000  Uiso   1.00
H225   H     0.71280   0.53414   0.09654   0.00000  Uiso   1.00
H226   H     0.81153   0.96579   0.21031   0.00000  Uiso   1.00
H227   H     0.78720   0.53413   0.23679   0.00000  Uiso   1.00
H228   H     0.68847   0.96579   0.12301   0.00000  Uiso   1.00
N229   N     0.75000   0.62624   0.16667   0.00000  Uiso   1.00
N230   N     0.75000   0.87377   0.16667   0.00000  Uiso   1.00
O231   O     0.68453   0.78974   0.16667   0.00000  Uiso   1.00
O232   O     0.81547   0.71026   0.16666   0.00000  Uiso   1.00
O233   O     0.81547   0.78974   0.16666   0.00000  Uiso   1.00
O234   O     0.68453   0.71026   0.16667   0.00000  Uiso   1.00
O235   O     0.75000   0.78973   0.09511   0.00000  Uiso   1.00
O236   O     0.75000   0.71027   0.23822   0.00000  Uiso   1.00
O237   O     0.75000   0.78973   0.23822   0.00000  Uiso   1.00
O238   O     0.75000   0.71027   0.09511   0.00000  Uiso   1.00
Zn239  Zn    0.75000   0.80307   0.16667   0.00000  Uiso   1.00
Zn240  Zn    0.75000   0.69693   0.16667   0.00000  Uiso   1.00
C241   C     0.70136   0.62569   0.08898   0.00000  Uiso   1.00
H242   H     0.68720   0.65946   0.09558   0.00000  Uiso   1.00
O243   O     0.69399   0.60738   0.04817   0.00000  Uiso   1.00
C244   C     0.81836   0.87412   0.22301   0.00000  Uiso   1.00
H245   H     0.81280   0.83995   0.23824   0.00000  Uiso   1.00
O246   O     0.85432   0.89286   0.23267   0.00000  Uiso   1.00
C247   C     0.79864   0.62568   0.24435   0.00000  Uiso   1.00
H248   H     0.81278   0.65945   0.23776   0.00000  Uiso   1.00
O249   O     0.80602   0.60736   0.28516   0.00000  Uiso   1.00
C250   C     0.68164   0.87412   0.11032   0.00000  Uiso   1.00
H251   H     0.68719   0.83995   0.09509   0.00000  Uiso   1.00
O252   O     0.64568   0.89287   0.10065   0.00000  Uiso   1.00
Cl253  Cl    0.62553   0.78452   0.26373   0.00000  Uiso   1.00
Cl254  Cl    0.88261   0.72026   0.26581   0.00000  Uiso   1.00
Cl255  Cl    0.87446   0.78470   0.06966   0.00000  Uiso   1.00
Cl256  Cl    0.61741   0.72040   0.06748   0.00000  Uiso   1.00
C257   C     0.16421   0.25007   0.49962   0.00000  Uiso   1.00
C258   C     0.33579   0.25006   0.50038   0.00000  Uiso   1.00
C259   C     0.22794   0.10160   0.46215   0.00000  Uiso   1.00
C260   C     0.28322   0.39829   0.52576   0.00000  Uiso   1.00
C261   C     0.27205   0.10160   0.53785   0.00000  Uiso   1.00
C262   C     0.21678   0.39829   0.47423   0.00000  Uiso   1.00
C263   C     0.22899   0.05224   0.46113   0.00000  Uiso   1.00
C264   C     0.28410   0.44766   0.52467   0.00000  Uiso   1.00
C265   C     0.27101   0.05224   0.53887   0.00000  Uiso   1.00
C266   C     0.21590   0.44766   0.47533   0.00000  Uiso   1.00
C267   C     0.24983   0.25000   0.40631   0.00000  Uiso   1.00
C268   C     0.25017   0.25000   0.59369   0.00000  Uiso   1.00
C269   C     0.25000   0.02648   0.50000   0.00000  Uiso   1.00
C270   C     0.25000   0.47340   0.50000   0.00000  Uiso   1.00
C271   C     0.24993   0.24999   0.35516   0.00000  Uiso   1.00
C272   C     0.25007   0.24999   0.64484   0.00000  Uiso   1.00
C273   C     0.04906   0.26768   0.54218   0.00000  Uiso   1.00
C274   C     0.45438   0.23677   0.54278   0.00000  Uiso   1.00
C275   C     0.45094   0.26776   0.45783   0.00000  Uiso   1.00
C276   C     0.04563   0.23686   0.45717   0.00000  Uiso   1.00
C277   C     0.09527   0.26648   0.54247   0.00000  Uiso   1.00
C278   C     0.40821   0.23637   0.54329   0.00000  Uiso   1.00
C279   C     0.40473   0.26655   0.45755   0.00000  Uiso   1.00
C280   C     0.09180   0.23645   0.45667   0.00000  Uiso   1.00
C281   C     0.11650   0.25053   0.49972   0.00000  Uiso   1.00
C282   C     0.38351   0.25052   0.50027   0.00000  Uiso   1.00
C283   C     0.02421   0.25246   0.49981   0.00000  Uiso   1.00
C284   C     0.47579   0.25245   0.50017   0.00000  Uiso   1.00
H285   H     0.03259   0.28058   0.57491   0.00000  Uiso   1.00
H286   H     0.47350   0.22478   0.57557   0.00000  Uiso   1.00
H287   H     0.46740   0.28072   0.42512   0.00000  Uiso   1.00
H288   H     0.02651   0.22492   0.42435   0.00000  Uiso   1.00
H289   H     0.21280   0.03414   0.42987   0.00000  Uiso   1.00
H290   H     0.31153   0.46579   0.54365   0.00000  Uiso   1.00
H291   H     0.28720   0.03413   0.57012   0.00000  Uiso   1.00
H292   H     0.18847   0.46579   0.45635   0.00000  Uiso   1.00
N293   N     0.25000   0.12624   0.50000   0.00000  Uiso   1.00
N294   N     0.25000   0.37377   0.50000   0.00000  Uiso   1.00
O295   O     0.18453   0.28974   0.50000   0.00000  Uiso   1.00
O296   O     0.31547   0.21026   0.50000   0.00000  Uiso   1.00
O297   O     0.31547   0.28974   0.50000   0.00000  Uiso   1.00
O298   O     0.18453   0.21026   0.50000   0.00000  Uiso   1.00
O299   O     0.25000   0.28973   0.42845   0.00000  Uiso   1.00
O300   O     0.25000   0.21027   0.57155   0.00000  Uiso   1.00
O301   O     0.25000   0.28973   0.57155   0.00000  Uiso   1.00
O302   O     0.25000   0.21027   0.42845   0.00000  Uiso   1.00
Zn303  Zn    0.25000   0.30307   0.50000   0.00000  Uiso   1.00
Zn304  Zn    0.25000   0.19693   0.50000   0.00000  Uiso   1.00
C305   C     0.20136   0.12569   0.42231   0.00000  Uiso   1.00
H306   H     0.18720   0.15946   0.42891   0.00000  Uiso   1.00
O307   O     0.19399   0.10738   0.38150   0.00000  Uiso   1.00
C308   C     0.31836   0.37412   0.55634   0.00000  Uiso   1.00
H309   H     0.31280   0.33995   0.57158   0.00000  Uiso   1.00
O310   O     0.35432   0.39286   0.56601   0.00000  Uiso   1.00
C311   C     0.29864   0.12568   0.57769   0.00000  Uiso   1.00
H312   H     0.31278   0.15945   0.57109   0.00000  Uiso   1.00
O313   O     0.30602   0.10736   0.61849   0.00000  Uiso   1.00
C314   C     0.18164   0.37412   0.44366   0.00000  Uiso   1.00
H315   H     0.18719   0.33995   0.42843   0.00000  Uiso   1.00
O316   O     0.14568   0.39287   0.43398   0.00000  Uiso   1.00
Cl317  Cl    0.12553   0.28452   0.59706   0.00000  Uiso   1.00
Cl318  Cl    0.38261   0.22026   0.59914   0.00000  Uiso   1.00
Cl319  Cl    0.37446   0.28470   0.40299   0.00000  Uiso   1.00
Cl320  Cl    0.11741   0.22040   0.40081   0.00000  Uiso   1.00
C321   C     0.66421   0.25007   0.49962   0.00000  Uiso   1.00
C322   C     0.83579   0.25006   0.50038   0.00000  Uiso   1.00
C323   C     0.72794   0.10160   0.46215   0.00000  Uiso   1.00
C324   C     0.78322   0.39829   0.52576   0.00000  Uiso   1.00
C325   C     0.77205   0.10160   0.53785   0.00000  Uiso   1.00
C326   C     0.71678   0.39829   0.47423   0.00000  Uiso   1.00
C327   C     0.72899   0.05224   0.46113   0.00000  Uiso   1.00
C328   C     0.78410   0.44766   0.52467   0.00000  Uiso   1.00
C329   C     0.77101   0.05224   0.53887   0.00000  Uiso   1.00
C330   C     0.71590   0.44766   0.47533   0.00000  Uiso   1.00
C331   C     0.74983   0.25000   0.40631   0.00000  Uiso   1.00
C332   C     0.75017   0.25000   0.59369   0.00000  Uiso   1.00
C333   C     0.75000   0.02648   0.50000   0.00000  Uiso   1.00
C334   C     0.75000   0.47340   0.50000   0.00000  Uiso   1.00
C335   C     0.74993   0.24999   0.35516   0.00000  Uiso   1.00
C336   C     0.75007   0.24999   0.64484   0.00000  Uiso   1.00
C337   C     0.54906   0.26768   0.54218   0.00000  Uiso   1.00
C338   C     0.95438   0.23677   0.54278   0.00000  Uiso   1.00
C339   C     0.95094   0.26776   0.45783   0.00000  Uiso   1.00
C340   C     0.54563   0.23686   0.45717   0.00000  Uiso   1.00
C341   C     0.59527   0.26648   0.54247   0.00000  Uiso   1.00
C342   C     0.90821   0.23637   0.54329   0.00000  Uiso   1.00
C343   C     0.90473   0.26655   0.45755   0.00000  Uiso   1.00
C344   C     0.59180   0.23645   0.45667   0.00000  Uiso   1.00
C345   C     0.61650   0.25053   0.49972   0.00000  Uiso   1.00
C346   C     0.88351   0.25052   0.50027   0.00000  Uiso   1.00
C347   C     0.52421   0.25246   0.49981   0.00000  Uiso   1.00
C348   C     0.97579   0.25245   0.50017   0.00000  Uiso   1.00
H349   H     0.53259   0.28058   0.57491   0.00000  Uiso   1.00
H350   H     0.97350   0.22478   0.57557   0.00000  Uiso   1.00
H351   H     0.96740   0.28072   0.42512   0.00000  Uiso   1.00
H352   H     0.52651   0.22492   0.42435   0.00000  Uiso   1.00
H353   H     0.71280   0.03414   0.42987   0.00000  Uiso   1.00
H354   H     0.81153   0.46579   0.54365   0.00000  Uiso   1.00
H355   H     0.78720   0.03413   0.57012   0.00000  Uiso   1.00
H356   H     0.68847   0.46579   0.45635   0.00000  Uiso   1.00
N357   N     0.75000   0.12624   0.50000   0.00000  Uiso   1.00
N358   N     0.75000   0.37377   0.50000   0.00000  Uiso   1.00
O359   O     0.68453   0.28974   0.50000   0.00000  Uiso   1.00
O360   O     0.81547   0.21026   0.50000   0.00000  Uiso   1.00
O361   O     0.81547   0.28974   0.50000   0.00000  Uiso   1.00
O362   O     0.68453   0.21026   0.50000   0.00000  Uiso   1.00
O363   O     0.75000   0.28973   0.42845   0.00000  Uiso   1.00
O364   O     0.75000   0.21027   0.57155   0.00000  Uiso   1.00
O365   O     0.75000   0.28973   0.57155   0.00000  Uiso   1.00
O366   O     0.75000   0.21027   0.42845   0.00000  Uiso   1.00
Zn367  Zn    0.75000   0.30307   0.50000   0.00000  Uiso   1.00
Zn368  Zn    0.75000   0.19693   0.50000   0.00000  Uiso   1.00
C369   C     0.70136   0.12569   0.42231   0.00000  Uiso   1.00
H370   H     0.68720   0.15946   0.42891   0.00000  Uiso   1.00
O371   O     0.69399   0.10738   0.38150   0.00000  Uiso   1.00
C372   C     0.81836   0.37412   0.55634   0.00000  Uiso   1.00
H373   H     0.81280   0.33995   0.57158   0.00000  Uiso   1.00
O374   O     0.85432   0.39286   0.56601   0.00000  Uiso   1.00
C375   C     0.79864   0.12568   0.57769   0.00000  Uiso   1.00
H376   H     0.81278   0.15945   0.57109   0.00000  Uiso   1.00
O377   O     0.80602   0.10736   0.61849   0.00000  Uiso   1.00
C378   C     0.68164   0.37412   0.44366   0.00000  Uiso   1.00
H379   H     0.68719   0.33995   0.42843   0.00000  Uiso   1.00
O380   O     0.64568   0.39287   0.43398   0.00000  Uiso   1.00
Cl381  Cl    0.62553   0.28452   0.59706   0.00000  Uiso   1.00
Cl382  Cl    0.88261   0.22026   0.59914   0.00000  Uiso   1.00
Cl383  Cl    0.87446   0.28470   0.40299   0.00000  Uiso   1.00
Cl384  Cl    0.61741   0.22040   0.40081   0.00000  Uiso   1.00
C385   C     0.16421   0.75007   0.49962   0.00000  Uiso   1.00
C386   C     0.33579   0.75006   0.50038   0.00000  Uiso   1.00
C387   C     0.22794   0.60160   0.46215   0.00000  Uiso   1.00
C388   C     0.28322   0.89829   0.52576   0.00000  Uiso   1.00
C389   C     0.27205   0.60160   0.53785   0.00000  Uiso   1.00
C390   C     0.21678   0.89829   0.47423   0.00000  Uiso   1.00
C391   C     0.22899   0.55224   0.46113   0.00000  Uiso   1.00
C392   C     0.28410   0.94766   0.52467   0.00000  Uiso   1.00
C393   C     0.27101   0.55224   0.53887   0.00000  Uiso   1.00
C394   C     0.21590   0.94766   0.47533   0.00000  Uiso   1.00
C395   C     0.24983   0.75000   0.40631   0.00000  Uiso   1.00
C396   C     0.25017   0.75000   0.59369   0.00000  Uiso   1.00
C397   C     0.25000   0.52648   0.50000   0.00000  Uiso   1.00
C398   C     0.25000   0.97340   0.50000   0.00000  Uiso   1.00
C399   C     0.24993   0.74999   0.35516   0.00000  Uiso   1.00
C400   C     0.25007   0.74999   0.64484   0.00000  Uiso   1.00
C401   C     0.04906   0.76768   0.54218   0.00000  Uiso   1.00
C402   C     0.45438   0.73677   0.54278   0.00000  Uiso   1.00
C403   C     0.45094   0.76776   0.45783   0.00000  Uiso   1.00
C404   C     0.04563   0.73686   0.45717   0.00000  Uiso   1.00
C405   C     0.09527   0.76648   0.54247   0.00000  Uiso   1.00
C406   C     0.40821   0.73637   0.54329   0.00000  Uiso   1.00
C407   C     0.40473   0.76655   0.45755   0.00000  Uiso   1.00
C408   C     0.09180   0.73645   0.45667   0.00000  Uiso   1.00
C409   C     0.11650   0.75053   0.49972   0.00000  Uiso   1.00
C410   C     0.38351   0.75052   0.50027   0.00000  Uiso   1.00
C411   C     0.02421   0.75246   0.49981   0.00000  Uiso   1.00
C412   C     0.47579   0.75245   0.50017   0.00000  Uiso   1.00
H413   H     0.03259   0.78058   0.57491   0.00000  Uiso   1.00
H414   H     0.47350   0.72478   0.57557   0.00000  Uiso   1.00
H415   H     0.46740   0.78072   0.42512   0.00000  Uiso   1.00
H416   H     0.02651   0.72492   0.42435   0.00000  Uiso   1.00
H417   H     0.21280   0.53414   0.42987   0.00000  Uiso   1.00
H418   H     0.31153   0.96579   0.54365   0.00000  Uiso   1.00
H419   H     0.28720   0.53413   0.57012   0.00000  Uiso   1.00
H420   H     0.18847   0.96579   0.45635   0.00000  Uiso   1.00
N421   N     0.25000   0.62624   0.50000   0.00000  Uiso   1.00
N422   N     0.25000   0.87377   0.50000   0.00000  Uiso   1.00
O423   O     0.18453   0.78974   0.50000   0.00000  Uiso   1.00
O424   O     0.31547   0.71026   0.50000   0.00000  Uiso   1.00
O425   O     0.31547   0.78974   0.50000   0.00000  Uiso   1.00
O426   O     0.18453   0.71026   0.50000   0.00000  Uiso   1.00
O427   O     0.25000   0.78973   0.42845   0.00000  Uiso   1.00
O428   O     0.25000   0.71027   0.57155   0.00000  Uiso   1.00
O429   O     0.25000   0.78973   0.57155   0.00000  Uiso   1.00
O430   O     0.25000   0.71027   0.42845   0.00000  Uiso   1.00
Zn431  Zn    0.25000   0.80307   0.50000   0.00000  Uiso   1.00
Zn432  Zn    0.25000   0.69693   0.50000   0.00000  Uiso   1.00
C433   C     0.20136   0.62569   0.42231   0.00000  Uiso   1.00
H434   H     0.18720   0.65946   0.42891   0.00000  Uiso   1.00
O435   O     0.19399   0.60738   0.38150   0.00000  Uiso   1.00
C436   C     0.31836   0.87412   0.55634   0.00000  Uiso   1.00
H437   H     0.31280   0.83995   0.57158   0.00000  Uiso   1.00
O438   O     0.35432   0.89286   0.56601   0.00000  Uiso   1.00
C439   C     0.29864   0.62568   0.57769   0.00000  Uiso   1.00
H440   H     0.31278   0.65945   0.57109   0.00000  Uiso   1.00
O441   O     0.30602   0.60736   0.61849   0.00000  Uiso   1.00
C442   C     0.18164   0.87412   0.44366   0.00000  Uiso   1.00
H443   H     0.18719   0.83995   0.42843   0.00000  Uiso   1.00
O444   O     0.14568   0.89287   0.43398   0.00000  Uiso   1.00
Cl445  Cl    0.12553   0.78452   0.59706   0.00000  Uiso   1.00
Cl446  Cl    0.38261   0.72026   0.59914   0.00000  Uiso   1.00
Cl447  Cl    0.37446   0.78470   0.40299   0.00000  Uiso   1.00
Cl448  Cl    0.11741   0.72040   0.40081   0.00000  Uiso   1.00
C449   C     0.66421   0.75007   0.49962   0.00000  Uiso   1.00
C450   C     0.83579   0.75006   0.50038   0.00000  Uiso   1.00
C451   C     0.72794   0.60160   0.46215   0.00000  Uiso   1.00
C452   C     0.78322   0.89829   0.52576   0.00000  Uiso   1.00
C453   C     0.77205   0.60160   0.53785   0.00000  Uiso   1.00
C454   C     0.71678   0.89829   0.47423   0.00000  Uiso   1.00
C455   C     0.72899   0.55224   0.46113   0.00000  Uiso   1.00
C456   C     0.78410   0.94766   0.52467   0.00000  Uiso   1.00
C457   C     0.77101   0.55224   0.53887   0.00000  Uiso   1.00
C458   C     0.71590   0.94766   0.47533   0.00000  Uiso   1.00
C459   C     0.74983   0.75000   0.40631   0.00000  Uiso   1.00
C460   C     0.75017   0.75000   0.59369   0.00000  Uiso   1.00
C461   C     0.75000   0.52648   0.50000   0.00000  Uiso   1.00
C462   C     0.75000   0.97340   0.50000   0.00000  Uiso   1.00
C463   C     0.74993   0.74999   0.35516   0.00000  Uiso   1.00
C464   C     0.75007   0.74999   0.64484   0.00000  Uiso   1.00
C465   C     0.54906   0.76768   0.54218   0.00000  Uiso   1.00
C466   C     0.95438   0.73677   0.54278   0.00000  Uiso   1.00
C467   C     0.95094   0.76776   0.45783   0.00000  Uiso   1.00
C468   C     0.54563   0.73686   0.45717   0.00000  Uiso   1.00
C469   C     0.59527   0.76648   0.54247   0.00000  Uiso   1.00
C470   C     0.90821   0.73637   0.54329   0.00000  Uiso   1.00
C471   C     0.90473   0.76655   0.45755   0.00000  Uiso   1.00
C472   C     0.59180   0.73645   0.45667   0.00000  Uiso   1.00
C473   C     0.61650   0.75053   0.49972   0.00000  Uiso   1.00
C474   C     0.88351   0.75052   0.50027   0.00000  Uiso   1.00
C475   C     0.52421   0.75246   0.49981   0.00000  Uiso   1.00
C476   C     0.97579   0.75245   0.50017   0.00000  Uiso   1.00
H477   H     0.53259   0.78058   0.57491   0.00000  Uiso   1.00
H478   H     0.97350   0.72478   0.57557   0.00000  Uiso   1.00
H479   H     0.96740   0.78072   0.42512   0.00000  Uiso   1.00
H480   H     0.52651   0.72492   0.42435   0.00000  Uiso   1.00
H481   H     0.71280   0.53414   0.42987   0.00000  Uiso   1.00
H482   H     0.81153   0.96579   0.54365   0.00000  Uiso   1.00
H483   H     0.78720   0.53413   0.57012   0.00000  Uiso   1.00
H484   H     0.68847   0.96579   0.45635   0.00000  Uiso   1.00
N485   N     0.75000   0.62624   0.50000   0.00000  Uiso   1.00
N486   N     0.75000   0.87377   0.50000   0.00000  Uiso   1.00
O487   O     0.68453   0.78974   0.50000   0.00000  Uiso   1.00
O488   O     0.81547   0.71026   0.50000   0.00000  Uiso   1.00
O489   O     0.81547   0.78974   0.50000   0.00000  Uiso   1.00
O490   O     0.68453   0.71026   0.50000   0.00000  Uiso   1.00
O491   O     0.75000   0.78973   0.42845   0.00000  Uiso   1.00
O492   O     0.75000   0.71027   0.57155   0.00000  Uiso   1.00
O493   O     0.75000   0.78973   0.57155   0.00000  Uiso   1.00
O494   O     0.75000   0.71027   0.42845   0.00000  Uiso   1.00
Zn495  Zn    0.75000   0.80307   0.50000   0.00000  Uiso   1.00
Zn496  Zn    0.75000   0.69693   0.50000   0.00000  Uiso   1.00
C497   C     0.70136   0.62569   0.42231   0.00000  Uiso   1.00
H498   H     0.68720   0.65946   0.42891   0.00000  Uiso   1.00
O499   O     0.69399   0.60738   0.38150   0.00000  Uiso   1.00
C500   C     0.81836   0.87412   0.55634   0.00000  Uiso   1.00
H501   H     0.81280   0.83995   0.57158   0.00000  Uiso   1.00
O502   O     0.85432   0.89286   0.56601   0.00000  Uiso   1.00
C503   C     0.79864   0.62568   0.57769   0.00000  Uiso   1.00
H504   H     0.81278   0.65945   0.57109   0.00000  Uiso   1.00
O505   O     0.80602   0.60736   0.61849   0.00000  Uiso   1.00
C506   C     0.68164   0.87412   0.44366   0.00000  Uiso   1.00
H507   H     0.68719   0.83995   0.42843   0.00000  Uiso   1.00
O508   O     0.64568   0.89287   0.43398   0.00000  Uiso   1.00
Cl509  Cl    0.62553   0.78452   0.59706   0.00000  Uiso   1.00
Cl510  Cl    0.88261   0.72026   0.59914   0.00000  Uiso   1.00
Cl511  Cl    0.87446   0.78470   0.40299   0.00000  Uiso   1.00
Cl512  Cl    0.61741   0.72040   0.40081   0.00000  Uiso   1.00
C513   C     0.16421   0.25007   0.83295   0.00000  Uiso   1.00
C514   C     0.33579   0.25006   0.83372   0.00000  Uiso   1.00
C515   C     0.22794   0.10160   0.79549   0.00000  Uiso   1.00
C516   C     0.28322   0.39829   0.85910   0.00000  Uiso   1.00
C517   C     0.27205   0.10160   0.87118   0.00000  Uiso   1.00
C518   C     0.21678   0.39829   0.80757   0.00000  Uiso   1.00
C519   C     0.22899   0.05224   0.79446   0.00000  Uiso   1.00
C520   C     0.28410   0.44766   0.85800   0.00000  Uiso   1.00
C521   C     0.27101   0.05224   0.87220   0.00000  Uiso   1.00
C522   C     0.21590   0.44766   0.80866   0.00000  Uiso   1.00
C523   C     0.24983   0.25000   0.73964   0.00000  Uiso   1.00
C524   C     0.25017   0.25000   0.92702   0.00000  Uiso   1.00
C525   C     0.25000   0.02648   0.83333   0.00000  Uiso   1.00
C526   C     0.25000   0.47340   0.83333   0.00000  Uiso   1.00
C527   C     0.24993   0.24999   0.68849   0.00000  Uiso   1.00
C528   C     0.25007   0.24999   0.97818   0.00000  Uiso   1.00
C529   C     0.04906   0.26768   0.87551   0.00000  Uiso   1.00
C530   C     0.45438   0.23677   0.87611   0.00000  Uiso   1.00
C531   C     0.45094   0.26776   0.79116   0.00000  Uiso   1.00
C532   C     0.04563   0.23686   0.79051   0.00000  Uiso   1.00
C533   C     0.09527   0.26648   0.87580   0.00000  Uiso   1.00
C534   C     0.40821   0.23637   0.87662   0.00000  Uiso   1.00
C535   C     0.40473   0.26655   0.79088   0.00000  Uiso   1.00
C536   C     0.09180   0.23645   0.79000   0.00000  Uiso   1.00
C537   C     0.11650   0.25053   0.83306   0.00000  Uiso   1.00
C538   C     0.38351   0.25052   0.83360   0.00000  Uiso   1.00
C539   C     0.02421   0.25246   0.83314   0.00000  Uiso   1.00
C540   C     0.47579   0.25245   0.83350   0.00000  Uiso   1.00
H541   H     0.03259   0.28058   0.90824   0.00000  Uiso   1.00
H542   H     0.47350   0.22478   0.90890   0.00000  Uiso   1.00
H543   H     0.46740   0.28072   0.75845   0.00000  Uiso   1.00
H544   H     0.02651   0.22492   0.75768   0.00000  Uiso   1.00
H545   H     0.21280   0.03414   0.76321   0.00000  Uiso   1.00
H546   H     0.31153   0.46579   0.87698   0.00000  Uiso   1.00
H547   H     0.28720   0.03413   0.90346   0.00000  Uiso   1.00
H548   H     0.18847   0.46579   0.78968   0.00000  Uiso   1.00
N549   N     0.25000   0.12624   0.83333   0.00000  Uiso   1.00
N550   N     0.25000   0.37377   0.83333   0.00000  Uiso   1.00
O551   O     0.18453   0.28974   0.83334   0.00000  Uiso   1.00
O552   O     0.31547   0.21026   0.83333   0.00000  Uiso   1.00
O553   O     0.31547   0.28974   0.83333   0.00000  Uiso   1.00
O554   O     0.18453   0.21026   0.83334   0.00000  Uiso   1.00
O555   O     0.25000   0.28973   0.76178   0.00000  Uiso   1.00
O556   O     0.25000   0.21027   0.90489   0.00000  Uiso   1.00
O557   O     0.25000   0.28973   0.90489   0.00000  Uiso   1.00
O558   O     0.25000   0.21027   0.76178   0.00000  Uiso   1.00
Zn559  Zn    0.25000   0.30307   0.83333   0.00000  Uiso   1.00
Zn560  Zn    0.25000   0.19693   0.83333   0.00000  Uiso   1.00
C561   C     0.20136   0.12569   0.75565   0.00000  Uiso   1.00
H562   H     0.18720   0.15946   0.76225   0.00000  Uiso   1.00
O563   O     0.19399   0.10738   0.71484   0.00000  Uiso   1.00
C564   C     0.31836   0.37412   0.88967   0.00000  Uiso   1.00
H565   H     0.31280   0.33995   0.90491   0.00000  Uiso   1.00
O566   O     0.35432   0.39286   0.89934   0.00000  Uiso   1.00
C567   C     0.29864   0.12568   0.91102   0.00000  Uiso   1.00
H568   H     0.31278   0.15945   0.90442   0.00000  Uiso   1.00
O569   O     0.30602   0.10736   0.95183   0.00000  Uiso   1.00
C570   C     0.18164   0.37412   0.77699   0.00000  Uiso   1.00
H571   H     0.18719   0.33995   0.76176   0.00000  Uiso   1.00
O572   O     0.14568   0.39287   0.76732   0.00000  Uiso   1.00
Cl573  Cl    0.12553   0.28452   0.93040   0.00000  Uiso   1.00
Cl574  Cl    0.38261   0.22026   0.93247   0.00000  Uiso   1.00
Cl575  Cl    0.37446   0.28470   0.73632   0.00000  Uiso   1.00
Cl576  Cl    0.11741   0.22040   0.73415   0.00000  Uiso   1.00
C577   C     0.66421   0.25007   0.83295   0.00000  Uiso   1.00
C578   C     0.83579   0.25006   0.83372   0.00000  Uiso   1.00
C579   C     0.72794   0.10160   0.79549   0.00000  Uiso   1.00
C580   C     0.78322   0.39829   0.85910   0.00000  Uiso   1.00
C581   C     0.77205   0.10160   0.87118   0.00000  Uiso   1.00
C582   C     0.71678   0.39829   0.80757   0.00000  Uiso   1.00
C583   C     0.72899   0.05224   0.79446   0.00000  Uiso   1.00
C584   C     0.78410   0.44766   0.85800   0.00000  Uiso   1.00
C585   C     0.77101   0.05224   0.87220   0.00000  Uiso   1.00
C586   C     0.71590   0.44766   0.80866   0.00000  Uiso   1.00
C587   C     0.74983   0.25000   0.73964   0.00000  Uiso   1.00
C588   C     0.75017   0.25000   0.92702   0.00000  Uiso   1.00
C589   C     0.75000   0.02648   0.83333   0.00000  Uiso   1.00
C590   C     0.75000   0.47340   0.83333   0.00000  Uiso   1.00
C591   C     0.74993   0.24999   0.68849   0.00000  Uiso   1.00
C592   C     0.75007   0.24999   0.97818   0.00000  Uiso   1.00
C593   C     0.54906   0.26768   0.87551   0.00000  Uiso   1.00
C594   C     0.95438   0.23677   0.87611   0.00000  Uiso   1.00
C595   C     0.95094   0.26776   0.79116   0.00000  Uiso   1.00
C596   C     0.54563   0.23686   0.79051   0.00000  Uiso   1.00
C597   C     0.59527   0.26648   0.87580   0.00000  Uiso   1.00
C598   C     0.90821   0.23637   0.87662   0.00000  Uiso   1.00
C599   C     0.90473   0.26655   0.79088   0.00000  Uiso   1.00
C600   C     0.59180   0.23645   0.79000   0.00000  Uiso   1.00
C601   C     0.61650   0.25053   0.83306   0.00000  Uiso   1.00
C602   C     0.88351   0.25052   0.83360   0.00000  Uiso   1.00
C603   C     0.52421   0.25246   0.83314   0.00000  Uiso   1.00
C604   C     0.97579   0.25245   0.83350   0.00000  Uiso   1.00
H605   H     0.53259   0.28058   0.90824   0.00000  Uiso   1.00
H606   H     0.97350   0.22478   0.90890   0.00000  Uiso   1.00
H607   H     0.96740   0.28072   0.75845   0.00000  Uiso   1.00
H608   H     0.52651   0.22492   0.75768   0.00000  Uiso   1.00
H609   H     0.71280   0.03414   0.76321   0.00000  Uiso   1.00
H610   H     0.81153   0.46579   0.87698   0.00000  Uiso   1.00
H611   H     0.78720   0.03413   0.90346   0.00000  Uiso   1.00
H612   H     0.68847   0.46579   0.78968   0.00000  Uiso   1.00
N613   N     0.75000   0.12624   0.83333   0.00000  Uiso   1.00
N614   N     0.75000   0.37377   0.83333   0.00000  Uiso   1.00
O615   O     0.68453   0.28974   0.83334   0.00000  Uiso   1.00
O616   O     0.81547   0.21026   0.83333   0.00000  Uiso   1.00
O617   O     0.81547   0.28974   0.83333   0.00000  Uiso   1.00
O618   O     0.68453   0.21026   0.83334   0.00000  Uiso   1.00
O619   O     0.75000   0.28973   0.76178   0.00000  Uiso   1.00
O620   O     0.75000   0.21027   0.90489   0.00000  Uiso   1.00
O621   O     0.75000   0.28973   0.90489   0.00000  Uiso   1.00
O622   O     0.75000   0.21027   0.76178   0.00000  Uiso   1.00
Zn623  Zn    0.75000   0.30307   0.83333   0.00000  Uiso   1.00
Zn624  Zn    0.75000   0.19693   0.83333   0.00000  Uiso   1.00
C625   C     0.70136   0.12569   0.75565   0.00000  Uiso   1.00
H626   H     0.68720   0.15946   0.76225   0.00000  Uiso   1.00
O627   O     0.69399   0.10738   0.71484   0.00000  Uiso   1.00
C628   C     0.81836   0.37412   0.88967   0.00000  Uiso   1.00
H629   H     0.81280   0.33995   0.90491   0.00000  Uiso   1.00
O630   O     0.85432   0.39286   0.89934   0.00000  Uiso   1.00
C631   C     0.79864   0.12568   0.91102   0.00000  Uiso   1.00
H632   H     0.81278   0.15945   0.90442   0.00000  Uiso   1.00
O633   O     0.80602   0.10736   0.95183   0.00000  Uiso   1.00
C634   C     0.68164   0.37412   0.77699   0.00000  Uiso   1.00
H635   H     0.68719   0.33995   0.76176   0.00000  Uiso   1.00
O636   O     0.64568   0.39287   0.76732   0.00000  Uiso   1.00
Cl637  Cl    0.62553   0.28452   0.93040   0.00000  Uiso   1.00
Cl638  Cl    0.88261   0.22026   0.93247   0.00000  Uiso   1.00
Cl639  Cl    0.87446   0.28470   0.73632   0.00000  Uiso   1.00
Cl640  Cl    0.61741   0.22040   0.73415   0.00000  Uiso   1.00
C641   C     0.16421   0.75007   0.83295   0.00000  Uiso   1.00
C642   C     0.33579   0.75006   0.83372   0.00000  Uiso   1.00
C643   C     0.22794   0.60160   0.79549   0.00000  Uiso   1.00
C644   C     0.28322   0.89829   0.85910   0.00000  Uiso   1.00
C645   C     0.27205   0.60160   0.87118   0.00000  Uiso   1.00
C646   C     0.21678   0.89829   0.80757   0.00000  Uiso   1.00
C647   C     0.22899   0.55224   0.79446   0.00000  Uiso   1.00
C648   C     0.28410   0.94766   0.85800   0.00000  Uiso   1.00
C649   C     0.27101   0.55224   0.87220   0.00000  Uiso   1.00
C650   C     0.21590   0.94766   0.80866   0.00000  Uiso   1.00
C651   C     0.24983   0.75000   0.73964   0.00000  Uiso   1.00
C652   C     0.25017   0.75000   0.92702   0.00000  Uiso   1.00
C653   C     0.25000   0.52648   0.83333   0.00000  Uiso   1.00
C654   C     0.25000   0.97340   0.83333   0.00000  Uiso   1.00
C655   C     0.24993   0.74999   0.68849   0.00000  Uiso   1.00
C656   C     0.25007   0.74999   0.97818   0.00000  Uiso   1.00
C657   C     0.04906   0.76768   0.87551   0.00000  Uiso   1.00
C658   C     0.45438   0.73677   0.87611   0.00000  Uiso   1.00
C659   C     0.45094   0.76776   0.79116   0.00000  Uiso   1.00
C660   C     0.04563   0.73686   0.79051   0.00000  Uiso   1.00
C661   C     0.09527   0.76648   0.87580   0.00000  Uiso   1.00
C662   C     0.40821   0.73637   0.87662   0.00000  Uiso   1.00
C663   C     0.40473   0.76655   0.79088   0.00000  Uiso   1.00
C664   C     0.09180   0.73645   0.79000   0.00000  Uiso   1.00
C665   C     0.11650   0.75053   0.83306   0.00000  Uiso   1.00
C666   C     0.38351   0.75052   0.83360   0.00000  Uiso   1.00
C667   C     0.02421   0.75246   0.83314   0.00000  Uiso   1.00
C668   C     0.47579   0.75245   0.83350   0.00000  Uiso   1.00
H669   H     0.03259   0.78058   0.90824   0.00000  Uiso   1.00
H670   H     0.47350   0.72478   0.90890   0.00000  Uiso   1.00
H671   H     0.46740   0.78072   0.75845   0.00000  Uiso   1.00
H672   H     0.02651   0.72492   0.75768   0.00000  Uiso   1.00
H673   H     0.21280   0.53414   0.76321   0.00000  Uiso   1.00
H674   H     0.31153   0.96579   0.87698   0.00000  Uiso   1.00
H675   H     0.28720   0.53413   0.90346   0.00000  Uiso   1.00
H676   H     0.18847   0.96579   0.78968   0.00000  Uiso   1.00
N677   N     0.25000   0.62624   0.83333   0.00000  Uiso   1.00
N678   N     0.25000   0.87377   0.83333   0.00000  Uiso   1.00
O679   O     0.18453   0.78974   0.83334   0.00000  Uiso   1.00
O680   O     0.31547   0.71026   0.83333   0.00000  Uiso   1.00
O681   O     0.31547   0.78974   0.83333   0.00000  Uiso   1.00
O682   O     0.18453   0.71026   0.83334   0.00000  Uiso   1.00
O683   O     0.25000   0.78973   0.76178   0.00000  Uiso   1.00
O684   O     0.25000   0.71027   0.90489   0.00000  Uiso   1.00
O685   O     0.25000   0.78973   0.90489   0.00000  Uiso   1.00
O686   O     0.25000   0.71027   0.76178   0.00000  Uiso   1.00
Zn687  Zn    0.25000   0.80307   0.83333   0.00000  Uiso   1.00
Zn688  Zn    0.25000   0.69693   0.83333   0.00000  Uiso   1.00
C689   C     0.20136   0.62569   0.75565   0.00000  Uiso   1.00
H690   H     0.18720   0.65946   0.76225   0.00000  Uiso   1.00
O691   O     0.19399   0.60738   0.71484   0.00000  Uiso   1.00
C692   C     0.31836   0.87412   0.88967   0.00000  Uiso   1.00
H693   H     0.31280   0.83995   0.90491   0.00000  Uiso   1.00
O694   O     0.35432   0.89286   0.89934   0.00000  Uiso   1.00
C695   C     0.29864   0.62568   0.91102   0.00000  Uiso   1.00
H696   H     0.31278   0.65945   0.90442   0.00000  Uiso   1.00
O697   O     0.30602   0.60736   0.95183   0.00000  Uiso   1.00
C698   C     0.18164   0.87412   0.77699   0.00000  Uiso   1.00
H699   H     0.18719   0.83995   0.76176   0.00000  Uiso   1.00
O700   O     0.14568   0.89287   0.76732   0.00000  Uiso   1.00
Cl701  Cl    0.12553   0.78452   0.93040   0.00000  Uiso   1.00
Cl702  Cl    0.38261   0.72026   0.93247   0.00000  Uiso   1.00
Cl703  Cl    0.37446   0.78470   0.73632   0.00000  Uiso   1.00
Cl704  Cl    0.11741   0.72040   0.73415   0.00000  Uiso   1.00
C705   C     0.66421   0.75007   0.83295   0.00000  Uiso   1.00
C706   C     0.83579   0.75006   0.83372   0.00000  Uiso   1.00
C707   C     0.72794   0.60160   0.79549   0.00000  Uiso   1.00
C708   C     0.78322   0.89829   0.85910   0.00000  Uiso   1.00
C709   C     0.77205   0.60160   0.87118   0.00000  Uiso   1.00
C710   C     0.71678   0.89829   0.80757   0.00000  Uiso   1.00
C711   C     0.72899   0.55224   0.79446   0.00000  Uiso   1.00
C712   C     0.78410   0.94766   0.85800   0.00000  Uiso   1.00
C713   C     0.77101   0.55224   0.87220   0.00000  Uiso   1.00
C714   C     0.71590   0.94766   0.80866   0.00000  Uiso   1.00
C715   C     0.74983   0.75000   0.73964   0.00000  Uiso   1.00
C716   C     0.75017   0.75000   0.92702   0.00000  Uiso   1.00
C717   C     0.75000   0.52648   0.83333   0.00000  Uiso   1.00
C718   C     0.75000   0.97340   0.83333   0.00000  Uiso   1.00
C719   C     0.74993   0.74999   0.68849   0.00000  Uiso   1.00
C720   C     0.75007   0.74999   0.97818   0.00000  Uiso   1.00
C721   C     0.54906   0.76768   0.87551   0.00000  Uiso   1.00
C722   C     0.95438   0.73677   0.87611   0.00000  Uiso   1.00
C723   C     0.95094   0.76776   0.79116   0.00000  Uiso   1.00
C724   C     0.54563   0.73686   0.79051   0.00000  Uiso   1.00
C725   C     0.59527   0.76648   0.87580   0.00000  Uiso   1.00
C726   C     0.90821   0.73637   0.87662   0.00000  Uiso   1.00
C727   C     0.90473   0.76655   0.79088   0.00000  Uiso   1.00
C728   C     0.59180   0.73645   0.79000   0.00000  Uiso   1.00
C729   C     0.61650   0.75053   0.83306   0.00000  Uiso   1.00
C730   C     0.88351   0.75052   0.83360   0.00000  Uiso   1.00
C731   C     0.52421   0.75246   0.83314   0.00000  Uiso   1.00
C732   C     0.97579   0.75245   0.83350   0.00000  Uiso   1.00
H733   H     0.53259   0.78058   0.90824   0.00000  Uiso   1.00
H734   H     0.97350   0.72478   0.90890   0.00000  Uiso   1.00
H735   H     0.96740   0.78072   0.75845   0.00000  Uiso   1.00
H736   H     0.52651   0.72492   0.75768   0.00000  Uiso   1.00
H737   H     0.71280   0.53414   0.76321   0.00000  Uiso   1.00
H738   H     0.81153   0.96579   0.87698   0.00000  Uiso   1.00
H739   H     0.78720   0.53413   0.90346   0.00000  Uiso   1.00
H740   H     0.68847   0.96579   0.78968   0.00000  Uiso   1.00
N741   N     0.75000   0.62624   0.83333   0.00000  Uiso   1.00
N742   N     0.75000   0.87377   0.83333   0.00000  Uiso   1.00
O743   O     0.68453   0.78974   0.83334   0.00000  Uiso   1.00
O744   O     0.81547   0.71026   0.83333   0.00000  Uiso   1.00
O745   O     0.81547   0.78974   0.83333   0.00000  Uiso   1.00
O746   O     0.68453   0.71026   0.83334   0.00000  Uiso   1.00
O747   O     0.75000   0.78973   0.76178   0.00000  Uiso   1.00
O748   O     0.75000   0.71027   0.90489   0.00000  Uiso   1.00
O749   O     0.75000   0.78973   0.90489   0.00000  Uiso   1.00
O750   O     0.75000   0.71027   0.76178   0.00000  Uiso   1.00
Zn751  Zn    0.75000   0.80307   0.83333   0.00000  Uiso   1.00
Zn752  Zn    0.75000   0.69693   0.83333   0.00000  Uiso   1.00
C753   C     0.70136   0.62569   0.75565   0.00000  Uiso   1.00
H754   H     0.68720   0.65946   0.76225   0.00000  Uiso   1.00
O755   O     0.69399   0.60738   0.71484   0.00000  Uiso   1.00
C756   C     0.81836   0.87412   0.88967   0.00000  Uiso   1.00
H757   H     0.81280   0.83995   0.90491   0.00000  Uiso   1.00
O758   O     0.85432   0.89286   0.89934   0.00000  Uiso   1.00
C759   C     0.79864   0.62568   0.91102   0.00000  Uiso   1.00
H760   H     0.81278   0.65945   0.90442   0.00000  Uiso   1.00
O761   O     0.80602   0.60736   0.95183   0.00000  Uiso   1.00
C762   C     0.68164   0.87412   0.77699   0.00000  Uiso   1.00
H763   H     0.68719   0.83995   0.76176   0.00000  Uiso   1.00
O764   O     0.64568   0.89287   0.76732   0.00000  Uiso   1.00
Cl765  Cl    0.62553   0.78452   0.93040   0.00000  Uiso   1.00
Cl766  Cl    0.88261   0.72026   0.93247   0.00000  Uiso   1.00
Cl767  Cl    0.87446   0.78470   0.73632   0.00000  Uiso   1.00
Cl768  Cl    0.61741   0.72040   0.73415   0.00000  Uiso   1.00
loop_
_geom_bond_atom_site_label_1
_geom_bond_atom_site_label_2
_geom_bond_distance
_geom_bond_site_symmetry_2
_ccdc_geom_bond_type
C1     C25     1.428   .     S
C1     O39     1.289   .     A
C1     O42     1.293   .     A
C2     C26     1.428   .     S
C2     O41     1.289   .     A
C2     O40     1.293   .     A
C3     C49     1.475   .     S
C3     C7      1.416   .     A
C3     N37     1.380   .     A
C4     C8      1.416   .     A
C4     C52     1.479   .     S
C4     N38     1.380   .     A
C5     N37     1.380   .     A
C5     C9      1.416   .     A
C5     C55     1.475   .     S
C6     C10     1.416   .     A
C6     N38     1.380   .     A
C6     C58     1.479   .     S
C7     H33     1.081   .     S
C7     C13     1.403   .     A
C8     H34     1.081   .     S
C8     C14     1.403   .     A
C9     C13     1.403   .     A
C9     H35     1.081   .     S
C10    H36     1.081   .     S
C10    C14     1.403   .     A
C11    O43     1.283   .     A
C11    O46     1.283   .     A
C11    C15     1.365   .     S
C12    C16     1.365   .     S
C12    O44     1.283   .     A
C12    O45     1.283   .     A
C13    C142    1.521   1_545 S
C14    C141    1.521   .     S
C15    C528    1.165   1_554 S
C16    C271    1.165   .     S
C17    H29     1.083   .     S
C17    C27     1.400   .     A
C17    C21     1.383   .     A
C18    H30     1.084   .     S
C18    C28     1.399   .     A
C18    C22     1.382   .     A
C19    C23     1.383   .     A
C19    H31     1.084   .     S
C19    C28     1.400   .     A
C20    C27     1.399   .     A
C20    H32     1.083   .     S
C20    C24     1.382   .     A
C21    Cl61    1.764   .     S
C21    C25     1.402   .     A
C22    Cl62    1.762   .     S
C22    C26     1.402   .     A
C23    Cl63    1.764   .     S
C23    C26     1.402   .     A
C24    C25     1.402   .     A
C24    Cl64    1.762   .     S
C27    C92     1.449   1_455 S
C28    C91     1.449   .     S
N37    Zn48    2.026   .     S
N38    Zn47    2.026   .     S
O39    Zn47    1.996   .     S
O40    Zn48    1.996   .     S
O41    Zn47    1.996   .     S
O42    Zn48    1.996   .     S
O43    Zn47    1.947   .     S
O44    Zn48    1.947   .     S
O45    Zn47    1.947   .     S
O46    Zn48    1.947   .     S
C49    H50     1.074   .     S
C49    O51     1.221   .     D
C52    O54     1.221   .     D
C52    H53     1.076   .     S
C55    H56     1.073   .     S
C55    O57     1.221   .     D
C58    O60     1.221   .     D
C58    H59     1.076   .     S
C65    C89     1.428   .     S
C65    O103    1.289   .     A
C65    O106    1.293   .     A
C66    C90     1.428   .     S
C66    O105    1.289   .     A
C66    O104    1.293   .     A
C67    C113    1.475   .     S
C67    C71     1.416   .     A
C67    N101    1.380   .     A
C68    C72     1.416   .     A
C68    C116    1.479   .     S
C68    N102    1.380   .     A
C69    N101    1.380   .     A
C69    C73     1.416   .     A
C69    C119    1.475   .     S
C70    C74     1.416   .     A
C70    N102    1.380   .     A
C70    C122    1.479   .     S
C71    H97     1.081   .     S
C71    C77     1.403   .     A
C72    H98     1.081   .     S
C72    C78     1.403   .     A
C73    C77     1.403   .     A
C73    H99     1.081   .     S
C74    H100    1.081   .     S
C74    C78     1.403   .     A
C75    O107    1.283   .     A
C75    O110    1.283   .     A
C75    C79     1.365   .     S
C76    C80     1.365   .     S
C76    O108    1.283   .     A
C76    O109    1.283   .     A
C77    C206    1.521   1_545 S
C78    C205    1.521   .     S
C79    C592    1.165   1_554 S
C80    C335    1.165   .     S
C81    H93     1.083   .     S
C81    C91     1.400   .     A
C81    C85     1.383   .     A
C82    H94     1.084   .     S
C82    C92     1.399   .     A
C82    C86     1.382   .     A
C83    C87     1.383   .     A
C83    H95     1.084   .     S
C83    C92     1.400   .     A
C84    C91     1.399   .     A
C84    H96     1.083   .     S
C84    C88     1.382   .     A
C85    Cl125   1.764   .     S
C85    C89     1.402   .     A
C86    Cl126   1.762   .     S
C86    C90     1.402   .     A
C87    Cl127   1.764   .     S
C87    C90     1.402   .     A
C88    C89     1.402   .     A
C88    Cl128   1.762   .     S
C92    C27     1.449   1_655 S
N101   Zn112   2.026   .     S
N102   Zn111   2.026   .     S
O103   Zn111   1.996   .     S
O104   Zn112   1.996   .     S
O105   Zn111   1.996   .     S
O106   Zn112   1.996   .     S
O107   Zn111   1.947   .     S
O108   Zn112   1.947   .     S
O109   Zn111   1.947   .     S
O110   Zn112   1.947   .     S
C113   H114    1.074   .     S
C113   O115    1.221   .     D
C116   O118    1.221   .     D
C116   H117    1.076   .     S
C119   H120    1.073   .     S
C119   O121    1.221   .     D
C122   O124    1.221   .     D
C122   H123    1.076   .     S
C129   C153    1.428   .     S
C129   O167    1.289   .     A
C129   O170    1.293   .     A
C130   C154    1.428   .     S
C130   O169    1.289   .     A
C130   O168    1.293   .     A
C131   C177    1.475   .     S
C131   C135    1.416   .     A
C131   N165    1.380   .     A
C132   C136    1.416   .     A
C132   C180    1.479   .     S
C132   N166    1.380   .     A
C133   N165    1.380   .     A
C133   C137    1.416   .     A
C133   C183    1.475   .     S
C134   C138    1.416   .     A
C134   N166    1.380   .     A
C134   C186    1.479   .     S
C135   H161    1.081   .     S
C135   C141    1.403   .     A
C136   H162    1.081   .     S
C136   C142    1.403   .     A
C137   C141    1.403   .     A
C137   H163    1.081   .     S
C138   H164    1.081   .     S
C138   C142    1.403   .     A
C139   O171    1.283   .     A
C139   O174    1.283   .     A
C139   C143    1.365   .     S
C140   C144    1.365   .     S
C140   O172    1.283   .     A
C140   O173    1.283   .     A
C142   C13     1.521   1_565 S
C143   C656    1.165   1_554 S
C144   C399    1.165   .     S
C145   H157    1.083   .     S
C145   C155    1.400   .     A
C145   C149    1.383   .     A
C146   H158    1.084   .     S
C146   C156    1.399   .     A
C146   C150    1.382   .     A
C147   C151    1.383   .     A
C147   H159    1.084   .     S
C147   C156    1.400   .     A
C148   C155    1.399   .     A
C148   H160    1.083   .     S
C148   C152    1.382   .     A
C149   Cl189   1.764   .     S
C149   C153    1.402   .     A
C150   Cl190   1.762   .     S
C150   C154    1.402   .     A
C151   Cl191   1.764   .     S
C151   C154    1.402   .     A
C152   C153    1.402   .     A
C152   Cl192   1.762   .     S
C155   C220    1.449   1_455 S
C156   C219    1.449   .     S
N165   Zn176   2.026   .     S
N166   Zn175   2.026   .     S
O167   Zn175   1.996   .     S
O168   Zn176   1.996   .     S
O169   Zn175   1.996   .     S
O170   Zn176   1.996   .     S
O171   Zn175   1.947   .     S
O172   Zn176   1.947   .     S
O173   Zn175   1.947   .     S
O174   Zn176   1.947   .     S
C177   H178    1.074   .     S
C177   O179    1.221   .     D
C180   O182    1.221   .     D
C180   H181    1.076   .     S
C183   H184    1.073   .     S
C183   O185    1.221   .     D
C186   O188    1.221   .     D
C186   H187    1.076   .     S
C193   C217    1.428   .     S
C193   O231    1.289   .     A
C193   O234    1.293   .     A
C194   C218    1.428   .     S
C194   O233    1.289   .     A
C194   O232    1.293   .     A
C195   C241    1.475   .     S
C195   C199    1.416   .     A
C195   N229    1.380   .     A
C196   C200    1.416   .     A
C196   C244    1.479   .     S
C196   N230    1.380   .     A
C197   N229    1.380   .     A
C197   C201    1.416   .     A
C197   C247    1.475   .     S
C198   C202    1.416   .     A
C198   N230    1.380   .     A
C198   C250    1.479   .     S
C199   H225    1.081   .     S
C199   C205    1.403   .     A
C200   H226    1.081   .     S
C200   C206    1.403   .     A
C201   C205    1.403   .     A
C201   H227    1.081   .     S
C202   H228    1.081   .     S
C202   C206    1.403   .     A
C203   O235    1.283   .     A
C203   O238    1.283   .     A
C203   C207    1.365   .     S
C204   C208    1.365   .     S
C204   O236    1.283   .     A
C204   O237    1.283   .     A
C206   C77     1.521   1_565 S
C207   C720    1.165   1_554 S
C208   C463    1.165   .     S
C209   H221    1.083   .     S
C209   C219    1.400   .     A
C209   C213    1.383   .     A
C210   H222    1.084   .     S
C210   C220    1.399   .     A
C210   C214    1.382   .     A
C211   C215    1.383   .     A
C211   H223    1.084   .     S
C211   C220    1.400   .     A
C212   C219    1.399   .     A
C212   H224    1.083   .     S
C212   C216    1.382   .     A
C213   Cl253   1.764   .     S
C213   C217    1.402   .     A
C214   Cl254   1.762   .     S
C214   C218    1.402   .     A
C215   Cl255   1.764   .     S
C215   C218    1.402   .     A
C216   C217    1.402   .     A
C216   Cl256   1.762   .     S
C220   C155    1.449   1_655 S
N229   Zn240   2.026   .     S
N230   Zn239   2.026   .     S
O231   Zn239   1.996   .     S
O232   Zn240   1.996   .     S
O233   Zn239   1.996   .     S
O234   Zn240   1.996   .     S
O235   Zn239   1.947   .     S
O236   Zn240   1.947   .     S
O237   Zn239   1.947   .     S
O238   Zn240   1.947   .     S
C241   H242    1.074   .     S
C241   O243    1.221   .     D
C244   O246    1.221   .     D
C244   H245    1.076   .     S
C247   H248    1.073   .     S
C247   O249    1.221   .     D
C250   O252    1.221   .     D
C250   H251    1.076   .     S
C257   C281    1.428   .     S
C257   O295    1.289   .     A
C257   O298    1.293   .     A
C258   C282    1.428   .     S
C258   O297    1.289   .     A
C258   O296    1.293   .     A
C259   C305    1.475   .     S
C259   C263    1.416   .     A
C259   N293    1.380   .     A
C260   C264    1.416   .     A
C260   C308    1.479   .     S
C260   N294    1.380   .     A
C261   N293    1.380   .     A
C261   C265    1.416   .     A
C261   C311    1.475   .     S
C262   C266    1.416   .     A
C262   N294    1.380   .     A
C262   C314    1.479   .     S
C263   H289    1.081   .     S
C263   C269    1.403   .     A
C264   H290    1.081   .     S
C264   C270    1.403   .     A
C265   C269    1.403   .     A
C265   H291    1.081   .     S
C266   H292    1.081   .     S
C266   C270    1.403   .     A
C267   O299    1.283   .     A
C267   O302    1.283   .     A
C267   C271    1.365   .     S
C268   C272    1.365   .     S
C268   O300    1.283   .     A
C268   O301    1.283   .     A
C269   C398    1.521   1_545 S
C270   C397    1.521   .     S
C272   C527    1.165   .     S
C273   H285    1.083   .     S
C273   C283    1.400   .     A
C273   C277    1.383   .     A
C274   H286    1.084   .     S
C274   C284    1.399   .     A
C274   C278    1.382   .     A
C275   C279    1.383   .     A
C275   H287    1.084   .     S
C275   C284    1.400   .     A
C276   C283    1.399   .     A
C276   H288    1.083   .     S
C276   C280    1.382   .     A
C277   Cl317   1.764   .     S
C277   C281    1.402   .     A
C278   Cl318   1.762   .     S
C278   C282    1.402   .     A
C279   Cl319   1.764   .     S
C279   C282    1.402   .     A
C280   C281    1.402   .     A
C280   Cl320   1.762   .     S
C283   C348    1.449   1_455 S
C284   C347    1.449   .     S
N293   Zn304   2.026   .     S
N294   Zn303   2.026   .     S
O295   Zn303   1.996   .     S
O296   Zn304   1.996   .     S
O297   Zn303   1.996   .     S
O298   Zn304   1.996   .     S
O299   Zn303   1.947   .     S
O300   Zn304   1.947   .     S
O301   Zn303   1.947   .     S
O302   Zn304   1.947   .     S
C305   H306    1.074   .     S
C305   O307    1.221   .     D
C308   O310    1.221   .     D
C308   H309    1.076   .     S
C311   H312    1.073   .     S
C311   O313    1.221   .     D
C314   O316    1.221   .     D
C314   H315    1.076   .     S
C321   C345    1.428   .     S
C321   O359    1.289   .     A
C321   O362    1.293   .     A
C322   C346    1.428   .     S
C322   O361    1.289   .     A
C322   O360    1.293   .     A
C323   C369    1.475   .     S
C323   C327    1.416   .     A
C323   N357    1.380   .     A
C324   C328    1.416   .     A
C324   C372    1.479   .     S
C324   N358    1.380   .     A
C325   N357    1.380   .     A
C325   C329    1.416   .     A
C325   C375    1.475   .     S
C326   C330    1.416   .     A
C326   N358    1.380   .     A
C326   C378    1.479   .     S
C327   H353    1.081   .     S
C327   C333    1.403   .     A
C328   H354    1.081   .     S
C328   C334    1.403   .     A
C329   C333    1.403   .     A
C329   H355    1.081   .     S
C330   H356    1.081   .     S
C330   C334    1.403   .     A
C331   O363    1.283   .     A
C331   O366    1.283   .     A
C331   C335    1.365   .     S
C332   C336    1.365   .     S
C332   O364    1.283   .     A
C332   O365    1.283   .     A
C333   C462    1.521   1_545 S
C334   C461    1.521   .     S
C336   C591    1.165   .     S
C337   H349    1.083   .     S
C337   C347    1.400   .     A
C337   C341    1.383   .     A
C338   H350    1.084   .     S
C338   C348    1.399   .     A
C338   C342    1.382   .     A
C339   C343    1.383   .     A
C339   H351    1.084   .     S
C339   C348    1.400   .     A
C340   C347    1.399   .     A
C340   H352    1.083   .     S
C340   C344    1.382   .     A
C341   Cl381   1.764   .     S
C341   C345    1.402   .     A
C342   Cl382   1.762   .     S
C342   C346    1.402   .     A
C343   Cl383   1.764   .     S
C343   C346    1.402   .     A
C344   C345    1.402   .     A
C344   Cl384   1.762   .     S
C348   C283    1.449   1_655 S
N357   Zn368   2.026   .     S
N358   Zn367   2.026   .     S
O359   Zn367   1.996   .     S
O360   Zn368   1.996   .     S
O361   Zn367   1.996   .     S
O362   Zn368   1.996   .     S
O363   Zn367   1.947   .     S
O364   Zn368   1.947   .     S
O365   Zn367   1.947   .     S
O366   Zn368   1.947   .     S
C369   H370    1.074   .     S
C369   O371    1.221   .     D
C372   O374    1.221   .     D
C372   H373    1.076   .     S
C375   H376    1.073   .     S
C375   O377    1.221   .     D
C378   O380    1.221   .     D
C378   H379    1.076   .     S
C385   C409    1.428   .     S
C385   O423    1.289   .     A
C385   O426    1.293   .     A
C386   C410    1.428   .     S
C386   O425    1.289   .     A
C386   O424    1.293   .     A
C387   C433    1.475   .     S
C387   C391    1.416   .     A
C387   N421    1.380   .     A
C388   C392    1.416   .     A
C388   C436    1.479   .     S
C388   N422    1.380   .     A
C389   N421    1.380   .     A
C389   C393    1.416   .     A
C389   C439    1.475   .     S
C390   C394    1.416   .     A
C390   N422    1.380   .     A
C390   C442    1.479   .     S
C391   H417    1.081   .     S
C391   C397    1.403   .     A
C392   H418    1.081   .     S
C392   C398    1.403   .     A
C393   C397    1.403   .     A
C393   H419    1.081   .     S
C394   H420    1.081   .     S
C394   C398    1.403   .     A
C395   O427    1.283   .     A
C395   O430    1.283   .     A
C395   C399    1.365   .     S
C396   C400    1.365   .     S
C396   O428    1.283   .     A
C396   O429    1.283   .     A
C398   C269    1.521   1_565 S
C400   C655    1.165   .     S
C401   H413    1.083   .     S
C401   C411    1.400   .     A
C401   C405    1.383   .     A
C402   H414    1.084   .     S
C402   C412    1.399   .     A
C402   C406    1.382   .     A
C403   C407    1.383   .     A
C403   H415    1.084   .     S
C403   C412    1.400   .     A
C404   C411    1.399   .     A
C404   H416    1.083   .     S
C404   C408    1.382   .     A
C405   Cl445   1.764   .     S
C405   C409    1.402   .     A
C406   Cl446   1.762   .     S
C406   C410    1.402   .     A
C407   Cl447   1.764   .     S
C407   C410    1.402   .     A
C408   C409    1.402   .     A
C408   Cl448   1.762   .     S
C411   C476    1.449   1_455 S
C412   C475    1.449   .     S
N421   Zn432   2.026   .     S
N422   Zn431   2.026   .     S
O423   Zn431   1.996   .     S
O424   Zn432   1.996   .     S
O425   Zn431   1.996   .     S
O426   Zn432   1.996   .     S
O427   Zn431   1.947   .     S
O428   Zn432   1.947   .     S
O429   Zn431   1.947   .     S
O430   Zn432   1.947   .     S
C433   H434    1.074   .     S
C433   O435    1.221   .     D
C436   O438    1.221   .     D
C436   H437    1.076   .     S
C439   H440    1.073   .     S
C439   O441    1.221   .     D
C442   O444    1.221   .     D
C442   H443    1.076   .     S
C449   C473    1.428   .     S
C449   O487    1.289   .     A
C449   O490    1.293   .     A
C450   C474    1.428   .     S
C450   O489    1.289   .     A
C450   O488    1.293   .     A
C451   C497    1.475   .     S
C451   C455    1.416   .     A
C451   N485    1.380   .     A
C452   C456    1.416   .     A
C452   C500    1.479   .     S
C452   N486    1.380   .     A
C453   N485    1.380   .     A
C453   C457    1.416   .     A
C453   C503    1.475   .     S
C454   C458    1.416   .     A
C454   N486    1.380   .     A
C454   C506    1.479   .     S
C455   H481    1.081   .     S
C455   C461    1.403   .     A
C456   H482    1.081   .     S
C456   C462    1.403   .     A
C457   C461    1.403   .     A
C457   H483    1.081   .     S
C458   H484    1.081   .     S
C458   C462    1.403   .     A
C459   O491    1.283   .     A
C459   O494    1.283   .     A
C459   C463    1.365   .     S
C460   C464    1.365   .     S
C460   O492    1.283   .     A
C460   O493    1.283   .     A
C462   C333    1.521   1_565 S
C464   C719    1.165   .     S
C465   H477    1.083   .     S
C465   C475    1.400   .     A
C465   C469    1.383   .     A
C466   H478    1.084   .     S
C466   C476    1.399   .     A
C466   C470    1.382   .     A
C467   C471    1.383   .     A
C467   H479    1.084   .     S
C467   C476    1.400   .     A
C468   C475    1.399   .     A
C468   H480    1.083   .     S
C468   C472    1.382   .     A
C469   Cl509   1.764   .     S
C469   C473    1.402   .     A
C470   Cl510   1.762   .     S
C470   C474    1.402   .     A
C471   Cl511   1.764   .     S
C471   C474    1.402   .     A
C472   C473    1.402   .     A
C472   Cl512   1.762   .     S
C476   C411    1.449   1_655 S
N485   Zn496   2.026   .     S
N486   Zn495   2.026   .     S
O487   Zn495   1.996   .     S
O488   Zn496   1.996   .     S
O489   Zn495   1.996   .     S
O490   Zn496   1.996   .     S
O491   Zn495   1.947   .     S
O492   Zn496   1.947   .     S
O493   Zn495   1.947   .     S
O494   Zn496   1.947   .     S
C497   H498    1.074   .     S
C497   O499    1.221   .     D
C500   O502    1.221   .     D
C500   H501    1.076   .     S
C503   H504    1.073   .     S
C503   O505    1.221   .     D
C506   O508    1.221   .     D
C506   H507    1.076   .     S
C513   C537    1.428   .     S
C513   O551    1.289   .     A
C513   O554    1.293   .     A
C514   C538    1.428   .     S
C514   O553    1.289   .     A
C514   O552    1.293   .     A
C515   C561    1.475   .     S
C515   C519    1.416   .     A
C515   N549    1.380   .     A
C516   C520    1.416   .     A
C516   C564    1.479   .     S
C516   N550    1.380   .     A
C517   N549    1.380   .     A
C517   C521    1.416   .     A
C517   C567    1.475   .     S
C518   C522    1.416   .     A
C518   N550    1.380   .     A
C518   C570    1.479   .     S
C519   H545    1.081   .     S
C519   C525    1.403   .     A
C520   H546    1.081   .     S
C520   C526    1.403   .     A
C521   C525    1.403   .     A
C521   H547    1.081   .     S
C522   H548    1.081   .     S
C522   C526    1.403   .     A
C523   O555    1.283   .     A
C523   O558    1.283   .     A
C523   C527    1.365   .     S
C524   C528    1.365   .     S
C524   O556    1.283   .     A
C524   O557    1.283   .     A
C525   C654    1.521   1_545 S
C526   C653    1.521   .     S
C528   C15     1.165   1_556 S
C529   H541    1.083   .     S
C529   C539    1.400   .     A
C529   C533    1.383   .     A
C530   H542    1.084   .     S
C530   C540    1.399   .     A
C530   C534    1.382   .     A
C531   C535    1.383   .     A
C531   H543    1.084   .     S
C531   C540    1.400   .     A
C532   C539    1.399   .     A
C532   H544    1.083   .     S
C532   C536    1.382   .     A
C533   Cl573   1.764   .     S
C533   C537    1.402   .     A
C534   Cl574   1.762   .     S
C534   C538    1.402   .     A
C535   Cl575   1.764   .     S
C535   C538    1.402   .     A
C536   C537    1.402   .     A
C536   Cl576   1.762   .     S
C539   C604    1.449   1_455 S
C540   C603    1.449   .     S
N549   Zn560   2.026   .     S
N550   Zn559   2.026   .     S
O551   Zn559   1.996   .     S
O552   Zn560   1.996   .     S
O553   Zn559   1.996   .     S
O554   Zn560   1.996   .     S
O555   Zn559   1.947   .     S
O556   Zn560   1.947   .     S
O557   Zn559   1.947   .     S
O558   Zn560   1.947   .     S
C561   H562    1.074   .     S
C561   O563    1.221   .     D
C564   O566    1.221   .     D
C564   H565    1.076   .     S
C567   H568    1.073   .     S
C567   O569    1.221   .     D
C570   O572    1.221   .     D
C570   H571    1.076   .     S
C577   C601    1.428   .     S
C577   O615    1.289   .     A
C577   O618    1.293   .     A
C578   C602    1.428   .     S
C578   O617    1.289   .     A
C578   O616    1.293   .     A
C579   C625    1.475   .     S
C579   C583    1.416   .     A
C579   N613    1.380   .     A
C580   C584    1.416   .     A
C580   C628    1.479   .     S
C580   N614    1.380   .     A
C581   N613    1.380   .     A
C581   C585    1.416   .     A
C581   C631    1.475   .     S
C582   C586    1.416   .     A
C582   N614    1.380   .     A
C582   C634    1.479   .     S
C583   H609    1.081   .     S
C583   C589    1.403   .     A
C584   H610    1.081   .     S
C584   C590    1.403   .     A
C585   C589    1.403   .     A
C585   H611    1.081   .     S
C586   H612    1.081   .     S
C586   C590    1.403   .     A
C587   O619    1.283   .     A
C587   O622    1.283   .     A
C587   C591    1.365   .     S
C588   C592    1.365   .     S
C588   O620    1.283   .     A
C588   O621    1.283   .     A
C589   C718    1.521   1_545 S
C590   C717    1.521   .     S
C592   C79     1.165   1_556 S
C593   H605    1.083   .     S
C593   C603    1.400   .     A
C593   C597    1.383   .     A
C594   H606    1.084   .     S
C594   C604    1.399   .     A
C594   C598    1.382   .     A
C595   C599    1.383   .     A
C595   H607    1.084   .     S
C595   C604    1.400   .     A
C596   C603    1.399   .     A
C596   H608    1.083   .     S
C596   C600    1.382   .     A
C597   Cl637   1.764   .     S
C597   C601    1.402   .     A
C598   Cl638   1.762   .     S
C598   C602    1.402   .     A
C599   Cl639   1.764   .     S
C599   C602    1.402   .     A
C600   C601    1.402   .     A
C600   Cl640   1.762   .     S
C604   C539    1.449   1_655 S
N613   Zn624   2.026   .     S
N614   Zn623   2.026   .     S
O615   Zn623   1.996   .     S
O616   Zn624   1.996   .     S
O617   Zn623   1.996   .     S
O618   Zn624   1.996   .     S
O619   Zn623   1.947   .     S
O620   Zn624   1.947   .     S
O621   Zn623   1.947   .     S
O622   Zn624   1.947   .     S
C625   H626    1.074   .     S
C625   O627    1.221   .     D
C628   O630    1.221   .     D
C628   H629    1.076   .     S
C631   H632    1.073   .     S
C631   O633    1.221   .     D
C634   O636    1.221   .     D
C634   H635    1.076   .     S
C641   C665    1.428   .     S
C641   O679    1.289   .     A
C641   O682    1.293   .     A
C642   C666    1.428   .     S
C642   O681    1.289   .     A
C642   O680    1.293   .     A
C643   C689    1.475   .     S
C643   C647    1.416   .     A
C643   N677    1.380   .     A
C644   C648    1.416   .     A
C644   C692    1.479   .     S
C644   N678    1.380   .     A
C645   N677    1.380   .     A
C645   C649    1.416   .     A
C645   C695    1.475   .     S
C646   C650    1.416   .     A
C646   N678    1.380   .     A
C646   C698    1.479   .     S
C647   H673    1.081   .     S
C647   C653    1.403   .     A
C648   H674    1.081   .     S
C648   C654    1.403   .     A
C649   C653    1.403   .     A
C649   H675    1.081   .     S
C650   H676    1.081   .     S
C650   C654    1.403   .     A
C651   O683    1.283   .     A
C651   O686    1.283   .     A
C651   C655    1.365   .     S
C652   C656    1.365   .     S
C652   O684    1.283   .     A
C652   O685    1.283   .     A
C654   C525    1.521   1_565 S
C656   C143    1.165   1_556 S
C657   H669    1.083   .     S
C657   C667    1.400   .     A
C657   C661    1.383   .     A
C658   H670    1.084   .     S
C658   C668    1.399   .     A
C658   C662    1.382   .     A
C659   C663    1.383   .     A
C659   H671    1.084   .     S
C659   C668    1.400   .     A
C660   C667    1.399   .     A
C660   H672    1.083   .     S
C660   C664    1.382   .     A
C661   Cl701   1.764   .     S
C661   C665    1.402   .     A
C662   Cl702   1.762   .     S
C662   C666    1.402   .     A
C663   Cl703   1.764   .     S
C663   C666    1.402   .     A
C664   C665    1.402   .     A
C664   Cl704   1.762   .     S
C667   C732    1.449   1_455 S
C668   C731    1.449   .     S
N677   Zn688   2.026   .     S
N678   Zn687   2.026   .     S
O679   Zn687   1.996   .     S
O680   Zn688   1.996   .     S
O681   Zn687   1.996   .     S
O682   Zn688   1.996   .     S
O683   Zn687   1.947   .     S
O684   Zn688   1.947   .     S
O685   Zn687   1.947   .     S
O686   Zn688   1.947   .     S
C689   H690    1.074   .     S
C689   O691    1.221   .     D
C692   O694    1.221   .     D
C692   H693    1.076   .     S
C695   H696    1.073   .     S
C695   O697    1.221   .     D
C698   O700    1.221   .     D
C698   H699    1.076   .     S
C705   C729    1.428   .     S
C705   O743    1.289   .     A
C705   O746    1.293   .     A
C706   C730    1.428   .     S
C706   O745    1.289   .     A
C706   O744    1.293   .     A
C707   C753    1.475   .     S
C707   C711    1.416   .     A
C707   N741    1.380   .     A
C708   C712    1.416   .     A
C708   C756    1.479   .     S
C708   N742    1.380   .     A
C709   N741    1.380   .     A
C709   C713    1.416   .     A
C709   C759    1.475   .     S
C710   C714    1.416   .     A
C710   N742    1.380   .     A
C710   C762    1.479   .     S
C711   H737    1.081   .     S
C711   C717    1.403   .     A
C712   H738    1.081   .     S
C712   C718    1.403   .     A
C713   C717    1.403   .     A
C713   H739    1.081   .     S
C714   H740    1.081   .     S
C714   C718    1.403   .     A
C715   O747    1.283   .     A
C715   O750    1.283   .     A
C715   C719    1.365   .     S
C716   C720    1.365   .     S
C716   O748    1.283   .     A
C716   O749    1.283   .     A
C718   C589    1.521   1_565 S
C720   C207    1.165   1_556 S
C721   H733    1.083   .     S
C721   C731    1.400   .     A
C721   C725    1.383   .     A
C722   H734    1.084   .     S
C722   C732    1.399   .     A
C722   C726    1.382   .     A
C723   C727    1.383   .     A
C723   H735    1.084   .     S
C723   C732    1.400   .     A
C724   C731    1.399   .     A
C724   H736    1.083   .     S
C724   C728    1.382   .     A
C725   Cl765   1.764   .     S
C725   C729    1.402   .     A
C726   Cl766   1.762   .     S
C726   C730    1.402   .     A
C727   Cl767   1.764   .     S
C727   C730    1.402   .     A
C728   C729    1.402   .     A
C728   Cl768   1.762   .     S
C732   C667    1.449   1_655 S
N741   Zn752   2.026   .     S
N742   Zn751   2.026   .     S
O743   Zn751   1.996   .     S
O744   Zn752   1.996   .     S
O745   Zn751   1.996   .     S
O746   Zn752   1.996   .     S
O747   Zn751   1.947   .     S
O748   Zn752   1.947   .     S
O749   Zn751   1.947   .     S
O750   Zn752   1.947   .     S
C753   H754    1.074   .     S
C753   O755    1.221   .     D
C756   O758    1.221   .     D
C756   H757    1.076   .     S
C759   H760    1.073   .     S
C759   O761    1.221   .     D
C762   O764    1.221   .     D
C762   H763    1.076   .     S
