data_str_m3_o2_o10_pcu_sym.145
_audit_creation_date              2020-01-03
_audit_creation_method            'Materials Studio'
_symmetry_space_group_name_H-M    'P1'
_symmetry_Int_Tables_number       1
_symmetry_cell_setting            triclinic
loop_
_symmetry_equiv_pos_as_xyz
  x,y,z
_cell_length_a                    25.7824
_cell_length_b                    30.0224
_cell_length_c                    28.3442
_cell_angle_alpha                 90.0096
_cell_angle_beta                  98.6527
_cell_angle_gamma                 90.0334
loop_
_atom_site_label
_atom_site_type_symbol
_atom_site_fract_x
_atom_site_fract_y
_atom_site_fract_z
_atom_site_U_iso_or_equiv
_atom_site_adp_type
_atom_site_occupancy
C1     C     0.16664   0.16388   0.24999   0.00000  Uiso   1.00
C2     C     0.16668   0.33611   0.25000   0.00000  Uiso   1.00
C3     C     0.14298   0.21532   0.04936   0.00000  Uiso   1.00
C4     C     0.20837   0.26892   0.45309   0.00000  Uiso   1.00
C5     C     0.14326   0.21604   0.09902   0.00000  Uiso   1.00
C6     C     0.20748   0.26869   0.40334   0.00000  Uiso   1.00
C7     C     0.19015   0.28392   0.10547   0.00000  Uiso   1.00
C8     C     0.12590   0.23131   0.39222   0.00000  Uiso   1.00
C9     C     0.19051   0.28464   0.05590   0.00000  Uiso   1.00
C10    C     0.12506   0.23109   0.44172   0.00000  Uiso   1.00
C11    C     0.16675   0.24998   0.02670   0.00000  Uiso   1.00
C12    C     0.16673   0.25000   0.47334   0.00000  Uiso   1.00
C13    C     0.06700   0.25000   0.23753   0.00000  Uiso   1.00
C14    C     0.26633   0.25002   0.26247   0.00000  Uiso   1.00
C15    C     0.01198   0.25002   0.23081   0.00000  Uiso   1.00
C16    C     0.32135   0.25003   0.26921   0.00000  Uiso   1.00
C17    C     0.18478   0.04704   0.29210   0.00000  Uiso   1.00
C18    C     0.18508   0.45295   0.21288   0.00000  Uiso   1.00
C19    C     0.18452   0.09301   0.29220   0.00000  Uiso   1.00
C20    C     0.18486   0.40696   0.21276   0.00000  Uiso   1.00
C21    C     0.16659   0.11600   0.24996   0.00000  Uiso   1.00
C22    C     0.16666   0.38399   0.24998   0.00000  Uiso   1.00
C23    C     0.14863   0.09303   0.20770   0.00000  Uiso   1.00
C24    C     0.14839   0.40696   0.28715   0.00000  Uiso   1.00
C25    C     0.14832   0.04705   0.20775   0.00000  Uiso   1.00
C26    C     0.14803   0.45294   0.28696   0.00000  Uiso   1.00
C27    C     0.16654   0.02404   0.24992   0.00000  Uiso   1.00
C28    C     0.16653   0.47594   0.24991   0.00000  Uiso   1.00
H29    H     0.32468   0.25003   0.19438   0.00000  Uiso   1.00
H30    H     0.00865   0.25004   0.30564   0.00000  Uiso   1.00
H31    H     0.19965   0.02944   0.32472   0.00000  Uiso   1.00
H32    H     0.20016   0.47055   0.18444   0.00000  Uiso   1.00
H33    H     0.13424   0.11056   0.17492   0.00000  Uiso   1.00
H34    H     0.13378   0.38944   0.31588   0.00000  Uiso   1.00
H35    H     0.13345   0.02945   0.17512   0.00000  Uiso   1.00
H36    H     0.13292   0.47053   0.31538   0.00000  Uiso   1.00
H37    H     0.12486   0.18738   0.02910   0.00000  Uiso   1.00
H38    H     0.24193   0.28330   0.47543   0.00000  Uiso   1.00
H39    H     0.20861   0.31072   0.12738   0.00000  Uiso   1.00
H40    H     0.09369   0.21654   0.36851   0.00000  Uiso   1.00
H41    H     0.20867   0.31257   0.04063   0.00000  Uiso   1.00
H42    H     0.09153   0.21669   0.45491   0.00000  Uiso   1.00
N43    N     0.16667   0.24999   0.12623   0.00000  Uiso   1.00
N44    N     0.16667   0.25001   0.37376   0.00000  Uiso   1.00
O45    O     0.16667   0.18453   0.28974   0.00000  Uiso   1.00
O46    O     0.16666   0.31546   0.21026   0.00000  Uiso   1.00
O47    O     0.16667   0.18453   0.21026   0.00000  Uiso   1.00
O48    O     0.16666   0.31547   0.28974   0.00000  Uiso   1.00
O49    O     0.09058   0.25000   0.28044   0.00000  Uiso   1.00
O50    O     0.24275   0.25000   0.21955   0.00000  Uiso   1.00
O51    O     0.09058   0.24999   0.20096   0.00000  Uiso   1.00
O52    O     0.24275   0.25000   0.29903   0.00000  Uiso   1.00
Zn53   Zn    0.16667   0.25000   0.30307   0.00000  Uiso   1.00
Zn54   Zn    0.16667   0.24999   0.19693   0.00000  Uiso   1.00
H55    H     0.19894   0.11053   0.32499   0.00000  Uiso   1.00
H56    H     0.19952   0.38944   0.18405   0.00000  Uiso   1.00
H57    H     0.12481   0.18923   0.11585   0.00000  Uiso   1.00
H58    H     0.23970   0.28338   0.38837   0.00000  Uiso   1.00
C59    C     0.49998   0.16388   0.24999   0.00000  Uiso   1.00
C60    C     0.50002   0.33611   0.25000   0.00000  Uiso   1.00
C61    C     0.47631   0.21532   0.04936   0.00000  Uiso   1.00
C62    C     0.54170   0.26892   0.45309   0.00000  Uiso   1.00
C63    C     0.47660   0.21604   0.09902   0.00000  Uiso   1.00
C64    C     0.54081   0.26869   0.40334   0.00000  Uiso   1.00
C65    C     0.52348   0.28392   0.10547   0.00000  Uiso   1.00
C66    C     0.45923   0.23131   0.39222   0.00000  Uiso   1.00
C67    C     0.52384   0.28464   0.05590   0.00000  Uiso   1.00
C68    C     0.45839   0.23109   0.44172   0.00000  Uiso   1.00
C69    C     0.50008   0.24998   0.02670   0.00000  Uiso   1.00
C70    C     0.50006   0.25000   0.47334   0.00000  Uiso   1.00
C71    C     0.40033   0.25000   0.23753   0.00000  Uiso   1.00
C72    C     0.59967   0.25002   0.26247   0.00000  Uiso   1.00
C73    C     0.34532   0.25002   0.23081   0.00000  Uiso   1.00
C74    C     0.65468   0.25003   0.26921   0.00000  Uiso   1.00
C75    C     0.51812   0.04704   0.29210   0.00000  Uiso   1.00
C76    C     0.51842   0.45295   0.21288   0.00000  Uiso   1.00
C77    C     0.51785   0.09301   0.29220   0.00000  Uiso   1.00
C78    C     0.51819   0.40696   0.21276   0.00000  Uiso   1.00
C79    C     0.49993   0.11600   0.24996   0.00000  Uiso   1.00
C80    C     0.49999   0.38399   0.24998   0.00000  Uiso   1.00
C81    C     0.48197   0.09303   0.20770   0.00000  Uiso   1.00
C82    C     0.48173   0.40696   0.28715   0.00000  Uiso   1.00
C83    C     0.48165   0.04705   0.20775   0.00000  Uiso   1.00
C84    C     0.48137   0.45294   0.28696   0.00000  Uiso   1.00
C85    C     0.49987   0.02404   0.24992   0.00000  Uiso   1.00
C86    C     0.49987   0.47594   0.24991   0.00000  Uiso   1.00
H87    H     0.65801   0.25003   0.19438   0.00000  Uiso   1.00
H88    H     0.34198   0.25004   0.30564   0.00000  Uiso   1.00
H89    H     0.53298   0.02944   0.32472   0.00000  Uiso   1.00
H90    H     0.53349   0.47055   0.18444   0.00000  Uiso   1.00
H91    H     0.46757   0.11056   0.17492   0.00000  Uiso   1.00
H92    H     0.46711   0.38944   0.31588   0.00000  Uiso   1.00
H93    H     0.46679   0.02945   0.17512   0.00000  Uiso   1.00
H94    H     0.46625   0.47053   0.31538   0.00000  Uiso   1.00
H95    H     0.45819   0.18738   0.02910   0.00000  Uiso   1.00
H96    H     0.57526   0.28330   0.47543   0.00000  Uiso   1.00
H97    H     0.54194   0.31072   0.12738   0.00000  Uiso   1.00
H98    H     0.42702   0.21654   0.36851   0.00000  Uiso   1.00
H99    H     0.54200   0.31257   0.04063   0.00000  Uiso   1.00
H100   H     0.42486   0.21669   0.45491   0.00000  Uiso   1.00
N101   N     0.50000   0.24999   0.12623   0.00000  Uiso   1.00
N102   N     0.50000   0.25001   0.37376   0.00000  Uiso   1.00
O103   O     0.50000   0.18453   0.28974   0.00000  Uiso   1.00
O104   O     0.50000   0.31546   0.21026   0.00000  Uiso   1.00
O105   O     0.50000   0.18453   0.21026   0.00000  Uiso   1.00
O106   O     0.50000   0.31547   0.28974   0.00000  Uiso   1.00
O107   O     0.42392   0.25000   0.28044   0.00000  Uiso   1.00
O108   O     0.57608   0.25000   0.21955   0.00000  Uiso   1.00
O109   O     0.42392   0.24999   0.20096   0.00000  Uiso   1.00
O110   O     0.57608   0.25000   0.29903   0.00000  Uiso   1.00
Zn111  Zn    0.50000   0.25000   0.30307   0.00000  Uiso   1.00
Zn112  Zn    0.50000   0.24999   0.19693   0.00000  Uiso   1.00
H113   H     0.53227   0.11053   0.32499   0.00000  Uiso   1.00
H114   H     0.53285   0.38944   0.18405   0.00000  Uiso   1.00
H115   H     0.45815   0.18923   0.11585   0.00000  Uiso   1.00
H116   H     0.57303   0.28338   0.38837   0.00000  Uiso   1.00
C117   C     0.83331   0.16388   0.24999   0.00000  Uiso   1.00
C118   C     0.83335   0.33611   0.25000   0.00000  Uiso   1.00
C119   C     0.80965   0.21532   0.04936   0.00000  Uiso   1.00
C120   C     0.87504   0.26892   0.45309   0.00000  Uiso   1.00
C121   C     0.80993   0.21604   0.09902   0.00000  Uiso   1.00
C122   C     0.87415   0.26869   0.40334   0.00000  Uiso   1.00
C123   C     0.85682   0.28392   0.10547   0.00000  Uiso   1.00
C124   C     0.79257   0.23131   0.39222   0.00000  Uiso   1.00
C125   C     0.85717   0.28464   0.05590   0.00000  Uiso   1.00
C126   C     0.79173   0.23109   0.44172   0.00000  Uiso   1.00
C127   C     0.83341   0.24998   0.02670   0.00000  Uiso   1.00
C128   C     0.83339   0.25000   0.47334   0.00000  Uiso   1.00
C129   C     0.73367   0.25000   0.23753   0.00000  Uiso   1.00
C130   C     0.93300   0.25002   0.26247   0.00000  Uiso   1.00
C131   C     0.67865   0.25002   0.23081   0.00000  Uiso   1.00
C132   C     0.98802   0.25003   0.26921   0.00000  Uiso   1.00
C133   C     0.85145   0.04704   0.29210   0.00000  Uiso   1.00
C134   C     0.85175   0.45295   0.21288   0.00000  Uiso   1.00
C135   C     0.85118   0.09301   0.29220   0.00000  Uiso   1.00
C136   C     0.85153   0.40696   0.21276   0.00000  Uiso   1.00
C137   C     0.83326   0.11600   0.24996   0.00000  Uiso   1.00
C138   C     0.83333   0.38399   0.24998   0.00000  Uiso   1.00
C139   C     0.81530   0.09303   0.20770   0.00000  Uiso   1.00
C140   C     0.81506   0.40696   0.28715   0.00000  Uiso   1.00
C141   C     0.81499   0.04705   0.20775   0.00000  Uiso   1.00
C142   C     0.81470   0.45294   0.28696   0.00000  Uiso   1.00
C143   C     0.83320   0.02404   0.24992   0.00000  Uiso   1.00
C144   C     0.83320   0.47594   0.24991   0.00000  Uiso   1.00
H145   H     0.99135   0.25003   0.19438   0.00000  Uiso   1.00
H146   H     0.67531   0.25004   0.30564   0.00000  Uiso   1.00
H147   H     0.86631   0.02944   0.32472   0.00000  Uiso   1.00
H148   H     0.86682   0.47055   0.18444   0.00000  Uiso   1.00
H149   H     0.80090   0.11056   0.17492   0.00000  Uiso   1.00
H150   H     0.80045   0.38944   0.31588   0.00000  Uiso   1.00
H151   H     0.80012   0.02945   0.17512   0.00000  Uiso   1.00
H152   H     0.79959   0.47053   0.31538   0.00000  Uiso   1.00
H153   H     0.79153   0.18738   0.02910   0.00000  Uiso   1.00
H154   H     0.90859   0.28330   0.47543   0.00000  Uiso   1.00
H155   H     0.87528   0.31072   0.12738   0.00000  Uiso   1.00
H156   H     0.76035   0.21654   0.36851   0.00000  Uiso   1.00
H157   H     0.87533   0.31257   0.04063   0.00000  Uiso   1.00
H158   H     0.75819   0.21669   0.45491   0.00000  Uiso   1.00
N159   N     0.83333   0.24999   0.12623   0.00000  Uiso   1.00
N160   N     0.83333   0.25001   0.37376   0.00000  Uiso   1.00
O161   O     0.83334   0.18453   0.28974   0.00000  Uiso   1.00
O162   O     0.83333   0.31546   0.21026   0.00000  Uiso   1.00
O163   O     0.83334   0.18453   0.21026   0.00000  Uiso   1.00
O164   O     0.83333   0.31547   0.28974   0.00000  Uiso   1.00
O165   O     0.75725   0.25000   0.28044   0.00000  Uiso   1.00
O166   O     0.90942   0.25000   0.21955   0.00000  Uiso   1.00
O167   O     0.75725   0.24999   0.20096   0.00000  Uiso   1.00
O168   O     0.90942   0.25000   0.29903   0.00000  Uiso   1.00
Zn169  Zn    0.83333   0.25000   0.30307   0.00000  Uiso   1.00
Zn170  Zn    0.83333   0.24999   0.19693   0.00000  Uiso   1.00
H171   H     0.86560   0.11053   0.32499   0.00000  Uiso   1.00
H172   H     0.86619   0.38944   0.18405   0.00000  Uiso   1.00
H173   H     0.79148   0.18923   0.11585   0.00000  Uiso   1.00
H174   H     0.90637   0.28338   0.38837   0.00000  Uiso   1.00
C175   C     0.16664   0.66388   0.24999   0.00000  Uiso   1.00
C176   C     0.16668   0.83611   0.25000   0.00000  Uiso   1.00
C177   C     0.14298   0.71532   0.04936   0.00000  Uiso   1.00
C178   C     0.20837   0.76892   0.45309   0.00000  Uiso   1.00
C179   C     0.14326   0.71604   0.09902   0.00000  Uiso   1.00
C180   C     0.20748   0.76869   0.40334   0.00000  Uiso   1.00
C181   C     0.19015   0.78392   0.10547   0.00000  Uiso   1.00
C182   C     0.12590   0.73131   0.39222   0.00000  Uiso   1.00
C183   C     0.19051   0.78464   0.05590   0.00000  Uiso   1.00
C184   C     0.12506   0.73109   0.44172   0.00000  Uiso   1.00
C185   C     0.16675   0.74998   0.02670   0.00000  Uiso   1.00
C186   C     0.16673   0.75000   0.47334   0.00000  Uiso   1.00
C187   C     0.06700   0.75000   0.23753   0.00000  Uiso   1.00
C188   C     0.26633   0.75002   0.26247   0.00000  Uiso   1.00
C189   C     0.01198   0.75002   0.23081   0.00000  Uiso   1.00
C190   C     0.32135   0.75003   0.26921   0.00000  Uiso   1.00
C191   C     0.18478   0.54704   0.29210   0.00000  Uiso   1.00
C192   C     0.18508   0.95295   0.21288   0.00000  Uiso   1.00
C193   C     0.18452   0.59301   0.29220   0.00000  Uiso   1.00
C194   C     0.18486   0.90696   0.21276   0.00000  Uiso   1.00
C195   C     0.16659   0.61600   0.24996   0.00000  Uiso   1.00
C196   C     0.16666   0.88399   0.24998   0.00000  Uiso   1.00
C197   C     0.14863   0.59303   0.20770   0.00000  Uiso   1.00
C198   C     0.14839   0.90696   0.28715   0.00000  Uiso   1.00
C199   C     0.14832   0.54705   0.20775   0.00000  Uiso   1.00
C200   C     0.14803   0.95294   0.28696   0.00000  Uiso   1.00
C201   C     0.16654   0.52404   0.24992   0.00000  Uiso   1.00
C202   C     0.16653   0.97594   0.24991   0.00000  Uiso   1.00
H203   H     0.32468   0.75003   0.19438   0.00000  Uiso   1.00
H204   H     0.00865   0.75004   0.30564   0.00000  Uiso   1.00
H205   H     0.19965   0.52944   0.32472   0.00000  Uiso   1.00
H206   H     0.20016   0.97055   0.18444   0.00000  Uiso   1.00
H207   H     0.13424   0.61056   0.17492   0.00000  Uiso   1.00
H208   H     0.13378   0.88944   0.31588   0.00000  Uiso   1.00
H209   H     0.13345   0.52945   0.17512   0.00000  Uiso   1.00
H210   H     0.13292   0.97053   0.31538   0.00000  Uiso   1.00
H211   H     0.12486   0.68738   0.02910   0.00000  Uiso   1.00
H212   H     0.24193   0.78330   0.47543   0.00000  Uiso   1.00
H213   H     0.20861   0.81072   0.12738   0.00000  Uiso   1.00
H214   H     0.09369   0.71654   0.36851   0.00000  Uiso   1.00
H215   H     0.20867   0.81257   0.04063   0.00000  Uiso   1.00
H216   H     0.09153   0.71669   0.45491   0.00000  Uiso   1.00
N217   N     0.16667   0.74999   0.12623   0.00000  Uiso   1.00
N218   N     0.16667   0.75001   0.37376   0.00000  Uiso   1.00
O219   O     0.16667   0.68453   0.28974   0.00000  Uiso   1.00
O220   O     0.16666   0.81546   0.21026   0.00000  Uiso   1.00
O221   O     0.16667   0.68453   0.21026   0.00000  Uiso   1.00
O222   O     0.16666   0.81547   0.28974   0.00000  Uiso   1.00
O223   O     0.09058   0.75000   0.28044   0.00000  Uiso   1.00
O224   O     0.24275   0.75000   0.21955   0.00000  Uiso   1.00
O225   O     0.09058   0.74999   0.20096   0.00000  Uiso   1.00
O226   O     0.24275   0.75000   0.29903   0.00000  Uiso   1.00
Zn227  Zn    0.16667   0.75000   0.30307   0.00000  Uiso   1.00
Zn228  Zn    0.16667   0.74999   0.19693   0.00000  Uiso   1.00
H229   H     0.19894   0.61053   0.32499   0.00000  Uiso   1.00
H230   H     0.19952   0.88944   0.18405   0.00000  Uiso   1.00
H231   H     0.12481   0.68923   0.11585   0.00000  Uiso   1.00
H232   H     0.23970   0.78338   0.38837   0.00000  Uiso   1.00
C233   C     0.49998   0.66388   0.24999   0.00000  Uiso   1.00
C234   C     0.50002   0.83611   0.25000   0.00000  Uiso   1.00
C235   C     0.47631   0.71532   0.04936   0.00000  Uiso   1.00
C236   C     0.54170   0.76892   0.45309   0.00000  Uiso   1.00
C237   C     0.47660   0.71604   0.09902   0.00000  Uiso   1.00
C238   C     0.54081   0.76869   0.40334   0.00000  Uiso   1.00
C239   C     0.52348   0.78392   0.10547   0.00000  Uiso   1.00
C240   C     0.45923   0.73131   0.39222   0.00000  Uiso   1.00
C241   C     0.52384   0.78464   0.05590   0.00000  Uiso   1.00
C242   C     0.45839   0.73109   0.44172   0.00000  Uiso   1.00
C243   C     0.50008   0.74998   0.02670   0.00000  Uiso   1.00
C244   C     0.50006   0.75000   0.47334   0.00000  Uiso   1.00
C245   C     0.40033   0.75000   0.23753   0.00000  Uiso   1.00
C246   C     0.59967   0.75002   0.26247   0.00000  Uiso   1.00
C247   C     0.34532   0.75002   0.23081   0.00000  Uiso   1.00
C248   C     0.65468   0.75003   0.26921   0.00000  Uiso   1.00
C249   C     0.51812   0.54704   0.29210   0.00000  Uiso   1.00
C250   C     0.51842   0.95295   0.21288   0.00000  Uiso   1.00
C251   C     0.51785   0.59301   0.29220   0.00000  Uiso   1.00
C252   C     0.51819   0.90696   0.21276   0.00000  Uiso   1.00
C253   C     0.49993   0.61600   0.24996   0.00000  Uiso   1.00
C254   C     0.49999   0.88399   0.24998   0.00000  Uiso   1.00
C255   C     0.48197   0.59303   0.20770   0.00000  Uiso   1.00
C256   C     0.48173   0.90696   0.28715   0.00000  Uiso   1.00
C257   C     0.48165   0.54705   0.20775   0.00000  Uiso   1.00
C258   C     0.48137   0.95294   0.28696   0.00000  Uiso   1.00
C259   C     0.49987   0.52404   0.24992   0.00000  Uiso   1.00
C260   C     0.49987   0.97594   0.24991   0.00000  Uiso   1.00
H261   H     0.65801   0.75003   0.19438   0.00000  Uiso   1.00
H262   H     0.34198   0.75004   0.30564   0.00000  Uiso   1.00
H263   H     0.53298   0.52944   0.32472   0.00000  Uiso   1.00
H264   H     0.53349   0.97055   0.18444   0.00000  Uiso   1.00
H265   H     0.46757   0.61056   0.17492   0.00000  Uiso   1.00
H266   H     0.46711   0.88944   0.31588   0.00000  Uiso   1.00
H267   H     0.46679   0.52945   0.17512   0.00000  Uiso   1.00
H268   H     0.46625   0.97053   0.31538   0.00000  Uiso   1.00
H269   H     0.45819   0.68738   0.02910   0.00000  Uiso   1.00
H270   H     0.57526   0.78330   0.47543   0.00000  Uiso   1.00
H271   H     0.54194   0.81072   0.12738   0.00000  Uiso   1.00
H272   H     0.42702   0.71654   0.36851   0.00000  Uiso   1.00
H273   H     0.54200   0.81257   0.04063   0.00000  Uiso   1.00
H274   H     0.42486   0.71669   0.45491   0.00000  Uiso   1.00
N275   N     0.50000   0.74999   0.12623   0.00000  Uiso   1.00
N276   N     0.50000   0.75001   0.37376   0.00000  Uiso   1.00
O277   O     0.50000   0.68453   0.28974   0.00000  Uiso   1.00
O278   O     0.50000   0.81546   0.21026   0.00000  Uiso   1.00
O279   O     0.50000   0.68453   0.21026   0.00000  Uiso   1.00
O280   O     0.50000   0.81547   0.28974   0.00000  Uiso   1.00
O281   O     0.42392   0.75000   0.28044   0.00000  Uiso   1.00
O282   O     0.57608   0.75000   0.21955   0.00000  Uiso   1.00
O283   O     0.42392   0.74999   0.20096   0.00000  Uiso   1.00
O284   O     0.57608   0.75000   0.29903   0.00000  Uiso   1.00
Zn285  Zn    0.50000   0.75000   0.30307   0.00000  Uiso   1.00
Zn286  Zn    0.50000   0.74999   0.19693   0.00000  Uiso   1.00
H287   H     0.53227   0.61053   0.32499   0.00000  Uiso   1.00
H288   H     0.53285   0.88944   0.18405   0.00000  Uiso   1.00
H289   H     0.45815   0.68923   0.11585   0.00000  Uiso   1.00
H290   H     0.57303   0.78338   0.38837   0.00000  Uiso   1.00
C291   C     0.83331   0.66388   0.24999   0.00000  Uiso   1.00
C292   C     0.83335   0.83611   0.25000   0.00000  Uiso   1.00
C293   C     0.80965   0.71532   0.04936   0.00000  Uiso   1.00
C294   C     0.87504   0.76892   0.45309   0.00000  Uiso   1.00
C295   C     0.80993   0.71604   0.09902   0.00000  Uiso   1.00
C296   C     0.87415   0.76869   0.40334   0.00000  Uiso   1.00
C297   C     0.85682   0.78392   0.10547   0.00000  Uiso   1.00
C298   C     0.79257   0.73131   0.39222   0.00000  Uiso   1.00
C299   C     0.85717   0.78464   0.05590   0.00000  Uiso   1.00
C300   C     0.79173   0.73109   0.44172   0.00000  Uiso   1.00
C301   C     0.83341   0.74998   0.02670   0.00000  Uiso   1.00
C302   C     0.83339   0.75000   0.47334   0.00000  Uiso   1.00
C303   C     0.73367   0.75000   0.23753   0.00000  Uiso   1.00
C304   C     0.93300   0.75002   0.26247   0.00000  Uiso   1.00
C305   C     0.67865   0.75002   0.23081   0.00000  Uiso   1.00
C306   C     0.98802   0.75003   0.26921   0.00000  Uiso   1.00
C307   C     0.85145   0.54704   0.29210   0.00000  Uiso   1.00
C308   C     0.85175   0.95295   0.21288   0.00000  Uiso   1.00
C309   C     0.85118   0.59301   0.29220   0.00000  Uiso   1.00
C310   C     0.85153   0.90696   0.21276   0.00000  Uiso   1.00
C311   C     0.83326   0.61600   0.24996   0.00000  Uiso   1.00
C312   C     0.83333   0.88399   0.24998   0.00000  Uiso   1.00
C313   C     0.81530   0.59303   0.20770   0.00000  Uiso   1.00
C314   C     0.81506   0.90696   0.28715   0.00000  Uiso   1.00
C315   C     0.81499   0.54705   0.20775   0.00000  Uiso   1.00
C316   C     0.81470   0.95294   0.28696   0.00000  Uiso   1.00
C317   C     0.83320   0.52404   0.24992   0.00000  Uiso   1.00
C318   C     0.83320   0.97594   0.24991   0.00000  Uiso   1.00
H319   H     0.99135   0.75003   0.19438   0.00000  Uiso   1.00
H320   H     0.67531   0.75004   0.30564   0.00000  Uiso   1.00
H321   H     0.86631   0.52944   0.32472   0.00000  Uiso   1.00
H322   H     0.86682   0.97055   0.18444   0.00000  Uiso   1.00
H323   H     0.80090   0.61056   0.17492   0.00000  Uiso   1.00
H324   H     0.80045   0.88944   0.31588   0.00000  Uiso   1.00
H325   H     0.80012   0.52945   0.17512   0.00000  Uiso   1.00
H326   H     0.79959   0.97053   0.31538   0.00000  Uiso   1.00
H327   H     0.79153   0.68738   0.02910   0.00000  Uiso   1.00
H328   H     0.90859   0.78330   0.47543   0.00000  Uiso   1.00
H329   H     0.87528   0.81072   0.12738   0.00000  Uiso   1.00
H330   H     0.76035   0.71654   0.36851   0.00000  Uiso   1.00
H331   H     0.87533   0.81257   0.04063   0.00000  Uiso   1.00
H332   H     0.75819   0.71669   0.45491   0.00000  Uiso   1.00
N333   N     0.83333   0.74999   0.12623   0.00000  Uiso   1.00
N334   N     0.83333   0.75001   0.37376   0.00000  Uiso   1.00
O335   O     0.83334   0.68453   0.28974   0.00000  Uiso   1.00
O336   O     0.83333   0.81546   0.21026   0.00000  Uiso   1.00
O337   O     0.83334   0.68453   0.21026   0.00000  Uiso   1.00
O338   O     0.83333   0.81547   0.28974   0.00000  Uiso   1.00
O339   O     0.75725   0.75000   0.28044   0.00000  Uiso   1.00
O340   O     0.90942   0.75000   0.21955   0.00000  Uiso   1.00
O341   O     0.75725   0.74999   0.20096   0.00000  Uiso   1.00
O342   O     0.90942   0.75000   0.29903   0.00000  Uiso   1.00
Zn343  Zn    0.83333   0.75000   0.30307   0.00000  Uiso   1.00
Zn344  Zn    0.83333   0.74999   0.19693   0.00000  Uiso   1.00
H345   H     0.86560   0.61053   0.32499   0.00000  Uiso   1.00
H346   H     0.86619   0.88944   0.18405   0.00000  Uiso   1.00
H347   H     0.79148   0.68923   0.11585   0.00000  Uiso   1.00
H348   H     0.90637   0.78338   0.38837   0.00000  Uiso   1.00
C349   C     0.16664   0.16388   0.74999   0.00000  Uiso   1.00
C350   C     0.16668   0.33611   0.75000   0.00000  Uiso   1.00
C351   C     0.14298   0.21532   0.54936   0.00000  Uiso   1.00
C352   C     0.20837   0.26892   0.95309   0.00000  Uiso   1.00
C353   C     0.14326   0.21604   0.59902   0.00000  Uiso   1.00
C354   C     0.20748   0.26869   0.90334   0.00000  Uiso   1.00
C355   C     0.19015   0.28392   0.60547   0.00000  Uiso   1.00
C356   C     0.12590   0.23131   0.89222   0.00000  Uiso   1.00
C357   C     0.19051   0.28464   0.55590   0.00000  Uiso   1.00
C358   C     0.12506   0.23109   0.94172   0.00000  Uiso   1.00
C359   C     0.16675   0.24998   0.52670   0.00000  Uiso   1.00
C360   C     0.16673   0.25000   0.97334   0.00000  Uiso   1.00
C361   C     0.06700   0.25000   0.73753   0.00000  Uiso   1.00
C362   C     0.26633   0.25002   0.76247   0.00000  Uiso   1.00
C363   C     0.01198   0.25002   0.73081   0.00000  Uiso   1.00
C364   C     0.32135   0.25003   0.76921   0.00000  Uiso   1.00
C365   C     0.18478   0.04704   0.79210   0.00000  Uiso   1.00
C366   C     0.18508   0.45295   0.71288   0.00000  Uiso   1.00
C367   C     0.18452   0.09301   0.79220   0.00000  Uiso   1.00
C368   C     0.18486   0.40696   0.71276   0.00000  Uiso   1.00
C369   C     0.16659   0.11600   0.74996   0.00000  Uiso   1.00
C370   C     0.16666   0.38399   0.74998   0.00000  Uiso   1.00
C371   C     0.14863   0.09303   0.70770   0.00000  Uiso   1.00
C372   C     0.14839   0.40696   0.78715   0.00000  Uiso   1.00
C373   C     0.14832   0.04705   0.70775   0.00000  Uiso   1.00
C374   C     0.14803   0.45294   0.78696   0.00000  Uiso   1.00
C375   C     0.16654   0.02404   0.74992   0.00000  Uiso   1.00
C376   C     0.16653   0.47594   0.74991   0.00000  Uiso   1.00
H377   H     0.32468   0.25003   0.69438   0.00000  Uiso   1.00
H378   H     0.00865   0.25004   0.80564   0.00000  Uiso   1.00
H379   H     0.19965   0.02944   0.82472   0.00000  Uiso   1.00
H380   H     0.20016   0.47055   0.68444   0.00000  Uiso   1.00
H381   H     0.13424   0.11056   0.67492   0.00000  Uiso   1.00
H382   H     0.13378   0.38944   0.81588   0.00000  Uiso   1.00
H383   H     0.13345   0.02945   0.67512   0.00000  Uiso   1.00
H384   H     0.13292   0.47053   0.81538   0.00000  Uiso   1.00
H385   H     0.12486   0.18738   0.52910   0.00000  Uiso   1.00
H386   H     0.24193   0.28330   0.97543   0.00000  Uiso   1.00
H387   H     0.20861   0.31072   0.62738   0.00000  Uiso   1.00
H388   H     0.09369   0.21654   0.86851   0.00000  Uiso   1.00
H389   H     0.20867   0.31257   0.54063   0.00000  Uiso   1.00
H390   H     0.09153   0.21669   0.95491   0.00000  Uiso   1.00
N391   N     0.16667   0.24999   0.62623   0.00000  Uiso   1.00
N392   N     0.16667   0.25001   0.87376   0.00000  Uiso   1.00
O393   O     0.16667   0.18453   0.78974   0.00000  Uiso   1.00
O394   O     0.16666   0.31546   0.71026   0.00000  Uiso   1.00
O395   O     0.16667   0.18453   0.71026   0.00000  Uiso   1.00
O396   O     0.16666   0.31547   0.78974   0.00000  Uiso   1.00
O397   O     0.09058   0.25000   0.78044   0.00000  Uiso   1.00
O398   O     0.24275   0.25000   0.71955   0.00000  Uiso   1.00
O399   O     0.09058   0.24999   0.70096   0.00000  Uiso   1.00
O400   O     0.24275   0.25000   0.79903   0.00000  Uiso   1.00
Zn401  Zn    0.16667   0.25000   0.80307   0.00000  Uiso   1.00
Zn402  Zn    0.16667   0.24999   0.69693   0.00000  Uiso   1.00
H403   H     0.19894   0.11053   0.82499   0.00000  Uiso   1.00
H404   H     0.19952   0.38944   0.68405   0.00000  Uiso   1.00
H405   H     0.12481   0.18923   0.61585   0.00000  Uiso   1.00
H406   H     0.23970   0.28338   0.88837   0.00000  Uiso   1.00
C407   C     0.49998   0.16388   0.74999   0.00000  Uiso   1.00
C408   C     0.50002   0.33611   0.75000   0.00000  Uiso   1.00
C409   C     0.47631   0.21532   0.54936   0.00000  Uiso   1.00
C410   C     0.54170   0.26892   0.95309   0.00000  Uiso   1.00
C411   C     0.47660   0.21604   0.59902   0.00000  Uiso   1.00
C412   C     0.54081   0.26869   0.90334   0.00000  Uiso   1.00
C413   C     0.52348   0.28392   0.60547   0.00000  Uiso   1.00
C414   C     0.45923   0.23131   0.89222   0.00000  Uiso   1.00
C415   C     0.52384   0.28464   0.55590   0.00000  Uiso   1.00
C416   C     0.45839   0.23109   0.94172   0.00000  Uiso   1.00
C417   C     0.50008   0.24998   0.52670   0.00000  Uiso   1.00
C418   C     0.50006   0.25000   0.97334   0.00000  Uiso   1.00
C419   C     0.40033   0.25000   0.73753   0.00000  Uiso   1.00
C420   C     0.59967   0.25002   0.76247   0.00000  Uiso   1.00
C421   C     0.34532   0.25002   0.73081   0.00000  Uiso   1.00
C422   C     0.65468   0.25003   0.76921   0.00000  Uiso   1.00
C423   C     0.51812   0.04704   0.79210   0.00000  Uiso   1.00
C424   C     0.51842   0.45295   0.71288   0.00000  Uiso   1.00
C425   C     0.51785   0.09301   0.79220   0.00000  Uiso   1.00
C426   C     0.51819   0.40696   0.71276   0.00000  Uiso   1.00
C427   C     0.49993   0.11600   0.74996   0.00000  Uiso   1.00
C428   C     0.49999   0.38399   0.74998   0.00000  Uiso   1.00
C429   C     0.48197   0.09303   0.70770   0.00000  Uiso   1.00
C430   C     0.48173   0.40696   0.78715   0.00000  Uiso   1.00
C431   C     0.48165   0.04705   0.70775   0.00000  Uiso   1.00
C432   C     0.48137   0.45294   0.78696   0.00000  Uiso   1.00
C433   C     0.49987   0.02404   0.74992   0.00000  Uiso   1.00
C434   C     0.49987   0.47594   0.74991   0.00000  Uiso   1.00
H435   H     0.65801   0.25003   0.69438   0.00000  Uiso   1.00
H436   H     0.34198   0.25004   0.80564   0.00000  Uiso   1.00
H437   H     0.53298   0.02944   0.82472   0.00000  Uiso   1.00
H438   H     0.53349   0.47055   0.68444   0.00000  Uiso   1.00
H439   H     0.46757   0.11056   0.67492   0.00000  Uiso   1.00
H440   H     0.46711   0.38944   0.81588   0.00000  Uiso   1.00
H441   H     0.46679   0.02945   0.67512   0.00000  Uiso   1.00
H442   H     0.46625   0.47053   0.81538   0.00000  Uiso   1.00
H443   H     0.45819   0.18738   0.52910   0.00000  Uiso   1.00
H444   H     0.57526   0.28330   0.97543   0.00000  Uiso   1.00
H445   H     0.54194   0.31072   0.62738   0.00000  Uiso   1.00
H446   H     0.42702   0.21654   0.86851   0.00000  Uiso   1.00
H447   H     0.54200   0.31257   0.54063   0.00000  Uiso   1.00
H448   H     0.42486   0.21669   0.95491   0.00000  Uiso   1.00
N449   N     0.50000   0.24999   0.62623   0.00000  Uiso   1.00
N450   N     0.50000   0.25001   0.87376   0.00000  Uiso   1.00
O451   O     0.50000   0.18453   0.78974   0.00000  Uiso   1.00
O452   O     0.50000   0.31546   0.71026   0.00000  Uiso   1.00
O453   O     0.50000   0.18453   0.71026   0.00000  Uiso   1.00
O454   O     0.50000   0.31547   0.78974   0.00000  Uiso   1.00
O455   O     0.42392   0.25000   0.78044   0.00000  Uiso   1.00
O456   O     0.57608   0.25000   0.71955   0.00000  Uiso   1.00
O457   O     0.42392   0.24999   0.70096   0.00000  Uiso   1.00
O458   O     0.57608   0.25000   0.79903   0.00000  Uiso   1.00
Zn459  Zn    0.50000   0.25000   0.80307   0.00000  Uiso   1.00
Zn460  Zn    0.50000   0.24999   0.69693   0.00000  Uiso   1.00
H461   H     0.53227   0.11053   0.82499   0.00000  Uiso   1.00
H462   H     0.53285   0.38944   0.68405   0.00000  Uiso   1.00
H463   H     0.45815   0.18923   0.61585   0.00000  Uiso   1.00
H464   H     0.57303   0.28338   0.88837   0.00000  Uiso   1.00
C465   C     0.83331   0.16388   0.74999   0.00000  Uiso   1.00
C466   C     0.83335   0.33611   0.75000   0.00000  Uiso   1.00
C467   C     0.80965   0.21532   0.54936   0.00000  Uiso   1.00
C468   C     0.87504   0.26892   0.95309   0.00000  Uiso   1.00
C469   C     0.80993   0.21604   0.59902   0.00000  Uiso   1.00
C470   C     0.87415   0.26869   0.90334   0.00000  Uiso   1.00
C471   C     0.85682   0.28392   0.60547   0.00000  Uiso   1.00
C472   C     0.79257   0.23131   0.89222   0.00000  Uiso   1.00
C473   C     0.85717   0.28464   0.55590   0.00000  Uiso   1.00
C474   C     0.79173   0.23109   0.94172   0.00000  Uiso   1.00
C475   C     0.83341   0.24998   0.52670   0.00000  Uiso   1.00
C476   C     0.83339   0.25000   0.97334   0.00000  Uiso   1.00
C477   C     0.73367   0.25000   0.73753   0.00000  Uiso   1.00
C478   C     0.93300   0.25002   0.76247   0.00000  Uiso   1.00
C479   C     0.67865   0.25002   0.73081   0.00000  Uiso   1.00
C480   C     0.98802   0.25003   0.76921   0.00000  Uiso   1.00
C481   C     0.85145   0.04704   0.79210   0.00000  Uiso   1.00
C482   C     0.85175   0.45295   0.71288   0.00000  Uiso   1.00
C483   C     0.85118   0.09301   0.79220   0.00000  Uiso   1.00
C484   C     0.85153   0.40696   0.71276   0.00000  Uiso   1.00
C485   C     0.83326   0.11600   0.74996   0.00000  Uiso   1.00
C486   C     0.83333   0.38399   0.74998   0.00000  Uiso   1.00
C487   C     0.81530   0.09303   0.70770   0.00000  Uiso   1.00
C488   C     0.81506   0.40696   0.78715   0.00000  Uiso   1.00
C489   C     0.81499   0.04705   0.70775   0.00000  Uiso   1.00
C490   C     0.81470   0.45294   0.78696   0.00000  Uiso   1.00
C491   C     0.83320   0.02404   0.74992   0.00000  Uiso   1.00
C492   C     0.83320   0.47594   0.74991   0.00000  Uiso   1.00
H493   H     0.99135   0.25003   0.69438   0.00000  Uiso   1.00
H494   H     0.67531   0.25004   0.80564   0.00000  Uiso   1.00
H495   H     0.86631   0.02944   0.82472   0.00000  Uiso   1.00
H496   H     0.86682   0.47055   0.68444   0.00000  Uiso   1.00
H497   H     0.80090   0.11056   0.67492   0.00000  Uiso   1.00
H498   H     0.80045   0.38944   0.81588   0.00000  Uiso   1.00
H499   H     0.80012   0.02945   0.67512   0.00000  Uiso   1.00
H500   H     0.79959   0.47053   0.81538   0.00000  Uiso   1.00
H501   H     0.79153   0.18738   0.52910   0.00000  Uiso   1.00
H502   H     0.90859   0.28330   0.97543   0.00000  Uiso   1.00
H503   H     0.87528   0.31072   0.62738   0.00000  Uiso   1.00
H504   H     0.76035   0.21654   0.86851   0.00000  Uiso   1.00
H505   H     0.87533   0.31257   0.54063   0.00000  Uiso   1.00
H506   H     0.75819   0.21669   0.95491   0.00000  Uiso   1.00
N507   N     0.83333   0.24999   0.62623   0.00000  Uiso   1.00
N508   N     0.83333   0.25001   0.87376   0.00000  Uiso   1.00
O509   O     0.83334   0.18453   0.78974   0.00000  Uiso   1.00
O510   O     0.83333   0.31546   0.71026   0.00000  Uiso   1.00
O511   O     0.83334   0.18453   0.71026   0.00000  Uiso   1.00
O512   O     0.83333   0.31547   0.78974   0.00000  Uiso   1.00
O513   O     0.75725   0.25000   0.78044   0.00000  Uiso   1.00
O514   O     0.90942   0.25000   0.71955   0.00000  Uiso   1.00
O515   O     0.75725   0.24999   0.70096   0.00000  Uiso   1.00
O516   O     0.90942   0.25000   0.79903   0.00000  Uiso   1.00
Zn517  Zn    0.83333   0.25000   0.80307   0.00000  Uiso   1.00
Zn518  Zn    0.83333   0.24999   0.69693   0.00000  Uiso   1.00
H519   H     0.86560   0.11053   0.82499   0.00000  Uiso   1.00
H520   H     0.86619   0.38944   0.68405   0.00000  Uiso   1.00
H521   H     0.79148   0.18923   0.61585   0.00000  Uiso   1.00
H522   H     0.90637   0.28338   0.88837   0.00000  Uiso   1.00
C523   C     0.16664   0.66388   0.74999   0.00000  Uiso   1.00
C524   C     0.16668   0.83611   0.75000   0.00000  Uiso   1.00
C525   C     0.14298   0.71532   0.54936   0.00000  Uiso   1.00
C526   C     0.20837   0.76892   0.95309   0.00000  Uiso   1.00
C527   C     0.14326   0.71604   0.59902   0.00000  Uiso   1.00
C528   C     0.20748   0.76869   0.90334   0.00000  Uiso   1.00
C529   C     0.19015   0.78392   0.60547   0.00000  Uiso   1.00
C530   C     0.12590   0.73131   0.89222   0.00000  Uiso   1.00
C531   C     0.19051   0.78464   0.55590   0.00000  Uiso   1.00
C532   C     0.12506   0.73109   0.94172   0.00000  Uiso   1.00
C533   C     0.16675   0.74998   0.52670   0.00000  Uiso   1.00
C534   C     0.16673   0.75000   0.97334   0.00000  Uiso   1.00
C535   C     0.06700   0.75000   0.73753   0.00000  Uiso   1.00
C536   C     0.26633   0.75002   0.76247   0.00000  Uiso   1.00
C537   C     0.01198   0.75002   0.73081   0.00000  Uiso   1.00
C538   C     0.32135   0.75003   0.76921   0.00000  Uiso   1.00
C539   C     0.18478   0.54704   0.79210   0.00000  Uiso   1.00
C540   C     0.18508   0.95295   0.71288   0.00000  Uiso   1.00
C541   C     0.18452   0.59301   0.79220   0.00000  Uiso   1.00
C542   C     0.18486   0.90696   0.71276   0.00000  Uiso   1.00
C543   C     0.16659   0.61600   0.74996   0.00000  Uiso   1.00
C544   C     0.16666   0.88399   0.74998   0.00000  Uiso   1.00
C545   C     0.14863   0.59303   0.70770   0.00000  Uiso   1.00
C546   C     0.14839   0.90696   0.78715   0.00000  Uiso   1.00
C547   C     0.14832   0.54705   0.70775   0.00000  Uiso   1.00
C548   C     0.14803   0.95294   0.78696   0.00000  Uiso   1.00
C549   C     0.16654   0.52404   0.74992   0.00000  Uiso   1.00
C550   C     0.16653   0.97594   0.74991   0.00000  Uiso   1.00
H551   H     0.32468   0.75003   0.69438   0.00000  Uiso   1.00
H552   H     0.00865   0.75004   0.80564   0.00000  Uiso   1.00
H553   H     0.19965   0.52944   0.82472   0.00000  Uiso   1.00
H554   H     0.20016   0.97055   0.68444   0.00000  Uiso   1.00
H555   H     0.13424   0.61056   0.67492   0.00000  Uiso   1.00
H556   H     0.13378   0.88944   0.81588   0.00000  Uiso   1.00
H557   H     0.13345   0.52945   0.67512   0.00000  Uiso   1.00
H558   H     0.13292   0.97053   0.81538   0.00000  Uiso   1.00
H559   H     0.12486   0.68738   0.52910   0.00000  Uiso   1.00
H560   H     0.24193   0.78330   0.97543   0.00000  Uiso   1.00
H561   H     0.20861   0.81072   0.62738   0.00000  Uiso   1.00
H562   H     0.09369   0.71654   0.86851   0.00000  Uiso   1.00
H563   H     0.20867   0.81257   0.54063   0.00000  Uiso   1.00
H564   H     0.09153   0.71669   0.95491   0.00000  Uiso   1.00
N565   N     0.16667   0.74999   0.62623   0.00000  Uiso   1.00
N566   N     0.16667   0.75001   0.87376   0.00000  Uiso   1.00
O567   O     0.16667   0.68453   0.78974   0.00000  Uiso   1.00
O568   O     0.16666   0.81546   0.71026   0.00000  Uiso   1.00
O569   O     0.16667   0.68453   0.71026   0.00000  Uiso   1.00
O570   O     0.16666   0.81547   0.78974   0.00000  Uiso   1.00
O571   O     0.09058   0.75000   0.78044   0.00000  Uiso   1.00
O572   O     0.24275   0.75000   0.71955   0.00000  Uiso   1.00
O573   O     0.09058   0.74999   0.70096   0.00000  Uiso   1.00
O574   O     0.24275   0.75000   0.79903   0.00000  Uiso   1.00
Zn575  Zn    0.16667   0.75000   0.80307   0.00000  Uiso   1.00
Zn576  Zn    0.16667   0.74999   0.69693   0.00000  Uiso   1.00
H577   H     0.19894   0.61053   0.82499   0.00000  Uiso   1.00
H578   H     0.19952   0.88944   0.68405   0.00000  Uiso   1.00
H579   H     0.12481   0.68923   0.61585   0.00000  Uiso   1.00
H580   H     0.23970   0.78338   0.88837   0.00000  Uiso   1.00
C581   C     0.49998   0.66388   0.74999   0.00000  Uiso   1.00
C582   C     0.50002   0.83611   0.75000   0.00000  Uiso   1.00
C583   C     0.47631   0.71532   0.54936   0.00000  Uiso   1.00
C584   C     0.54170   0.76892   0.95309   0.00000  Uiso   1.00
C585   C     0.47660   0.71604   0.59902   0.00000  Uiso   1.00
C586   C     0.54081   0.76869   0.90334   0.00000  Uiso   1.00
C587   C     0.52348   0.78392   0.60547   0.00000  Uiso   1.00
C588   C     0.45923   0.73131   0.89222   0.00000  Uiso   1.00
C589   C     0.52384   0.78464   0.55590   0.00000  Uiso   1.00
C590   C     0.45839   0.73109   0.94172   0.00000  Uiso   1.00
C591   C     0.50008   0.74998   0.52670   0.00000  Uiso   1.00
C592   C     0.50006   0.75000   0.97334   0.00000  Uiso   1.00
C593   C     0.40033   0.75000   0.73753   0.00000  Uiso   1.00
C594   C     0.59967   0.75002   0.76247   0.00000  Uiso   1.00
C595   C     0.34532   0.75002   0.73081   0.00000  Uiso   1.00
C596   C     0.65468   0.75003   0.76921   0.00000  Uiso   1.00
C597   C     0.51812   0.54704   0.79210   0.00000  Uiso   1.00
C598   C     0.51842   0.95295   0.71288   0.00000  Uiso   1.00
C599   C     0.51785   0.59301   0.79220   0.00000  Uiso   1.00
C600   C     0.51819   0.90696   0.71276   0.00000  Uiso   1.00
C601   C     0.49993   0.61600   0.74996   0.00000  Uiso   1.00
C602   C     0.49999   0.88399   0.74998   0.00000  Uiso   1.00
C603   C     0.48197   0.59303   0.70770   0.00000  Uiso   1.00
C604   C     0.48173   0.90696   0.78715   0.00000  Uiso   1.00
C605   C     0.48165   0.54705   0.70775   0.00000  Uiso   1.00
C606   C     0.48137   0.95294   0.78696   0.00000  Uiso   1.00
C607   C     0.49987   0.52404   0.74992   0.00000  Uiso   1.00
C608   C     0.49987   0.97594   0.74991   0.00000  Uiso   1.00
H609   H     0.65801   0.75003   0.69438   0.00000  Uiso   1.00
H610   H     0.34198   0.75004   0.80564   0.00000  Uiso   1.00
H611   H     0.53298   0.52944   0.82472   0.00000  Uiso   1.00
H612   H     0.53349   0.97055   0.68444   0.00000  Uiso   1.00
H613   H     0.46757   0.61056   0.67492   0.00000  Uiso   1.00
H614   H     0.46711   0.88944   0.81588   0.00000  Uiso   1.00
H615   H     0.46679   0.52945   0.67512   0.00000  Uiso   1.00
H616   H     0.46625   0.97053   0.81538   0.00000  Uiso   1.00
H617   H     0.45819   0.68738   0.52910   0.00000  Uiso   1.00
H618   H     0.57526   0.78330   0.97543   0.00000  Uiso   1.00
H619   H     0.54194   0.81072   0.62738   0.00000  Uiso   1.00
H620   H     0.42702   0.71654   0.86851   0.00000  Uiso   1.00
H621   H     0.54200   0.81257   0.54063   0.00000  Uiso   1.00
H622   H     0.42486   0.71669   0.95491   0.00000  Uiso   1.00
N623   N     0.50000   0.74999   0.62623   0.00000  Uiso   1.00
N624   N     0.50000   0.75001   0.87376   0.00000  Uiso   1.00
O625   O     0.50000   0.68453   0.78974   0.00000  Uiso   1.00
O626   O     0.50000   0.81546   0.71026   0.00000  Uiso   1.00
O627   O     0.50000   0.68453   0.71026   0.00000  Uiso   1.00
O628   O     0.50000   0.81547   0.78974   0.00000  Uiso   1.00
O629   O     0.42392   0.75000   0.78044   0.00000  Uiso   1.00
O630   O     0.57608   0.75000   0.71955   0.00000  Uiso   1.00
O631   O     0.42392   0.74999   0.70096   0.00000  Uiso   1.00
O632   O     0.57608   0.75000   0.79903   0.00000  Uiso   1.00
Zn633  Zn    0.50000   0.75000   0.80307   0.00000  Uiso   1.00
Zn634  Zn    0.50000   0.74999   0.69693   0.00000  Uiso   1.00
H635   H     0.53227   0.61053   0.82499   0.00000  Uiso   1.00
H636   H     0.53285   0.88944   0.68405   0.00000  Uiso   1.00
H637   H     0.45815   0.68923   0.61585   0.00000  Uiso   1.00
H638   H     0.57303   0.78338   0.88837   0.00000  Uiso   1.00
C639   C     0.83331   0.66388   0.74999   0.00000  Uiso   1.00
C640   C     0.83335   0.83611   0.75000   0.00000  Uiso   1.00
C641   C     0.80965   0.71532   0.54936   0.00000  Uiso   1.00
C642   C     0.87504   0.76892   0.95309   0.00000  Uiso   1.00
C643   C     0.80993   0.71604   0.59902   0.00000  Uiso   1.00
C644   C     0.87415   0.76869   0.90334   0.00000  Uiso   1.00
C645   C     0.85682   0.78392   0.60547   0.00000  Uiso   1.00
C646   C     0.79257   0.73131   0.89222   0.00000  Uiso   1.00
C647   C     0.85717   0.78464   0.55590   0.00000  Uiso   1.00
C648   C     0.79173   0.73109   0.94172   0.00000  Uiso   1.00
C649   C     0.83341   0.74998   0.52670   0.00000  Uiso   1.00
C650   C     0.83339   0.75000   0.97334   0.00000  Uiso   1.00
C651   C     0.73367   0.75000   0.73753   0.00000  Uiso   1.00
C652   C     0.93300   0.75002   0.76247   0.00000  Uiso   1.00
C653   C     0.67865   0.75002   0.73081   0.00000  Uiso   1.00
C654   C     0.98802   0.75003   0.76921   0.00000  Uiso   1.00
C655   C     0.85145   0.54704   0.79210   0.00000  Uiso   1.00
C656   C     0.85175   0.95295   0.71288   0.00000  Uiso   1.00
C657   C     0.85118   0.59301   0.79220   0.00000  Uiso   1.00
C658   C     0.85153   0.90696   0.71276   0.00000  Uiso   1.00
C659   C     0.83326   0.61600   0.74996   0.00000  Uiso   1.00
C660   C     0.83333   0.88399   0.74998   0.00000  Uiso   1.00
C661   C     0.81530   0.59303   0.70770   0.00000  Uiso   1.00
C662   C     0.81506   0.90696   0.78715   0.00000  Uiso   1.00
C663   C     0.81499   0.54705   0.70775   0.00000  Uiso   1.00
C664   C     0.81470   0.95294   0.78696   0.00000  Uiso   1.00
C665   C     0.83320   0.52404   0.74992   0.00000  Uiso   1.00
C666   C     0.83320   0.97594   0.74991   0.00000  Uiso   1.00
H667   H     0.99135   0.75003   0.69438   0.00000  Uiso   1.00
H668   H     0.67531   0.75004   0.80564   0.00000  Uiso   1.00
H669   H     0.86631   0.52944   0.82472   0.00000  Uiso   1.00
H670   H     0.86682   0.97055   0.68444   0.00000  Uiso   1.00
H671   H     0.80090   0.61056   0.67492   0.00000  Uiso   1.00
H672   H     0.80045   0.88944   0.81588   0.00000  Uiso   1.00
H673   H     0.80012   0.52945   0.67512   0.00000  Uiso   1.00
H674   H     0.79959   0.97053   0.81538   0.00000  Uiso   1.00
H675   H     0.79153   0.68738   0.52910   0.00000  Uiso   1.00
H676   H     0.90859   0.78330   0.97543   0.00000  Uiso   1.00
H677   H     0.87528   0.81072   0.62738   0.00000  Uiso   1.00
H678   H     0.76035   0.71654   0.86851   0.00000  Uiso   1.00
H679   H     0.87533   0.81257   0.54063   0.00000  Uiso   1.00
H680   H     0.75819   0.71669   0.95491   0.00000  Uiso   1.00
N681   N     0.83333   0.74999   0.62623   0.00000  Uiso   1.00
N682   N     0.83333   0.75001   0.87376   0.00000  Uiso   1.00
O683   O     0.83334   0.68453   0.78974   0.00000  Uiso   1.00
O684   O     0.83333   0.81546   0.71026   0.00000  Uiso   1.00
O685   O     0.83334   0.68453   0.71026   0.00000  Uiso   1.00
O686   O     0.83333   0.81547   0.78974   0.00000  Uiso   1.00
O687   O     0.75725   0.75000   0.78044   0.00000  Uiso   1.00
O688   O     0.90942   0.75000   0.71955   0.00000  Uiso   1.00
O689   O     0.75725   0.74999   0.70096   0.00000  Uiso   1.00
O690   O     0.90942   0.75000   0.79903   0.00000  Uiso   1.00
Zn691  Zn    0.83333   0.75000   0.80307   0.00000  Uiso   1.00
Zn692  Zn    0.83333   0.74999   0.69693   0.00000  Uiso   1.00
H693   H     0.86560   0.61053   0.82499   0.00000  Uiso   1.00
H694   H     0.86619   0.88944   0.68405   0.00000  Uiso   1.00
H695   H     0.79148   0.68923   0.61585   0.00000  Uiso   1.00
H696   H     0.90637   0.78338   0.88837   0.00000  Uiso   1.00
loop_
_geom_bond_atom_site_label_1
_geom_bond_atom_site_label_2
_geom_bond_distance
_geom_bond_site_symmetry_2
_ccdc_geom_bond_type
C1     C21     1.438   .     S
C1     O45     1.286   .     A
C1     O47     1.286   .     A
C2     C22     1.437   .     S
C2     O48     1.286   .     A
C2     O46     1.286   .     A
C3     C11     1.410   .     A
C3     C5      1.407   .     A
C3     H37     1.082   .     S
C4     C12     1.411   .     A
C4     C6      1.407   .     A
C4     H38     1.082   .     S
C5     H57     1.081   .     S
C5     N43     1.363   .     A
C6     H58     1.082   .     S
C6     N44     1.363   .     A
C7     N43     1.363   .     A
C7     C9      1.407   .     A
C7     H39     1.082   .     S
C8     C10     1.407   .     A
C8     H40     1.082   .     S
C8     N44     1.363   .     A
C9     C11     1.410   .     A
C9     H41     1.082   .     S
C10    H42     1.082   .     S
C10    C12     1.410   .     A
C11    C360    1.512   1_554 S
C12    C359    1.512   .     S
C13    C15     1.403   .     S
C13    O49     1.275   .     A
C13    O51     1.278   .     A
C14    O52     1.278   .     A
C14    C16     1.403   .     S
C14    O50     1.275   .     A
C15    C132    1.330   1_455 S
C15    H145    1.088   1_455 S
C16    C73     1.330   .     S
C16    H88     1.088   .     S
C17    H31     1.084   .     S
C17    C27     1.399   .     A
C17    C19     1.380   .     A
C18    H32     1.084   .     S
C18    C28     1.399   .     A
C18    C20     1.381   .     A
C19    C21     1.399   .     A
C19    H55     1.084   .     S
C20    H56     1.084   .     S
C20    C22     1.399   .     A
C21    C23     1.399   .     A
C22    C24     1.399   .     A
C23    C25     1.381   .     A
C23    H33     1.084   .     S
C24    C26     1.380   .     A
C24    H34     1.084   .     S
C25    H35     1.084   .     S
C25    C27     1.399   .     A
C26    C28     1.399   .     A
C26    H36     1.084   .     S
C27    C202    1.444   1_545 S
C28    C201    1.444   .     S
H29    C73     1.088   .     S
H30    C132    1.088   1_455 S
N43    Zn54    2.004   .     S
N44    Zn53    2.004   .     S
O45    Zn53    2.001   .     S
O46    Zn54    2.001   .     S
O47    Zn54    2.001   .     S
O48    Zn53    2.001   .     S
O49    Zn53    1.970   .     S
O50    Zn54    1.970   .     S
O51    Zn54    1.982   .     S
O52    Zn53    1.982   .     S
C59    C79     1.438   .     S
C59    O103    1.286   .     A
C59    O105    1.286   .     A
C60    C80     1.437   .     S
C60    O106    1.286   .     A
C60    O104    1.286   .     A
C61    C69     1.410   .     A
C61    C63     1.407   .     A
C61    H95     1.082   .     S
C62    C70     1.411   .     A
C62    C64     1.407   .     A
C62    H96     1.082   .     S
C63    H115    1.081   .     S
C63    N101    1.363   .     A
C64    H116    1.082   .     S
C64    N102    1.363   .     A
C65    N101    1.363   .     A
C65    C67     1.407   .     A
C65    H97     1.082   .     S
C66    C68     1.407   .     A
C66    H98     1.082   .     S
C66    N102    1.363   .     A
C67    C69     1.410   .     A
C67    H99     1.082   .     S
C68    H100    1.082   .     S
C68    C70     1.410   .     A
C69    C418    1.512   1_554 S
C70    C417    1.512   .     S
C71    C73     1.403   .     S
C71    O107    1.275   .     A
C71    O109    1.278   .     A
C72    O110    1.278   .     A
C72    C74     1.403   .     S
C72    O108    1.275   .     A
C74    C131    1.330   .     S
C74    H146    1.088   .     S
C75    H89     1.084   .     S
C75    C85     1.399   .     A
C75    C77     1.380   .     A
C76    H90     1.084   .     S
C76    C86     1.399   .     A
C76    C78     1.381   .     A
C77    C79     1.399   .     A
C77    H113    1.084   .     S
C78    H114    1.084   .     S
C78    C80     1.399   .     A
C79    C81     1.399   .     A
C80    C82     1.399   .     A
C81    C83     1.381   .     A
C81    H91     1.084   .     S
C82    C84     1.380   .     A
C82    H92     1.084   .     S
C83    H93     1.084   .     S
C83    C85     1.399   .     A
C84    C86     1.399   .     A
C84    H94     1.084   .     S
C85    C260    1.444   1_545 S
C86    C259    1.444   .     S
H87    C131    1.088   .     S
N101   Zn112   2.004   .     S
N102   Zn111   2.004   .     S
O103   Zn111   2.001   .     S
O104   Zn112   2.001   .     S
O105   Zn112   2.001   .     S
O106   Zn111   2.001   .     S
O107   Zn111   1.970   .     S
O108   Zn112   1.970   .     S
O109   Zn112   1.982   .     S
O110   Zn111   1.982   .     S
C117   C137    1.438   .     S
C117   O161    1.286   .     A
C117   O163    1.286   .     A
C118   C138    1.437   .     S
C118   O164    1.286   .     A
C118   O162    1.286   .     A
C119   C127    1.410   .     A
C119   C121    1.407   .     A
C119   H153    1.082   .     S
C120   C128    1.411   .     A
C120   C122    1.407   .     A
C120   H154    1.082   .     S
C121   H173    1.081   .     S
C121   N159    1.363   .     A
C122   H174    1.082   .     S
C122   N160    1.363   .     A
C123   N159    1.363   .     A
C123   C125    1.407   .     A
C123   H155    1.082   .     S
C124   C126    1.407   .     A
C124   H156    1.082   .     S
C124   N160    1.363   .     A
C125   C127    1.410   .     A
C125   H157    1.082   .     S
C126   H158    1.082   .     S
C126   C128    1.410   .     A
C127   C476    1.512   1_554 S
C128   C475    1.512   .     S
C129   C131    1.403   .     S
C129   O165    1.275   .     A
C129   O167    1.278   .     A
C130   O168    1.278   .     A
C130   C132    1.403   .     S
C130   O166    1.275   .     A
C132   C15     1.330   1_655 S
C132   H30     1.088   1_655 S
C133   H147    1.084   .     S
C133   C143    1.399   .     A
C133   C135    1.380   .     A
C134   H148    1.084   .     S
C134   C144    1.399   .     A
C134   C136    1.381   .     A
C135   C137    1.399   .     A
C135   H171    1.084   .     S
C136   H172    1.084   .     S
C136   C138    1.399   .     A
C137   C139    1.399   .     A
C138   C140    1.399   .     A
C139   C141    1.381   .     A
C139   H149    1.084   .     S
C140   C142    1.380   .     A
C140   H150    1.084   .     S
C141   H151    1.084   .     S
C141   C143    1.399   .     A
C142   C144    1.399   .     A
C142   H152    1.084   .     S
C143   C318    1.444   1_545 S
C144   C317    1.444   .     S
H145   C15     1.088   1_655 S
N159   Zn170   2.004   .     S
N160   Zn169   2.004   .     S
O161   Zn169   2.001   .     S
O162   Zn170   2.001   .     S
O163   Zn170   2.001   .     S
O164   Zn169   2.001   .     S
O165   Zn169   1.970   .     S
O166   Zn170   1.970   .     S
O167   Zn170   1.982   .     S
O168   Zn169   1.982   .     S
C175   C195    1.438   .     S
C175   O219    1.286   .     A
C175   O221    1.286   .     A
C176   C196    1.437   .     S
C176   O222    1.286   .     A
C176   O220    1.286   .     A
C177   C185    1.410   .     A
C177   C179    1.407   .     A
C177   H211    1.082   .     S
C178   C186    1.411   .     A
C178   C180    1.407   .     A
C178   H212    1.082   .     S
C179   H231    1.081   .     S
C179   N217    1.363   .     A
C180   H232    1.082   .     S
C180   N218    1.363   .     A
C181   N217    1.363   .     A
C181   C183    1.407   .     A
C181   H213    1.082   .     S
C182   C184    1.407   .     A
C182   H214    1.082   .     S
C182   N218    1.363   .     A
C183   C185    1.410   .     A
C183   H215    1.082   .     S
C184   H216    1.082   .     S
C184   C186    1.410   .     A
C185   C534    1.512   1_554 S
C186   C533    1.512   .     S
C187   C189    1.403   .     S
C187   O223    1.275   .     A
C187   O225    1.278   .     A
C188   O226    1.278   .     A
C188   C190    1.403   .     S
C188   O224    1.275   .     A
C189   C306    1.330   1_455 S
C189   H319    1.088   1_455 S
C190   C247    1.330   .     S
C190   H262    1.088   .     S
C191   H205    1.084   .     S
C191   C201    1.399   .     A
C191   C193    1.380   .     A
C192   H206    1.084   .     S
C192   C202    1.399   .     A
C192   C194    1.381   .     A
C193   C195    1.399   .     A
C193   H229    1.084   .     S
C194   H230    1.084   .     S
C194   C196    1.399   .     A
C195   C197    1.399   .     A
C196   C198    1.399   .     A
C197   C199    1.381   .     A
C197   H207    1.084   .     S
C198   C200    1.380   .     A
C198   H208    1.084   .     S
C199   H209    1.084   .     S
C199   C201    1.399   .     A
C200   C202    1.399   .     A
C200   H210    1.084   .     S
C202   C27     1.444   1_565 S
H203   C247    1.088   .     S
H204   C306    1.088   1_455 S
N217   Zn228   2.004   .     S
N218   Zn227   2.004   .     S
O219   Zn227   2.001   .     S
O220   Zn228   2.001   .     S
O221   Zn228   2.001   .     S
O222   Zn227   2.001   .     S
O223   Zn227   1.970   .     S
O224   Zn228   1.970   .     S
O225   Zn228   1.982   .     S
O226   Zn227   1.982   .     S
C233   C253    1.438   .     S
C233   O277    1.286   .     A
C233   O279    1.286   .     A
C234   C254    1.437   .     S
C234   O280    1.286   .     A
C234   O278    1.286   .     A
C235   C243    1.410   .     A
C235   C237    1.407   .     A
C235   H269    1.082   .     S
C236   C244    1.411   .     A
C236   C238    1.407   .     A
C236   H270    1.082   .     S
C237   H289    1.081   .     S
C237   N275    1.363   .     A
C238   H290    1.082   .     S
C238   N276    1.363   .     A
C239   N275    1.363   .     A
C239   C241    1.407   .     A
C239   H271    1.082   .     S
C240   C242    1.407   .     A
C240   H272    1.082   .     S
C240   N276    1.363   .     A
C241   C243    1.410   .     A
C241   H273    1.082   .     S
C242   H274    1.082   .     S
C242   C244    1.410   .     A
C243   C592    1.512   1_554 S
C244   C591    1.512   .     S
C245   C247    1.403   .     S
C245   O281    1.275   .     A
C245   O283    1.278   .     A
C246   O284    1.278   .     A
C246   C248    1.403   .     S
C246   O282    1.275   .     A
C248   C305    1.330   .     S
C248   H320    1.088   .     S
C249   H263    1.084   .     S
C249   C259    1.399   .     A
C249   C251    1.380   .     A
C250   H264    1.084   .     S
C250   C260    1.399   .     A
C250   C252    1.381   .     A
C251   C253    1.399   .     A
C251   H287    1.084   .     S
C252   H288    1.084   .     S
C252   C254    1.399   .     A
C253   C255    1.399   .     A
C254   C256    1.399   .     A
C255   C257    1.381   .     A
C255   H265    1.084   .     S
C256   C258    1.380   .     A
C256   H266    1.084   .     S
C257   H267    1.084   .     S
C257   C259    1.399   .     A
C258   C260    1.399   .     A
C258   H268    1.084   .     S
C260   C85     1.444   1_565 S
H261   C305    1.088   .     S
N275   Zn286   2.004   .     S
N276   Zn285   2.004   .     S
O277   Zn285   2.001   .     S
O278   Zn286   2.001   .     S
O279   Zn286   2.001   .     S
O280   Zn285   2.001   .     S
O281   Zn285   1.970   .     S
O282   Zn286   1.970   .     S
O283   Zn286   1.982   .     S
O284   Zn285   1.982   .     S
C291   C311    1.438   .     S
C291   O335    1.286   .     A
C291   O337    1.286   .     A
C292   C312    1.437   .     S
C292   O338    1.286   .     A
C292   O336    1.286   .     A
C293   C301    1.410   .     A
C293   C295    1.407   .     A
C293   H327    1.082   .     S
C294   C302    1.411   .     A
C294   C296    1.407   .     A
C294   H328    1.082   .     S
C295   H347    1.081   .     S
C295   N333    1.363   .     A
C296   H348    1.082   .     S
C296   N334    1.363   .     A
C297   N333    1.363   .     A
C297   C299    1.407   .     A
C297   H329    1.082   .     S
C298   C300    1.407   .     A
C298   H330    1.082   .     S
C298   N334    1.363   .     A
C299   C301    1.410   .     A
C299   H331    1.082   .     S
C300   H332    1.082   .     S
C300   C302    1.410   .     A
C301   C650    1.512   1_554 S
C302   C649    1.512   .     S
C303   C305    1.403   .     S
C303   O339    1.275   .     A
C303   O341    1.278   .     A
C304   O342    1.278   .     A
C304   C306    1.403   .     S
C304   O340    1.275   .     A
C306   C189    1.330   1_655 S
C306   H204    1.088   1_655 S
C307   H321    1.084   .     S
C307   C317    1.399   .     A
C307   C309    1.380   .     A
C308   H322    1.084   .     S
C308   C318    1.399   .     A
C308   C310    1.381   .     A
C309   C311    1.399   .     A
C309   H345    1.084   .     S
C310   H346    1.084   .     S
C310   C312    1.399   .     A
C311   C313    1.399   .     A
C312   C314    1.399   .     A
C313   C315    1.381   .     A
C313   H323    1.084   .     S
C314   C316    1.380   .     A
C314   H324    1.084   .     S
C315   H325    1.084   .     S
C315   C317    1.399   .     A
C316   C318    1.399   .     A
C316   H326    1.084   .     S
C318   C143    1.444   1_565 S
H319   C189    1.088   1_655 S
N333   Zn344   2.004   .     S
N334   Zn343   2.004   .     S
O335   Zn343   2.001   .     S
O336   Zn344   2.001   .     S
O337   Zn344   2.001   .     S
O338   Zn343   2.001   .     S
O339   Zn343   1.970   .     S
O340   Zn344   1.970   .     S
O341   Zn344   1.982   .     S
O342   Zn343   1.982   .     S
C349   C369    1.438   .     S
C349   O393    1.286   .     A
C349   O395    1.286   .     A
C350   C370    1.437   .     S
C350   O396    1.286   .     A
C350   O394    1.286   .     A
C351   C359    1.410   .     A
C351   C353    1.407   .     A
C351   H385    1.082   .     S
C352   C360    1.411   .     A
C352   C354    1.407   .     A
C352   H386    1.082   .     S
C353   H405    1.081   .     S
C353   N391    1.363   .     A
C354   H406    1.082   .     S
C354   N392    1.363   .     A
C355   N391    1.363   .     A
C355   C357    1.407   .     A
C355   H387    1.082   .     S
C356   C358    1.407   .     A
C356   H388    1.082   .     S
C356   N392    1.363   .     A
C357   C359    1.410   .     A
C357   H389    1.082   .     S
C358   H390    1.082   .     S
C358   C360    1.410   .     A
C360   C11     1.512   1_556 S
C361   C363    1.403   .     S
C361   O397    1.275   .     A
C361   O399    1.278   .     A
C362   O400    1.278   .     A
C362   C364    1.403   .     S
C362   O398    1.275   .     A
C363   C480    1.330   1_455 S
C363   H493    1.088   1_455 S
C364   C421    1.330   .     S
C364   H436    1.088   .     S
C365   H379    1.084   .     S
C365   C375    1.399   .     A
C365   C367    1.380   .     A
C366   H380    1.084   .     S
C366   C376    1.399   .     A
C366   C368    1.381   .     A
C367   C369    1.399   .     A
C367   H403    1.084   .     S
C368   H404    1.084   .     S
C368   C370    1.399   .     A
C369   C371    1.399   .     A
C370   C372    1.399   .     A
C371   C373    1.381   .     A
C371   H381    1.084   .     S
C372   C374    1.380   .     A
C372   H382    1.084   .     S
C373   H383    1.084   .     S
C373   C375    1.399   .     A
C374   C376    1.399   .     A
C374   H384    1.084   .     S
C375   C550    1.444   1_545 S
C376   C549    1.444   .     S
H377   C421    1.088   .     S
H378   C480    1.088   1_455 S
N391   Zn402   2.004   .     S
N392   Zn401   2.004   .     S
O393   Zn401   2.001   .     S
O394   Zn402   2.001   .     S
O395   Zn402   2.001   .     S
O396   Zn401   2.001   .     S
O397   Zn401   1.970   .     S
O398   Zn402   1.970   .     S
O399   Zn402   1.982   .     S
O400   Zn401   1.982   .     S
C407   C427    1.438   .     S
C407   O451    1.286   .     A
C407   O453    1.286   .     A
C408   C428    1.437   .     S
C408   O454    1.286   .     A
C408   O452    1.286   .     A
C409   C417    1.410   .     A
C409   C411    1.407   .     A
C409   H443    1.082   .     S
C410   C418    1.411   .     A
C410   C412    1.407   .     A
C410   H444    1.082   .     S
C411   H463    1.081   .     S
C411   N449    1.363   .     A
C412   H464    1.082   .     S
C412   N450    1.363   .     A
C413   N449    1.363   .     A
C413   C415    1.407   .     A
C413   H445    1.082   .     S
C414   C416    1.407   .     A
C414   H446    1.082   .     S
C414   N450    1.363   .     A
C415   C417    1.410   .     A
C415   H447    1.082   .     S
C416   H448    1.082   .     S
C416   C418    1.410   .     A
C418   C69     1.512   1_556 S
C419   C421    1.403   .     S
C419   O455    1.275   .     A
C419   O457    1.278   .     A
C420   O458    1.278   .     A
C420   C422    1.403   .     S
C420   O456    1.275   .     A
C422   C479    1.330   .     S
C422   H494    1.088   .     S
C423   H437    1.084   .     S
C423   C433    1.399   .     A
C423   C425    1.380   .     A
C424   H438    1.084   .     S
C424   C434    1.399   .     A
C424   C426    1.381   .     A
C425   C427    1.399   .     A
C425   H461    1.084   .     S
C426   H462    1.084   .     S
C426   C428    1.399   .     A
C427   C429    1.399   .     A
C428   C430    1.399   .     A
C429   C431    1.381   .     A
C429   H439    1.084   .     S
C430   C432    1.380   .     A
C430   H440    1.084   .     S
C431   H441    1.084   .     S
C431   C433    1.399   .     A
C432   C434    1.399   .     A
C432   H442    1.084   .     S
C433   C608    1.444   1_545 S
C434   C607    1.444   .     S
H435   C479    1.088   .     S
N449   Zn460   2.004   .     S
N450   Zn459   2.004   .     S
O451   Zn459   2.001   .     S
O452   Zn460   2.001   .     S
O453   Zn460   2.001   .     S
O454   Zn459   2.001   .     S
O455   Zn459   1.970   .     S
O456   Zn460   1.970   .     S
O457   Zn460   1.982   .     S
O458   Zn459   1.982   .     S
C465   C485    1.438   .     S
C465   O509    1.286   .     A
C465   O511    1.286   .     A
C466   C486    1.437   .     S
C466   O512    1.286   .     A
C466   O510    1.286   .     A
C467   C475    1.410   .     A
C467   C469    1.407   .     A
C467   H501    1.082   .     S
C468   C476    1.411   .     A
C468   C470    1.407   .     A
C468   H502    1.082   .     S
C469   H521    1.081   .     S
C469   N507    1.363   .     A
C470   H522    1.082   .     S
C470   N508    1.363   .     A
C471   N507    1.363   .     A
C471   C473    1.407   .     A
C471   H503    1.082   .     S
C472   C474    1.407   .     A
C472   H504    1.082   .     S
C472   N508    1.363   .     A
C473   C475    1.410   .     A
C473   H505    1.082   .     S
C474   H506    1.082   .     S
C474   C476    1.410   .     A
C476   C127    1.512   1_556 S
C477   C479    1.403   .     S
C477   O513    1.275   .     A
C477   O515    1.278   .     A
C478   O516    1.278   .     A
C478   C480    1.403   .     S
C478   O514    1.275   .     A
C480   C363    1.330   1_655 S
C480   H378    1.088   1_655 S
C481   H495    1.084   .     S
C481   C491    1.399   .     A
C481   C483    1.380   .     A
C482   H496    1.084   .     S
C482   C492    1.399   .     A
C482   C484    1.381   .     A
C483   C485    1.399   .     A
C483   H519    1.084   .     S
C484   H520    1.084   .     S
C484   C486    1.399   .     A
C485   C487    1.399   .     A
C486   C488    1.399   .     A
C487   C489    1.381   .     A
C487   H497    1.084   .     S
C488   C490    1.380   .     A
C488   H498    1.084   .     S
C489   H499    1.084   .     S
C489   C491    1.399   .     A
C490   C492    1.399   .     A
C490   H500    1.084   .     S
C491   C666    1.444   1_545 S
C492   C665    1.444   .     S
H493   C363    1.088   1_655 S
N507   Zn518   2.004   .     S
N508   Zn517   2.004   .     S
O509   Zn517   2.001   .     S
O510   Zn518   2.001   .     S
O511   Zn518   2.001   .     S
O512   Zn517   2.001   .     S
O513   Zn517   1.970   .     S
O514   Zn518   1.970   .     S
O515   Zn518   1.982   .     S
O516   Zn517   1.982   .     S
C523   C543    1.438   .     S
C523   O567    1.286   .     A
C523   O569    1.286   .     A
C524   C544    1.437   .     S
C524   O570    1.286   .     A
C524   O568    1.286   .     A
C525   C533    1.410   .     A
C525   C527    1.407   .     A
C525   H559    1.082   .     S
C526   C534    1.411   .     A
C526   C528    1.407   .     A
C526   H560    1.082   .     S
C527   H579    1.081   .     S
C527   N565    1.363   .     A
C528   H580    1.082   .     S
C528   N566    1.363   .     A
C529   N565    1.363   .     A
C529   C531    1.407   .     A
C529   H561    1.082   .     S
C530   C532    1.407   .     A
C530   H562    1.082   .     S
C530   N566    1.363   .     A
C531   C533    1.410   .     A
C531   H563    1.082   .     S
C532   H564    1.082   .     S
C532   C534    1.410   .     A
C534   C185    1.512   1_556 S
C535   C537    1.403   .     S
C535   O571    1.275   .     A
C535   O573    1.278   .     A
C536   O574    1.278   .     A
C536   C538    1.403   .     S
C536   O572    1.275   .     A
C537   C654    1.330   1_455 S
C537   H667    1.088   1_455 S
C538   C595    1.330   .     S
C538   H610    1.088   .     S
C539   H553    1.084   .     S
C539   C549    1.399   .     A
C539   C541    1.380   .     A
C540   H554    1.084   .     S
C540   C550    1.399   .     A
C540   C542    1.381   .     A
C541   C543    1.399   .     A
C541   H577    1.084   .     S
C542   H578    1.084   .     S
C542   C544    1.399   .     A
C543   C545    1.399   .     A
C544   C546    1.399   .     A
C545   C547    1.381   .     A
C545   H555    1.084   .     S
C546   C548    1.380   .     A
C546   H556    1.084   .     S
C547   H557    1.084   .     S
C547   C549    1.399   .     A
C548   C550    1.399   .     A
C548   H558    1.084   .     S
C550   C375    1.444   1_565 S
H551   C595    1.088   .     S
H552   C654    1.088   1_455 S
N565   Zn576   2.004   .     S
N566   Zn575   2.004   .     S
O567   Zn575   2.001   .     S
O568   Zn576   2.001   .     S
O569   Zn576   2.001   .     S
O570   Zn575   2.001   .     S
O571   Zn575   1.970   .     S
O572   Zn576   1.970   .     S
O573   Zn576   1.982   .     S
O574   Zn575   1.982   .     S
C581   C601    1.438   .     S
C581   O625    1.286   .     A
C581   O627    1.286   .     A
C582   C602    1.437   .     S
C582   O628    1.286   .     A
C582   O626    1.286   .     A
C583   C591    1.410   .     A
C583   C585    1.407   .     A
C583   H617    1.082   .     S
C584   C592    1.411   .     A
C584   C586    1.407   .     A
C584   H618    1.082   .     S
C585   H637    1.081   .     S
C585   N623    1.363   .     A
C586   H638    1.082   .     S
C586   N624    1.363   .     A
C587   N623    1.363   .     A
C587   C589    1.407   .     A
C587   H619    1.082   .     S
C588   C590    1.407   .     A
C588   H620    1.082   .     S
C588   N624    1.363   .     A
C589   C591    1.410   .     A
C589   H621    1.082   .     S
C590   H622    1.082   .     S
C590   C592    1.410   .     A
C592   C243    1.512   1_556 S
C593   C595    1.403   .     S
C593   O629    1.275   .     A
C593   O631    1.278   .     A
C594   O632    1.278   .     A
C594   C596    1.403   .     S
C594   O630    1.275   .     A
C596   C653    1.330   .     S
C596   H668    1.088   .     S
C597   H611    1.084   .     S
C597   C607    1.399   .     A
C597   C599    1.380   .     A
C598   H612    1.084   .     S
C598   C608    1.399   .     A
C598   C600    1.381   .     A
C599   C601    1.399   .     A
C599   H635    1.084   .     S
C600   H636    1.084   .     S
C600   C602    1.399   .     A
C601   C603    1.399   .     A
C602   C604    1.399   .     A
C603   C605    1.381   .     A
C603   H613    1.084   .     S
C604   C606    1.380   .     A
C604   H614    1.084   .     S
C605   H615    1.084   .     S
C605   C607    1.399   .     A
C606   C608    1.399   .     A
C606   H616    1.084   .     S
C608   C433    1.444   1_565 S
H609   C653    1.088   .     S
N623   Zn634   2.004   .     S
N624   Zn633   2.004   .     S
O625   Zn633   2.001   .     S
O626   Zn634   2.001   .     S
O627   Zn634   2.001   .     S
O628   Zn633   2.001   .     S
O629   Zn633   1.970   .     S
O630   Zn634   1.970   .     S
O631   Zn634   1.982   .     S
O632   Zn633   1.982   .     S
C639   C659    1.438   .     S
C639   O683    1.286   .     A
C639   O685    1.286   .     A
C640   C660    1.437   .     S
C640   O686    1.286   .     A
C640   O684    1.286   .     A
C641   C649    1.410   .     A
C641   C643    1.407   .     A
C641   H675    1.082   .     S
C642   C650    1.411   .     A
C642   C644    1.407   .     A
C642   H676    1.082   .     S
C643   H695    1.081   .     S
C643   N681    1.363   .     A
C644   H696    1.082   .     S
C644   N682    1.363   .     A
C645   N681    1.363   .     A
C645   C647    1.407   .     A
C645   H677    1.082   .     S
C646   C648    1.407   .     A
C646   H678    1.082   .     S
C646   N682    1.363   .     A
C647   C649    1.410   .     A
C647   H679    1.082   .     S
C648   H680    1.082   .     S
C648   C650    1.410   .     A
C650   C301    1.512   1_556 S
C651   C653    1.403   .     S
C651   O687    1.275   .     A
C651   O689    1.278   .     A
C652   O690    1.278   .     A
C652   C654    1.403   .     S
C652   O688    1.275   .     A
C654   C537    1.330   1_655 S
C654   H552    1.088   1_655 S
C655   H669    1.084   .     S
C655   C665    1.399   .     A
C655   C657    1.380   .     A
C656   H670    1.084   .     S
C656   C666    1.399   .     A
C656   C658    1.381   .     A
C657   C659    1.399   .     A
C657   H693    1.084   .     S
C658   H694    1.084   .     S
C658   C660    1.399   .     A
C659   C661    1.399   .     A
C660   C662    1.399   .     A
C661   C663    1.381   .     A
C661   H671    1.084   .     S
C662   C664    1.380   .     A
C662   H672    1.084   .     S
C663   H673    1.084   .     S
C663   C665    1.399   .     A
C664   C666    1.399   .     A
C664   H674    1.084   .     S
C666   C491    1.444   1_565 S
H667   C537    1.088   1_655 S
N681   Zn692   2.004   .     S
N682   Zn691   2.004   .     S
O683   Zn691   2.001   .     S
O684   Zn692   2.001   .     S
O685   Zn692   2.001   .     S
O686   Zn691   2.001   .     S
O687   Zn691   1.970   .     S
O688   Zn692   1.970   .     S
O689   Zn692   1.982   .     S
O690   Zn691   1.982   .     S
