data_str_m3_o2_o10_pcu_sym.110
_audit_creation_date              2020-01-03
_audit_creation_method            'Materials Studio'
_symmetry_space_group_name_H-M    'P1'
_symmetry_Int_Tables_number       1
_symmetry_cell_setting            triclinic
loop_
_symmetry_equiv_pos_as_xyz
  x,y,z
_cell_length_a                    25.7060
_cell_length_b                    29.9587
_cell_length_c                    28.3888
_cell_angle_alpha                 89.9040
_cell_angle_beta                  98.8804
_cell_angle_gamma                 89.7911
loop_
_atom_site_label
_atom_site_type_symbol
_atom_site_fract_x
_atom_site_fract_y
_atom_site_fract_z
_atom_site_U_iso_or_equiv
_atom_site_adp_type
_atom_site_occupancy
C1     C     0.16750   0.16415   0.25016   0.00000  Uiso   1.00
C2     C     0.15130   0.20923   0.44429   0.00000  Uiso   1.00
C3     C     0.17046   0.24664   0.02714   0.00000  Uiso   1.00
C4     C     0.16951   0.24615   0.47371   0.00000  Uiso   1.00
C5     C     0.06700   0.25026   0.23750   0.00000  Uiso   1.00
C6     C     0.26633   0.25072   0.26251   0.00000  Uiso   1.00
C7     C     0.01192   0.25082   0.23083   0.00000  Uiso   1.00
C8     C     0.32144   0.25130   0.26925   0.00000  Uiso   1.00
C9     C     0.11686   0.05007   0.25571   0.00000  Uiso   1.00
C10    C     0.17816   0.45294   0.21125   0.00000  Uiso   1.00
C11    C     0.12073   0.09593   0.25774   0.00000  Uiso   1.00
C12    C     0.16407   0.33609   0.24963   0.00000  Uiso   1.00
C13    C     0.17950   0.40703   0.21268   0.00000  Uiso   1.00
C14    C     0.16737   0.11655   0.25025   0.00000  Uiso   1.00
C15    C     0.15852   0.38411   0.24841   0.00000  Uiso   1.00
C16    C     0.21150   0.09157   0.24125   0.00000  Uiso   1.00
C17    C     0.13365   0.40764   0.28212   0.00000  Uiso   1.00
C18    C     0.20712   0.04536   0.24008   0.00000  Uiso   1.00
C19    C     0.13477   0.45402   0.28144   0.00000  Uiso   1.00
C20    C     0.16010   0.02475   0.24704   0.00000  Uiso   1.00
C21    C     0.15709   0.47651   0.24629   0.00000  Uiso   1.00
C22    C     0.26259   0.11185   0.23412   0.00000  Uiso   1.00
C23    C     0.12366   0.23855   0.04542   0.00000  Uiso   1.00
C24    C     0.10429   0.38568   0.31685   0.00000  Uiso   1.00
C25    C     0.06393   0.18283   0.10302   0.00000  Uiso   1.00
C26    C     0.02027   0.16949   0.13076   0.00000  Uiso   1.00
C27    C     0.25969   0.31856   0.38239   0.00000  Uiso   1.00
C28    C     0.28898   0.34861   0.42080   0.00000  Uiso   1.00
C29    C     0.26886   0.26303   0.04566   0.00000  Uiso   1.00
C30    C     0.13621   0.16599   0.46400   0.00000  Uiso   1.00
C31    C     0.18545   0.28442   0.45123   0.00000  Uiso   1.00
C32    C     0.12284   0.23813   0.09506   0.00000  Uiso   1.00
C33    C     0.18591   0.28523   0.40173   0.00000  Uiso   1.00
C34    C     0.21239   0.25944   0.10942   0.00000  Uiso   1.00
C35    C     0.14921   0.21286   0.39426   0.00000  Uiso   1.00
C36    C     0.21624   0.25677   0.06027   0.00000  Uiso   1.00
H37    H     0.32451   0.25050   0.19444   0.00000  Uiso   1.00
H38    H     0.19841   0.31357   0.47227   0.00000  Uiso   1.00
H39    H     0.24685   0.26779   0.13460   0.00000  Uiso   1.00
H40    H     0.13511   0.18512   0.37156   0.00000  Uiso   1.00
H41    H     0.33217   0.10379   0.21043   0.00000  Uiso   1.00
H42    H     0.08471   0.38579   0.38298   0.00000  Uiso   1.00
H43    H     0.09839   0.16045   0.11438   0.00000  Uiso   1.00
H44    H     0.04930   0.17775   0.06445   0.00000  Uiso   1.00
H45    H     0.31889   0.19172   0.12121   0.00000  Uiso   1.00
H46    H     0.00825   0.13452   0.12212   0.00000  Uiso   1.00
H47    H     0.03444   0.17189   0.16963   0.00000  Uiso   1.00
H48    H     0.00889   0.25170   0.30567   0.00000  Uiso   1.00
H49    H     0.26886   0.33007   0.34738   0.00000  Uiso   1.00
H50    H     0.27532   0.28373   0.38754   0.00000  Uiso   1.00
H51    H     0.28412   0.33631   0.45674   0.00000  Uiso   1.00
H52    H     0.33162   0.34856   0.41809   0.00000  Uiso   1.00
H53    H     0.27373   0.38333   0.41613   0.00000  Uiso   1.00
H54    H     0.00772   0.29056   0.06038   0.00000  Uiso   1.00
H55    H     0.09421   0.10917   0.45276   0.00000  Uiso   1.00
H56    H     0.08011   0.03442   0.26054   0.00000  Uiso   1.00
H57    H     0.19451   0.47010   0.18329   0.00000  Uiso   1.00
H58    H     0.08704   0.11551   0.26430   0.00000  Uiso   1.00
H59    H     0.19795   0.38945   0.18624   0.00000  Uiso   1.00
H60    H     0.24078   0.02510   0.23485   0.00000  Uiso   1.00
H61    H     0.11790   0.47270   0.30811   0.00000  Uiso   1.00
H62    H     0.08772   0.23203   0.02109   0.00000  Uiso   1.00
N63    N     0.16667   0.24999   0.12623   0.00000  Uiso   1.00
N64    N     0.16667   0.25001   0.37376   0.00000  Uiso   1.00
O65    O     0.16667   0.18454   0.28974   0.00000  Uiso   1.00
O66    O     0.29867   0.08680   0.21283   0.00000  Uiso   1.00
O67    O     0.07649   0.35332   0.30499   0.00000  Uiso   1.00
O68    O     0.10664   0.40335   0.36269   0.00000  Uiso   1.00
O69    O     0.07688   0.22810   0.11231   0.00000  Uiso   1.00
O70    O     0.20460   0.32257   0.38142   0.00000  Uiso   1.00
O71    O     0.27974   0.24484   0.00988   0.00000  Uiso   1.00
O72    O     0.30682   0.28879   0.07388   0.00000  Uiso   1.00
O73    O     0.15527   0.15429   0.00429   0.00000  Uiso   1.00
O74    O     0.10116   0.13778   0.43569   0.00000  Uiso   1.00
O75    O     0.16666   0.31547   0.21026   0.00000  Uiso   1.00
O76    O     0.16667   0.18453   0.21026   0.00000  Uiso   1.00
O77    O     0.16666   0.31547   0.28974   0.00000  Uiso   1.00
O78    O     0.09058   0.25000   0.28044   0.00000  Uiso   1.00
O79    O     0.24275   0.25000   0.21955   0.00000  Uiso   1.00
O80    O     0.09058   0.25000   0.20096   0.00000  Uiso   1.00
O81    O     0.24275   0.25001   0.29903   0.00000  Uiso   1.00
O82    O     0.27389   0.14981   0.24750   0.00000  Uiso   1.00
Zn83   Zn    0.16667   0.25001   0.30307   0.00000  Uiso   1.00
Zn84   Zn    0.16667   0.25000   0.19693   0.00000  Uiso   1.00
C85    C     0.50084   0.16415   0.25016   0.00000  Uiso   1.00
C86    C     0.48463   0.20923   0.44429   0.00000  Uiso   1.00
C87    C     0.50379   0.24664   0.02714   0.00000  Uiso   1.00
C88    C     0.50284   0.24615   0.47371   0.00000  Uiso   1.00
C89    C     0.40034   0.25026   0.23750   0.00000  Uiso   1.00
C90    C     0.59966   0.25072   0.26251   0.00000  Uiso   1.00
C91    C     0.34526   0.25082   0.23083   0.00000  Uiso   1.00
C92    C     0.65477   0.25130   0.26925   0.00000  Uiso   1.00
C93    C     0.45019   0.05007   0.25571   0.00000  Uiso   1.00
C94    C     0.51149   0.45294   0.21125   0.00000  Uiso   1.00
C95    C     0.45407   0.09593   0.25774   0.00000  Uiso   1.00
C96    C     0.49740   0.33609   0.24963   0.00000  Uiso   1.00
C97    C     0.51284   0.40703   0.21268   0.00000  Uiso   1.00
C98    C     0.50070   0.11655   0.25025   0.00000  Uiso   1.00
C99    C     0.49186   0.38411   0.24841   0.00000  Uiso   1.00
C100   C     0.54483   0.09157   0.24125   0.00000  Uiso   1.00
C101   C     0.46698   0.40764   0.28212   0.00000  Uiso   1.00
C102   C     0.54046   0.04536   0.24008   0.00000  Uiso   1.00
C103   C     0.46811   0.45402   0.28144   0.00000  Uiso   1.00
C104   C     0.49344   0.02475   0.24704   0.00000  Uiso   1.00
C105   C     0.49042   0.47651   0.24629   0.00000  Uiso   1.00
C106   C     0.59593   0.11185   0.23412   0.00000  Uiso   1.00
C107   C     0.45699   0.23855   0.04542   0.00000  Uiso   1.00
C108   C     0.43762   0.38568   0.31685   0.00000  Uiso   1.00
C109   C     0.39726   0.18283   0.10302   0.00000  Uiso   1.00
C110   C     0.35360   0.16949   0.13076   0.00000  Uiso   1.00
C111   C     0.59302   0.31856   0.38239   0.00000  Uiso   1.00
C112   C     0.62232   0.34861   0.42080   0.00000  Uiso   1.00
C113   C     0.60219   0.26303   0.04566   0.00000  Uiso   1.00
C114   C     0.46955   0.16599   0.46400   0.00000  Uiso   1.00
C115   C     0.51878   0.28442   0.45123   0.00000  Uiso   1.00
C116   C     0.45618   0.23813   0.09506   0.00000  Uiso   1.00
C117   C     0.51924   0.28523   0.40173   0.00000  Uiso   1.00
C118   C     0.54572   0.25944   0.10942   0.00000  Uiso   1.00
C119   C     0.48254   0.21286   0.39426   0.00000  Uiso   1.00
C120   C     0.54957   0.25677   0.06027   0.00000  Uiso   1.00
H121   H     0.65784   0.25050   0.19444   0.00000  Uiso   1.00
H122   H     0.53174   0.31357   0.47227   0.00000  Uiso   1.00
H123   H     0.58018   0.26779   0.13460   0.00000  Uiso   1.00
H124   H     0.46844   0.18512   0.37156   0.00000  Uiso   1.00
H125   H     0.66551   0.10379   0.21043   0.00000  Uiso   1.00
H126   H     0.41804   0.38579   0.38298   0.00000  Uiso   1.00
H127   H     0.43173   0.16045   0.11438   0.00000  Uiso   1.00
H128   H     0.38264   0.17775   0.06445   0.00000  Uiso   1.00
H129   H     0.65223   0.19172   0.12121   0.00000  Uiso   1.00
H130   H     0.34158   0.13452   0.12212   0.00000  Uiso   1.00
H131   H     0.36777   0.17189   0.16963   0.00000  Uiso   1.00
H132   H     0.34223   0.25170   0.30567   0.00000  Uiso   1.00
H133   H     0.60219   0.33007   0.34738   0.00000  Uiso   1.00
H134   H     0.60866   0.28373   0.38754   0.00000  Uiso   1.00
H135   H     0.61745   0.33631   0.45674   0.00000  Uiso   1.00
H136   H     0.66496   0.34856   0.41809   0.00000  Uiso   1.00
H137   H     0.60707   0.38333   0.41613   0.00000  Uiso   1.00
H138   H     0.34105   0.29056   0.06038   0.00000  Uiso   1.00
H139   H     0.42755   0.10917   0.45276   0.00000  Uiso   1.00
H140   H     0.41344   0.03442   0.26054   0.00000  Uiso   1.00
H141   H     0.52784   0.47010   0.18329   0.00000  Uiso   1.00
H142   H     0.42037   0.11551   0.26430   0.00000  Uiso   1.00
H143   H     0.53128   0.38945   0.18624   0.00000  Uiso   1.00
H144   H     0.57412   0.02510   0.23485   0.00000  Uiso   1.00
H145   H     0.45124   0.47270   0.30811   0.00000  Uiso   1.00
H146   H     0.42106   0.23203   0.02109   0.00000  Uiso   1.00
N147   N     0.50000   0.24999   0.12623   0.00000  Uiso   1.00
N148   N     0.50000   0.25001   0.37376   0.00000  Uiso   1.00
O149   O     0.50000   0.18454   0.28974   0.00000  Uiso   1.00
O150   O     0.63200   0.08680   0.21283   0.00000  Uiso   1.00
O151   O     0.40983   0.35332   0.30499   0.00000  Uiso   1.00
O152   O     0.43998   0.40335   0.36269   0.00000  Uiso   1.00
O153   O     0.41021   0.22810   0.11231   0.00000  Uiso   1.00
O154   O     0.53793   0.32257   0.38142   0.00000  Uiso   1.00
O155   O     0.61308   0.24484   0.00988   0.00000  Uiso   1.00
O156   O     0.64016   0.28879   0.07388   0.00000  Uiso   1.00
O157   O     0.48860   0.15429   0.00429   0.00000  Uiso   1.00
O158   O     0.43450   0.13778   0.43569   0.00000  Uiso   1.00
O159   O     0.50000   0.31547   0.21026   0.00000  Uiso   1.00
O160   O     0.50000   0.18453   0.21026   0.00000  Uiso   1.00
O161   O     0.50000   0.31547   0.28974   0.00000  Uiso   1.00
O162   O     0.42392   0.25000   0.28044   0.00000  Uiso   1.00
O163   O     0.57608   0.25000   0.21955   0.00000  Uiso   1.00
O164   O     0.42392   0.25000   0.20096   0.00000  Uiso   1.00
O165   O     0.57608   0.25001   0.29903   0.00000  Uiso   1.00
O166   O     0.60723   0.14981   0.24750   0.00000  Uiso   1.00
Zn167  Zn    0.50000   0.25001   0.30307   0.00000  Uiso   1.00
Zn168  Zn    0.50000   0.25000   0.19693   0.00000  Uiso   1.00
C169   C     0.83417   0.16415   0.25016   0.00000  Uiso   1.00
C170   C     0.81796   0.20923   0.44429   0.00000  Uiso   1.00
C171   C     0.83712   0.24664   0.02714   0.00000  Uiso   1.00
C172   C     0.83618   0.24615   0.47371   0.00000  Uiso   1.00
C173   C     0.73367   0.25026   0.23750   0.00000  Uiso   1.00
C174   C     0.93299   0.25072   0.26251   0.00000  Uiso   1.00
C175   C     0.67859   0.25082   0.23083   0.00000  Uiso   1.00
C176   C     0.98810   0.25130   0.26925   0.00000  Uiso   1.00
C177   C     0.78352   0.05007   0.25571   0.00000  Uiso   1.00
C178   C     0.84482   0.45294   0.21125   0.00000  Uiso   1.00
C179   C     0.78740   0.09593   0.25774   0.00000  Uiso   1.00
C180   C     0.83074   0.33609   0.24963   0.00000  Uiso   1.00
C181   C     0.84617   0.40703   0.21268   0.00000  Uiso   1.00
C182   C     0.83404   0.11655   0.25025   0.00000  Uiso   1.00
C183   C     0.82519   0.38411   0.24841   0.00000  Uiso   1.00
C184   C     0.87816   0.09157   0.24125   0.00000  Uiso   1.00
C185   C     0.80032   0.40764   0.28212   0.00000  Uiso   1.00
C186   C     0.87379   0.04536   0.24008   0.00000  Uiso   1.00
C187   C     0.80144   0.45402   0.28144   0.00000  Uiso   1.00
C188   C     0.82677   0.02475   0.24704   0.00000  Uiso   1.00
C189   C     0.82375   0.47651   0.24629   0.00000  Uiso   1.00
C190   C     0.92926   0.11185   0.23412   0.00000  Uiso   1.00
C191   C     0.79033   0.23855   0.04542   0.00000  Uiso   1.00
C192   C     0.77096   0.38568   0.31685   0.00000  Uiso   1.00
C193   C     0.73060   0.18283   0.10302   0.00000  Uiso   1.00
C194   C     0.68694   0.16949   0.13076   0.00000  Uiso   1.00
C195   C     0.92635   0.31856   0.38239   0.00000  Uiso   1.00
C196   C     0.95565   0.34861   0.42080   0.00000  Uiso   1.00
C197   C     0.93552   0.26303   0.04566   0.00000  Uiso   1.00
C198   C     0.80288   0.16599   0.46400   0.00000  Uiso   1.00
C199   C     0.85211   0.28442   0.45123   0.00000  Uiso   1.00
C200   C     0.78951   0.23813   0.09506   0.00000  Uiso   1.00
C201   C     0.85258   0.28523   0.40173   0.00000  Uiso   1.00
C202   C     0.87905   0.25944   0.10942   0.00000  Uiso   1.00
C203   C     0.81588   0.21286   0.39426   0.00000  Uiso   1.00
C204   C     0.88290   0.25677   0.06027   0.00000  Uiso   1.00
H205   H     0.99117   0.25050   0.19444   0.00000  Uiso   1.00
H206   H     0.86507   0.31357   0.47227   0.00000  Uiso   1.00
H207   H     0.91352   0.26779   0.13460   0.00000  Uiso   1.00
H208   H     0.80178   0.18512   0.37156   0.00000  Uiso   1.00
H209   H     0.99884   0.10379   0.21043   0.00000  Uiso   1.00
H210   H     0.75138   0.38579   0.38298   0.00000  Uiso   1.00
H211   H     0.76506   0.16045   0.11438   0.00000  Uiso   1.00
H212   H     0.71597   0.17775   0.06445   0.00000  Uiso   1.00
H213   H     0.98556   0.19172   0.12121   0.00000  Uiso   1.00
H214   H     0.67491   0.13452   0.12212   0.00000  Uiso   1.00
H215   H     0.70111   0.17189   0.16963   0.00000  Uiso   1.00
H216   H     0.67556   0.25170   0.30567   0.00000  Uiso   1.00
H217   H     0.93552   0.33007   0.34738   0.00000  Uiso   1.00
H218   H     0.94199   0.28373   0.38754   0.00000  Uiso   1.00
H219   H     0.95078   0.33631   0.45674   0.00000  Uiso   1.00
H220   H     0.99829   0.34856   0.41809   0.00000  Uiso   1.00
H221   H     0.94040   0.38333   0.41613   0.00000  Uiso   1.00
H222   H     0.67439   0.29056   0.06038   0.00000  Uiso   1.00
H223   H     0.76088   0.10917   0.45276   0.00000  Uiso   1.00
H224   H     0.74678   0.03442   0.26054   0.00000  Uiso   1.00
H225   H     0.86117   0.47010   0.18329   0.00000  Uiso   1.00
H226   H     0.75370   0.11551   0.26430   0.00000  Uiso   1.00
H227   H     0.86461   0.38945   0.18624   0.00000  Uiso   1.00
H228   H     0.90745   0.02510   0.23485   0.00000  Uiso   1.00
H229   H     0.78457   0.47270   0.30811   0.00000  Uiso   1.00
H230   H     0.75439   0.23203   0.02109   0.00000  Uiso   1.00
N231   N     0.83333   0.24999   0.12623   0.00000  Uiso   1.00
N232   N     0.83333   0.25001   0.37376   0.00000  Uiso   1.00
O233   O     0.83334   0.18454   0.28974   0.00000  Uiso   1.00
O234   O     0.96533   0.08680   0.21283   0.00000  Uiso   1.00
O235   O     0.74316   0.35332   0.30499   0.00000  Uiso   1.00
O236   O     0.77331   0.40335   0.36269   0.00000  Uiso   1.00
O237   O     0.74354   0.22810   0.11231   0.00000  Uiso   1.00
O238   O     0.87126   0.32257   0.38142   0.00000  Uiso   1.00
O239   O     0.94641   0.24484   0.00988   0.00000  Uiso   1.00
O240   O     0.97349   0.28879   0.07388   0.00000  Uiso   1.00
O241   O     0.82194   0.15429   0.00429   0.00000  Uiso   1.00
O242   O     0.76783   0.13778   0.43569   0.00000  Uiso   1.00
O243   O     0.83333   0.31547   0.21026   0.00000  Uiso   1.00
O244   O     0.83334   0.18453   0.21026   0.00000  Uiso   1.00
O245   O     0.83333   0.31547   0.28974   0.00000  Uiso   1.00
O246   O     0.75725   0.25000   0.28044   0.00000  Uiso   1.00
O247   O     0.90942   0.25000   0.21955   0.00000  Uiso   1.00
O248   O     0.75725   0.25000   0.20096   0.00000  Uiso   1.00
O249   O     0.90942   0.25001   0.29903   0.00000  Uiso   1.00
O250   O     0.94056   0.14981   0.24750   0.00000  Uiso   1.00
Zn251  Zn    0.83333   0.25001   0.30307   0.00000  Uiso   1.00
Zn252  Zn    0.83333   0.25000   0.19693   0.00000  Uiso   1.00
C253   C     0.16750   0.66415   0.25016   0.00000  Uiso   1.00
C254   C     0.15130   0.70923   0.44429   0.00000  Uiso   1.00
C255   C     0.17046   0.74664   0.02714   0.00000  Uiso   1.00
C256   C     0.16951   0.74615   0.47371   0.00000  Uiso   1.00
C257   C     0.06700   0.75026   0.23750   0.00000  Uiso   1.00
C258   C     0.26633   0.75072   0.26251   0.00000  Uiso   1.00
C259   C     0.01192   0.75082   0.23083   0.00000  Uiso   1.00
C260   C     0.32144   0.75130   0.26925   0.00000  Uiso   1.00
C261   C     0.11686   0.55007   0.25571   0.00000  Uiso   1.00
C262   C     0.17816   0.95294   0.21125   0.00000  Uiso   1.00
C263   C     0.12073   0.59593   0.25774   0.00000  Uiso   1.00
C264   C     0.16407   0.83609   0.24963   0.00000  Uiso   1.00
C265   C     0.17950   0.90703   0.21268   0.00000  Uiso   1.00
C266   C     0.16737   0.61655   0.25025   0.00000  Uiso   1.00
C267   C     0.15852   0.88411   0.24841   0.00000  Uiso   1.00
C268   C     0.21150   0.59157   0.24125   0.00000  Uiso   1.00
C269   C     0.13365   0.90764   0.28212   0.00000  Uiso   1.00
C270   C     0.20712   0.54536   0.24008   0.00000  Uiso   1.00
C271   C     0.13477   0.95402   0.28144   0.00000  Uiso   1.00
C272   C     0.16010   0.52475   0.24704   0.00000  Uiso   1.00
C273   C     0.15709   0.97651   0.24629   0.00000  Uiso   1.00
C274   C     0.26259   0.61185   0.23412   0.00000  Uiso   1.00
C275   C     0.12366   0.73855   0.04542   0.00000  Uiso   1.00
C276   C     0.10429   0.88568   0.31685   0.00000  Uiso   1.00
C277   C     0.06393   0.68283   0.10302   0.00000  Uiso   1.00
C278   C     0.02027   0.66949   0.13076   0.00000  Uiso   1.00
C279   C     0.25969   0.81856   0.38239   0.00000  Uiso   1.00
C280   C     0.28898   0.84861   0.42080   0.00000  Uiso   1.00
C281   C     0.26886   0.76303   0.04566   0.00000  Uiso   1.00
C282   C     0.13621   0.66599   0.46400   0.00000  Uiso   1.00
C283   C     0.18545   0.78442   0.45123   0.00000  Uiso   1.00
C284   C     0.12284   0.73813   0.09506   0.00000  Uiso   1.00
C285   C     0.18591   0.78523   0.40173   0.00000  Uiso   1.00
C286   C     0.21239   0.75944   0.10942   0.00000  Uiso   1.00
C287   C     0.14921   0.71286   0.39426   0.00000  Uiso   1.00
C288   C     0.21624   0.75677   0.06027   0.00000  Uiso   1.00
H289   H     0.32451   0.75050   0.19444   0.00000  Uiso   1.00
H290   H     0.19841   0.81357   0.47227   0.00000  Uiso   1.00
H291   H     0.24685   0.76779   0.13460   0.00000  Uiso   1.00
H292   H     0.13511   0.68512   0.37156   0.00000  Uiso   1.00
H293   H     0.33217   0.60379   0.21043   0.00000  Uiso   1.00
H294   H     0.08471   0.88579   0.38298   0.00000  Uiso   1.00
H295   H     0.09839   0.66045   0.11438   0.00000  Uiso   1.00
H296   H     0.04930   0.67775   0.06445   0.00000  Uiso   1.00
H297   H     0.31889   0.69172   0.12121   0.00000  Uiso   1.00
H298   H     0.00825   0.63452   0.12212   0.00000  Uiso   1.00
H299   H     0.03444   0.67189   0.16963   0.00000  Uiso   1.00
H300   H     0.00889   0.75170   0.30567   0.00000  Uiso   1.00
H301   H     0.26886   0.83007   0.34738   0.00000  Uiso   1.00
H302   H     0.27532   0.78373   0.38754   0.00000  Uiso   1.00
H303   H     0.28412   0.83631   0.45674   0.00000  Uiso   1.00
H304   H     0.33162   0.84856   0.41809   0.00000  Uiso   1.00
H305   H     0.27373   0.88333   0.41613   0.00000  Uiso   1.00
H306   H     0.00772   0.79056   0.06038   0.00000  Uiso   1.00
H307   H     0.09421   0.60917   0.45276   0.00000  Uiso   1.00
H308   H     0.08011   0.53442   0.26054   0.00000  Uiso   1.00
H309   H     0.19451   0.97010   0.18329   0.00000  Uiso   1.00
H310   H     0.08704   0.61551   0.26430   0.00000  Uiso   1.00
H311   H     0.19795   0.88945   0.18624   0.00000  Uiso   1.00
H312   H     0.24078   0.52510   0.23485   0.00000  Uiso   1.00
H313   H     0.11790   0.97270   0.30811   0.00000  Uiso   1.00
H314   H     0.08772   0.73203   0.02109   0.00000  Uiso   1.00
N315   N     0.16667   0.74999   0.12623   0.00000  Uiso   1.00
N316   N     0.16667   0.75001   0.37376   0.00000  Uiso   1.00
O317   O     0.16667   0.68454   0.28974   0.00000  Uiso   1.00
O318   O     0.29867   0.58680   0.21283   0.00000  Uiso   1.00
O319   O     0.07649   0.85332   0.30499   0.00000  Uiso   1.00
O320   O     0.10664   0.90335   0.36269   0.00000  Uiso   1.00
O321   O     0.07688   0.72810   0.11231   0.00000  Uiso   1.00
O322   O     0.20460   0.82257   0.38142   0.00000  Uiso   1.00
O323   O     0.27974   0.74484   0.00988   0.00000  Uiso   1.00
O324   O     0.30682   0.78879   0.07388   0.00000  Uiso   1.00
O325   O     0.15527   0.65429   0.00429   0.00000  Uiso   1.00
O326   O     0.10116   0.63778   0.43569   0.00000  Uiso   1.00
O327   O     0.16666   0.81547   0.21026   0.00000  Uiso   1.00
O328   O     0.16667   0.68453   0.21026   0.00000  Uiso   1.00
O329   O     0.16666   0.81547   0.28974   0.00000  Uiso   1.00
O330   O     0.09058   0.75000   0.28044   0.00000  Uiso   1.00
O331   O     0.24275   0.75000   0.21955   0.00000  Uiso   1.00
O332   O     0.09058   0.75000   0.20096   0.00000  Uiso   1.00
O333   O     0.24275   0.75001   0.29903   0.00000  Uiso   1.00
O334   O     0.27389   0.64981   0.24750   0.00000  Uiso   1.00
Zn335  Zn    0.16667   0.75001   0.30307   0.00000  Uiso   1.00
Zn336  Zn    0.16667   0.75000   0.19693   0.00000  Uiso   1.00
C337   C     0.50084   0.66415   0.25016   0.00000  Uiso   1.00
C338   C     0.48463   0.70923   0.44429   0.00000  Uiso   1.00
C339   C     0.50379   0.74664   0.02714   0.00000  Uiso   1.00
C340   C     0.50284   0.74615   0.47371   0.00000  Uiso   1.00
C341   C     0.40034   0.75026   0.23750   0.00000  Uiso   1.00
C342   C     0.59966   0.75072   0.26251   0.00000  Uiso   1.00
C343   C     0.34526   0.75082   0.23083   0.00000  Uiso   1.00
C344   C     0.65477   0.75130   0.26925   0.00000  Uiso   1.00
C345   C     0.45019   0.55007   0.25571   0.00000  Uiso   1.00
C346   C     0.51149   0.95294   0.21125   0.00000  Uiso   1.00
C347   C     0.45407   0.59593   0.25774   0.00000  Uiso   1.00
C348   C     0.49740   0.83609   0.24963   0.00000  Uiso   1.00
C349   C     0.51284   0.90703   0.21268   0.00000  Uiso   1.00
C350   C     0.50070   0.61655   0.25025   0.00000  Uiso   1.00
C351   C     0.49186   0.88411   0.24841   0.00000  Uiso   1.00
C352   C     0.54483   0.59157   0.24125   0.00000  Uiso   1.00
C353   C     0.46698   0.90764   0.28212   0.00000  Uiso   1.00
C354   C     0.54046   0.54536   0.24008   0.00000  Uiso   1.00
C355   C     0.46811   0.95402   0.28144   0.00000  Uiso   1.00
C356   C     0.49344   0.52475   0.24704   0.00000  Uiso   1.00
C357   C     0.49042   0.97651   0.24629   0.00000  Uiso   1.00
C358   C     0.59593   0.61185   0.23412   0.00000  Uiso   1.00
C359   C     0.45699   0.73855   0.04542   0.00000  Uiso   1.00
C360   C     0.43762   0.88568   0.31685   0.00000  Uiso   1.00
C361   C     0.39726   0.68283   0.10302   0.00000  Uiso   1.00
C362   C     0.35360   0.66949   0.13076   0.00000  Uiso   1.00
C363   C     0.59302   0.81856   0.38239   0.00000  Uiso   1.00
C364   C     0.62232   0.84861   0.42080   0.00000  Uiso   1.00
C365   C     0.60219   0.76303   0.04566   0.00000  Uiso   1.00
C366   C     0.46955   0.66599   0.46400   0.00000  Uiso   1.00
C367   C     0.51878   0.78442   0.45123   0.00000  Uiso   1.00
C368   C     0.45618   0.73813   0.09506   0.00000  Uiso   1.00
C369   C     0.51924   0.78523   0.40173   0.00000  Uiso   1.00
C370   C     0.54572   0.75944   0.10942   0.00000  Uiso   1.00
C371   C     0.48254   0.71286   0.39426   0.00000  Uiso   1.00
C372   C     0.54957   0.75677   0.06027   0.00000  Uiso   1.00
H373   H     0.65784   0.75050   0.19444   0.00000  Uiso   1.00
H374   H     0.53174   0.81357   0.47227   0.00000  Uiso   1.00
H375   H     0.58018   0.76779   0.13460   0.00000  Uiso   1.00
H376   H     0.46844   0.68512   0.37156   0.00000  Uiso   1.00
H377   H     0.66551   0.60379   0.21043   0.00000  Uiso   1.00
H378   H     0.41804   0.88579   0.38298   0.00000  Uiso   1.00
H379   H     0.43173   0.66045   0.11438   0.00000  Uiso   1.00
H380   H     0.38264   0.67775   0.06445   0.00000  Uiso   1.00
H381   H     0.65223   0.69172   0.12121   0.00000  Uiso   1.00
H382   H     0.34158   0.63452   0.12212   0.00000  Uiso   1.00
H383   H     0.36777   0.67189   0.16963   0.00000  Uiso   1.00
H384   H     0.34223   0.75170   0.30567   0.00000  Uiso   1.00
H385   H     0.60219   0.83007   0.34738   0.00000  Uiso   1.00
H386   H     0.60866   0.78373   0.38754   0.00000  Uiso   1.00
H387   H     0.61745   0.83631   0.45674   0.00000  Uiso   1.00
H388   H     0.66496   0.84856   0.41809   0.00000  Uiso   1.00
H389   H     0.60707   0.88333   0.41613   0.00000  Uiso   1.00
H390   H     0.34105   0.79056   0.06038   0.00000  Uiso   1.00
H391   H     0.42755   0.60917   0.45276   0.00000  Uiso   1.00
H392   H     0.41344   0.53442   0.26054   0.00000  Uiso   1.00
H393   H     0.52784   0.97010   0.18329   0.00000  Uiso   1.00
H394   H     0.42037   0.61551   0.26430   0.00000  Uiso   1.00
H395   H     0.53128   0.88945   0.18624   0.00000  Uiso   1.00
H396   H     0.57412   0.52510   0.23485   0.00000  Uiso   1.00
H397   H     0.45124   0.97270   0.30811   0.00000  Uiso   1.00
H398   H     0.42106   0.73203   0.02109   0.00000  Uiso   1.00
N399   N     0.50000   0.74999   0.12623   0.00000  Uiso   1.00
N400   N     0.50000   0.75001   0.37376   0.00000  Uiso   1.00
O401   O     0.50000   0.68454   0.28974   0.00000  Uiso   1.00
O402   O     0.63200   0.58680   0.21283   0.00000  Uiso   1.00
O403   O     0.40983   0.85332   0.30499   0.00000  Uiso   1.00
O404   O     0.43998   0.90335   0.36269   0.00000  Uiso   1.00
O405   O     0.41021   0.72810   0.11231   0.00000  Uiso   1.00
O406   O     0.53793   0.82257   0.38142   0.00000  Uiso   1.00
O407   O     0.61308   0.74484   0.00988   0.00000  Uiso   1.00
O408   O     0.64016   0.78879   0.07388   0.00000  Uiso   1.00
O409   O     0.48860   0.65429   0.00429   0.00000  Uiso   1.00
O410   O     0.43450   0.63778   0.43569   0.00000  Uiso   1.00
O411   O     0.50000   0.81547   0.21026   0.00000  Uiso   1.00
O412   O     0.50000   0.68453   0.21026   0.00000  Uiso   1.00
O413   O     0.50000   0.81547   0.28974   0.00000  Uiso   1.00
O414   O     0.42392   0.75000   0.28044   0.00000  Uiso   1.00
O415   O     0.57608   0.75000   0.21955   0.00000  Uiso   1.00
O416   O     0.42392   0.75000   0.20096   0.00000  Uiso   1.00
O417   O     0.57608   0.75001   0.29903   0.00000  Uiso   1.00
O418   O     0.60723   0.64981   0.24750   0.00000  Uiso   1.00
Zn419  Zn    0.50000   0.75001   0.30307   0.00000  Uiso   1.00
Zn420  Zn    0.50000   0.75000   0.19693   0.00000  Uiso   1.00
C421   C     0.83417   0.66415   0.25016   0.00000  Uiso   1.00
C422   C     0.81796   0.70923   0.44429   0.00000  Uiso   1.00
C423   C     0.83712   0.74664   0.02714   0.00000  Uiso   1.00
C424   C     0.83618   0.74615   0.47371   0.00000  Uiso   1.00
C425   C     0.73367   0.75026   0.23750   0.00000  Uiso   1.00
C426   C     0.93299   0.75072   0.26251   0.00000  Uiso   1.00
C427   C     0.67859   0.75082   0.23083   0.00000  Uiso   1.00
C428   C     0.98810   0.75130   0.26925   0.00000  Uiso   1.00
C429   C     0.78352   0.55007   0.25571   0.00000  Uiso   1.00
C430   C     0.84482   0.95294   0.21125   0.00000  Uiso   1.00
C431   C     0.78740   0.59593   0.25774   0.00000  Uiso   1.00
C432   C     0.83074   0.83609   0.24963   0.00000  Uiso   1.00
C433   C     0.84617   0.90703   0.21268   0.00000  Uiso   1.00
C434   C     0.83404   0.61655   0.25025   0.00000  Uiso   1.00
C435   C     0.82519   0.88411   0.24841   0.00000  Uiso   1.00
C436   C     0.87816   0.59157   0.24125   0.00000  Uiso   1.00
C437   C     0.80032   0.90764   0.28212   0.00000  Uiso   1.00
C438   C     0.87379   0.54536   0.24008   0.00000  Uiso   1.00
C439   C     0.80144   0.95402   0.28144   0.00000  Uiso   1.00
C440   C     0.82677   0.52475   0.24704   0.00000  Uiso   1.00
C441   C     0.82375   0.97651   0.24629   0.00000  Uiso   1.00
C442   C     0.92926   0.61185   0.23412   0.00000  Uiso   1.00
C443   C     0.79033   0.73855   0.04542   0.00000  Uiso   1.00
C444   C     0.77096   0.88568   0.31685   0.00000  Uiso   1.00
C445   C     0.73060   0.68283   0.10302   0.00000  Uiso   1.00
C446   C     0.68694   0.66949   0.13076   0.00000  Uiso   1.00
C447   C     0.92635   0.81856   0.38239   0.00000  Uiso   1.00
C448   C     0.95565   0.84861   0.42080   0.00000  Uiso   1.00
C449   C     0.93552   0.76303   0.04566   0.00000  Uiso   1.00
C450   C     0.80288   0.66599   0.46400   0.00000  Uiso   1.00
C451   C     0.85211   0.78442   0.45123   0.00000  Uiso   1.00
C452   C     0.78951   0.73813   0.09506   0.00000  Uiso   1.00
C453   C     0.85258   0.78523   0.40173   0.00000  Uiso   1.00
C454   C     0.87905   0.75944   0.10942   0.00000  Uiso   1.00
C455   C     0.81588   0.71286   0.39426   0.00000  Uiso   1.00
C456   C     0.88290   0.75677   0.06027   0.00000  Uiso   1.00
H457   H     0.99117   0.75050   0.19444   0.00000  Uiso   1.00
H458   H     0.86507   0.81357   0.47227   0.00000  Uiso   1.00
H459   H     0.91352   0.76779   0.13460   0.00000  Uiso   1.00
H460   H     0.80178   0.68512   0.37156   0.00000  Uiso   1.00
H461   H     0.99884   0.60379   0.21043   0.00000  Uiso   1.00
H462   H     0.75138   0.88579   0.38298   0.00000  Uiso   1.00
H463   H     0.76506   0.66045   0.11438   0.00000  Uiso   1.00
H464   H     0.71597   0.67775   0.06445   0.00000  Uiso   1.00
H465   H     0.98556   0.69172   0.12121   0.00000  Uiso   1.00
H466   H     0.67491   0.63452   0.12212   0.00000  Uiso   1.00
H467   H     0.70111   0.67189   0.16963   0.00000  Uiso   1.00
H468   H     0.67556   0.75170   0.30567   0.00000  Uiso   1.00
H469   H     0.93552   0.83007   0.34738   0.00000  Uiso   1.00
H470   H     0.94199   0.78373   0.38754   0.00000  Uiso   1.00
H471   H     0.95078   0.83631   0.45674   0.00000  Uiso   1.00
H472   H     0.99829   0.84856   0.41809   0.00000  Uiso   1.00
H473   H     0.94040   0.88333   0.41613   0.00000  Uiso   1.00
H474   H     0.67439   0.79056   0.06038   0.00000  Uiso   1.00
H475   H     0.76088   0.60917   0.45276   0.00000  Uiso   1.00
H476   H     0.74678   0.53442   0.26054   0.00000  Uiso   1.00
H477   H     0.86117   0.97010   0.18329   0.00000  Uiso   1.00
H478   H     0.75370   0.61551   0.26430   0.00000  Uiso   1.00
H479   H     0.86461   0.88945   0.18624   0.00000  Uiso   1.00
H480   H     0.90745   0.52510   0.23485   0.00000  Uiso   1.00
H481   H     0.78457   0.97270   0.30811   0.00000  Uiso   1.00
H482   H     0.75439   0.73203   0.02109   0.00000  Uiso   1.00
N483   N     0.83333   0.74999   0.12623   0.00000  Uiso   1.00
N484   N     0.83333   0.75001   0.37376   0.00000  Uiso   1.00
O485   O     0.83334   0.68454   0.28974   0.00000  Uiso   1.00
O486   O     0.96533   0.58680   0.21283   0.00000  Uiso   1.00
O487   O     0.74316   0.85332   0.30499   0.00000  Uiso   1.00
O488   O     0.77331   0.90335   0.36269   0.00000  Uiso   1.00
O489   O     0.74354   0.72810   0.11231   0.00000  Uiso   1.00
O490   O     0.87126   0.82257   0.38142   0.00000  Uiso   1.00
O491   O     0.94641   0.74484   0.00988   0.00000  Uiso   1.00
O492   O     0.97349   0.78879   0.07388   0.00000  Uiso   1.00
O493   O     0.82194   0.65429   0.00429   0.00000  Uiso   1.00
O494   O     0.76783   0.63778   0.43569   0.00000  Uiso   1.00
O495   O     0.83333   0.81547   0.21026   0.00000  Uiso   1.00
O496   O     0.83334   0.68453   0.21026   0.00000  Uiso   1.00
O497   O     0.83333   0.81547   0.28974   0.00000  Uiso   1.00
O498   O     0.75725   0.75000   0.28044   0.00000  Uiso   1.00
O499   O     0.90942   0.75000   0.21955   0.00000  Uiso   1.00
O500   O     0.75725   0.75000   0.20096   0.00000  Uiso   1.00
O501   O     0.90942   0.75001   0.29903   0.00000  Uiso   1.00
O502   O     0.94056   0.64981   0.24750   0.00000  Uiso   1.00
Zn503  Zn    0.83333   0.75001   0.30307   0.00000  Uiso   1.00
Zn504  Zn    0.83333   0.75000   0.19693   0.00000  Uiso   1.00
C505   C     0.16750   0.16415   0.75016   0.00000  Uiso   1.00
C506   C     0.15130   0.20923   0.94429   0.00000  Uiso   1.00
C507   C     0.17046   0.24664   0.52714   0.00000  Uiso   1.00
C508   C     0.16951   0.24615   0.97371   0.00000  Uiso   1.00
C509   C     0.06700   0.25026   0.73750   0.00000  Uiso   1.00
C510   C     0.26633   0.25072   0.76251   0.00000  Uiso   1.00
C511   C     0.01192   0.25082   0.73083   0.00000  Uiso   1.00
C512   C     0.32144   0.25130   0.76925   0.00000  Uiso   1.00
C513   C     0.11686   0.05007   0.75571   0.00000  Uiso   1.00
C514   C     0.17816   0.45294   0.71125   0.00000  Uiso   1.00
C515   C     0.12073   0.09593   0.75774   0.00000  Uiso   1.00
C516   C     0.16407   0.33609   0.74963   0.00000  Uiso   1.00
C517   C     0.17950   0.40703   0.71268   0.00000  Uiso   1.00
C518   C     0.16737   0.11655   0.75025   0.00000  Uiso   1.00
C519   C     0.15852   0.38411   0.74841   0.00000  Uiso   1.00
C520   C     0.21150   0.09157   0.74125   0.00000  Uiso   1.00
C521   C     0.13365   0.40764   0.78212   0.00000  Uiso   1.00
C522   C     0.20712   0.04536   0.74008   0.00000  Uiso   1.00
C523   C     0.13477   0.45402   0.78144   0.00000  Uiso   1.00
C524   C     0.16010   0.02475   0.74704   0.00000  Uiso   1.00
C525   C     0.15709   0.47651   0.74629   0.00000  Uiso   1.00
C526   C     0.26259   0.11185   0.73412   0.00000  Uiso   1.00
C527   C     0.12366   0.23855   0.54542   0.00000  Uiso   1.00
C528   C     0.10429   0.38568   0.81685   0.00000  Uiso   1.00
C529   C     0.06393   0.18283   0.60302   0.00000  Uiso   1.00
C530   C     0.02027   0.16949   0.63076   0.00000  Uiso   1.00
C531   C     0.25969   0.31856   0.88239   0.00000  Uiso   1.00
C532   C     0.28898   0.34861   0.92080   0.00000  Uiso   1.00
C533   C     0.26886   0.26303   0.54566   0.00000  Uiso   1.00
C534   C     0.13621   0.16599   0.96400   0.00000  Uiso   1.00
C535   C     0.18545   0.28442   0.95123   0.00000  Uiso   1.00
C536   C     0.12284   0.23813   0.59506   0.00000  Uiso   1.00
C537   C     0.18591   0.28523   0.90173   0.00000  Uiso   1.00
C538   C     0.21239   0.25944   0.60942   0.00000  Uiso   1.00
C539   C     0.14921   0.21286   0.89426   0.00000  Uiso   1.00
C540   C     0.21624   0.25677   0.56027   0.00000  Uiso   1.00
H541   H     0.32451   0.25050   0.69444   0.00000  Uiso   1.00
H542   H     0.19841   0.31357   0.97227   0.00000  Uiso   1.00
H543   H     0.24685   0.26779   0.63460   0.00000  Uiso   1.00
H544   H     0.13511   0.18512   0.87156   0.00000  Uiso   1.00
H545   H     0.33217   0.10379   0.71043   0.00000  Uiso   1.00
H546   H     0.08471   0.38579   0.88298   0.00000  Uiso   1.00
H547   H     0.09839   0.16045   0.61438   0.00000  Uiso   1.00
H548   H     0.04930   0.17775   0.56445   0.00000  Uiso   1.00
H549   H     0.31889   0.19172   0.62121   0.00000  Uiso   1.00
H550   H     0.00825   0.13452   0.62212   0.00000  Uiso   1.00
H551   H     0.03444   0.17189   0.66963   0.00000  Uiso   1.00
H552   H     0.00889   0.25170   0.80567   0.00000  Uiso   1.00
H553   H     0.26886   0.33007   0.84738   0.00000  Uiso   1.00
H554   H     0.27532   0.28373   0.88754   0.00000  Uiso   1.00
H555   H     0.28412   0.33631   0.95674   0.00000  Uiso   1.00
H556   H     0.33162   0.34856   0.91809   0.00000  Uiso   1.00
H557   H     0.27373   0.38333   0.91613   0.00000  Uiso   1.00
H558   H     0.00772   0.29056   0.56038   0.00000  Uiso   1.00
H559   H     0.09421   0.10917   0.95276   0.00000  Uiso   1.00
H560   H     0.08011   0.03442   0.76054   0.00000  Uiso   1.00
H561   H     0.19451   0.47010   0.68329   0.00000  Uiso   1.00
H562   H     0.08704   0.11551   0.76430   0.00000  Uiso   1.00
H563   H     0.19795   0.38945   0.68624   0.00000  Uiso   1.00
H564   H     0.24078   0.02510   0.73485   0.00000  Uiso   1.00
H565   H     0.11790   0.47270   0.80811   0.00000  Uiso   1.00
H566   H     0.08772   0.23203   0.52109   0.00000  Uiso   1.00
N567   N     0.16667   0.24999   0.62623   0.00000  Uiso   1.00
N568   N     0.16667   0.25001   0.87376   0.00000  Uiso   1.00
O569   O     0.16667   0.18454   0.78974   0.00000  Uiso   1.00
O570   O     0.29867   0.08680   0.71283   0.00000  Uiso   1.00
O571   O     0.07649   0.35332   0.80499   0.00000  Uiso   1.00
O572   O     0.10664   0.40335   0.86269   0.00000  Uiso   1.00
O573   O     0.07688   0.22810   0.61231   0.00000  Uiso   1.00
O574   O     0.20460   0.32257   0.88142   0.00000  Uiso   1.00
O575   O     0.27974   0.24484   0.50988   0.00000  Uiso   1.00
O576   O     0.30682   0.28879   0.57388   0.00000  Uiso   1.00
O577   O     0.15527   0.15429   0.50429   0.00000  Uiso   1.00
O578   O     0.10116   0.13778   0.93569   0.00000  Uiso   1.00
O579   O     0.16666   0.31547   0.71026   0.00000  Uiso   1.00
O580   O     0.16667   0.18453   0.71026   0.00000  Uiso   1.00
O581   O     0.16666   0.31547   0.78974   0.00000  Uiso   1.00
O582   O     0.09058   0.25000   0.78044   0.00000  Uiso   1.00
O583   O     0.24275   0.25000   0.71955   0.00000  Uiso   1.00
O584   O     0.09058   0.25000   0.70096   0.00000  Uiso   1.00
O585   O     0.24275   0.25001   0.79903   0.00000  Uiso   1.00
O586   O     0.27389   0.14981   0.74750   0.00000  Uiso   1.00
Zn587  Zn    0.16667   0.25001   0.80307   0.00000  Uiso   1.00
Zn588  Zn    0.16667   0.25000   0.69693   0.00000  Uiso   1.00
C589   C     0.50084   0.16415   0.75016   0.00000  Uiso   1.00
C590   C     0.48463   0.20923   0.94429   0.00000  Uiso   1.00
C591   C     0.50379   0.24664   0.52714   0.00000  Uiso   1.00
C592   C     0.50284   0.24615   0.97371   0.00000  Uiso   1.00
C593   C     0.40034   0.25026   0.73750   0.00000  Uiso   1.00
C594   C     0.59966   0.25072   0.76251   0.00000  Uiso   1.00
C595   C     0.34526   0.25082   0.73083   0.00000  Uiso   1.00
C596   C     0.65477   0.25130   0.76925   0.00000  Uiso   1.00
C597   C     0.45019   0.05007   0.75571   0.00000  Uiso   1.00
C598   C     0.51149   0.45294   0.71125   0.00000  Uiso   1.00
C599   C     0.45407   0.09593   0.75774   0.00000  Uiso   1.00
C600   C     0.49740   0.33609   0.74963   0.00000  Uiso   1.00
C601   C     0.51284   0.40703   0.71268   0.00000  Uiso   1.00
C602   C     0.50070   0.11655   0.75025   0.00000  Uiso   1.00
C603   C     0.49186   0.38411   0.74841   0.00000  Uiso   1.00
C604   C     0.54483   0.09157   0.74125   0.00000  Uiso   1.00
C605   C     0.46698   0.40764   0.78212   0.00000  Uiso   1.00
C606   C     0.54046   0.04536   0.74008   0.00000  Uiso   1.00
C607   C     0.46811   0.45402   0.78144   0.00000  Uiso   1.00
C608   C     0.49344   0.02475   0.74704   0.00000  Uiso   1.00
C609   C     0.49042   0.47651   0.74629   0.00000  Uiso   1.00
C610   C     0.59593   0.11185   0.73412   0.00000  Uiso   1.00
C611   C     0.45699   0.23855   0.54542   0.00000  Uiso   1.00
C612   C     0.43762   0.38568   0.81685   0.00000  Uiso   1.00
C613   C     0.39726   0.18283   0.60302   0.00000  Uiso   1.00
C614   C     0.35360   0.16949   0.63076   0.00000  Uiso   1.00
C615   C     0.59302   0.31856   0.88239   0.00000  Uiso   1.00
C616   C     0.62232   0.34861   0.92080   0.00000  Uiso   1.00
C617   C     0.60219   0.26303   0.54566   0.00000  Uiso   1.00
C618   C     0.46955   0.16599   0.96400   0.00000  Uiso   1.00
C619   C     0.51878   0.28442   0.95123   0.00000  Uiso   1.00
C620   C     0.45618   0.23813   0.59506   0.00000  Uiso   1.00
C621   C     0.51924   0.28523   0.90173   0.00000  Uiso   1.00
C622   C     0.54572   0.25944   0.60942   0.00000  Uiso   1.00
C623   C     0.48254   0.21286   0.89426   0.00000  Uiso   1.00
C624   C     0.54957   0.25677   0.56027   0.00000  Uiso   1.00
H625   H     0.65784   0.25050   0.69444   0.00000  Uiso   1.00
H626   H     0.53174   0.31357   0.97227   0.00000  Uiso   1.00
H627   H     0.58018   0.26779   0.63460   0.00000  Uiso   1.00
H628   H     0.46844   0.18512   0.87156   0.00000  Uiso   1.00
H629   H     0.66551   0.10379   0.71043   0.00000  Uiso   1.00
H630   H     0.41804   0.38579   0.88298   0.00000  Uiso   1.00
H631   H     0.43173   0.16045   0.61438   0.00000  Uiso   1.00
H632   H     0.38264   0.17775   0.56445   0.00000  Uiso   1.00
H633   H     0.65223   0.19172   0.62121   0.00000  Uiso   1.00
H634   H     0.34158   0.13452   0.62212   0.00000  Uiso   1.00
H635   H     0.36777   0.17189   0.66963   0.00000  Uiso   1.00
H636   H     0.34223   0.25170   0.80567   0.00000  Uiso   1.00
H637   H     0.60219   0.33007   0.84738   0.00000  Uiso   1.00
H638   H     0.60866   0.28373   0.88754   0.00000  Uiso   1.00
H639   H     0.61745   0.33631   0.95674   0.00000  Uiso   1.00
H640   H     0.66496   0.34856   0.91809   0.00000  Uiso   1.00
H641   H     0.60707   0.38333   0.91613   0.00000  Uiso   1.00
H642   H     0.34105   0.29056   0.56038   0.00000  Uiso   1.00
H643   H     0.42755   0.10917   0.95276   0.00000  Uiso   1.00
H644   H     0.41344   0.03442   0.76054   0.00000  Uiso   1.00
H645   H     0.52784   0.47010   0.68329   0.00000  Uiso   1.00
H646   H     0.42037   0.11551   0.76430   0.00000  Uiso   1.00
H647   H     0.53128   0.38945   0.68624   0.00000  Uiso   1.00
H648   H     0.57412   0.02510   0.73485   0.00000  Uiso   1.00
H649   H     0.45124   0.47270   0.80811   0.00000  Uiso   1.00
H650   H     0.42106   0.23203   0.52109   0.00000  Uiso   1.00
N651   N     0.50000   0.24999   0.62623   0.00000  Uiso   1.00
N652   N     0.50000   0.25001   0.87376   0.00000  Uiso   1.00
O653   O     0.50000   0.18454   0.78974   0.00000  Uiso   1.00
O654   O     0.63200   0.08680   0.71283   0.00000  Uiso   1.00
O655   O     0.40983   0.35332   0.80499   0.00000  Uiso   1.00
O656   O     0.43998   0.40335   0.86269   0.00000  Uiso   1.00
O657   O     0.41021   0.22810   0.61231   0.00000  Uiso   1.00
O658   O     0.53793   0.32257   0.88142   0.00000  Uiso   1.00
O659   O     0.61308   0.24484   0.50988   0.00000  Uiso   1.00
O660   O     0.64016   0.28879   0.57388   0.00000  Uiso   1.00
O661   O     0.48860   0.15429   0.50429   0.00000  Uiso   1.00
O662   O     0.43450   0.13778   0.93569   0.00000  Uiso   1.00
O663   O     0.50000   0.31547   0.71026   0.00000  Uiso   1.00
O664   O     0.50000   0.18453   0.71026   0.00000  Uiso   1.00
O665   O     0.50000   0.31547   0.78974   0.00000  Uiso   1.00
O666   O     0.42392   0.25000   0.78044   0.00000  Uiso   1.00
O667   O     0.57608   0.25000   0.71955   0.00000  Uiso   1.00
O668   O     0.42392   0.25000   0.70096   0.00000  Uiso   1.00
O669   O     0.57608   0.25001   0.79903   0.00000  Uiso   1.00
O670   O     0.60723   0.14981   0.74750   0.00000  Uiso   1.00
Zn671  Zn    0.50000   0.25001   0.80307   0.00000  Uiso   1.00
Zn672  Zn    0.50000   0.25000   0.69693   0.00000  Uiso   1.00
C673   C     0.83417   0.16415   0.75016   0.00000  Uiso   1.00
C674   C     0.81796   0.20923   0.94429   0.00000  Uiso   1.00
C675   C     0.83712   0.24664   0.52714   0.00000  Uiso   1.00
C676   C     0.83618   0.24615   0.97371   0.00000  Uiso   1.00
C677   C     0.73367   0.25026   0.73750   0.00000  Uiso   1.00
C678   C     0.93299   0.25072   0.76251   0.00000  Uiso   1.00
C679   C     0.67859   0.25082   0.73083   0.00000  Uiso   1.00
C680   C     0.98810   0.25130   0.76925   0.00000  Uiso   1.00
C681   C     0.78352   0.05007   0.75571   0.00000  Uiso   1.00
C682   C     0.84482   0.45294   0.71125   0.00000  Uiso   1.00
C683   C     0.78740   0.09593   0.75774   0.00000  Uiso   1.00
C684   C     0.83074   0.33609   0.74963   0.00000  Uiso   1.00
C685   C     0.84617   0.40703   0.71268   0.00000  Uiso   1.00
C686   C     0.83404   0.11655   0.75025   0.00000  Uiso   1.00
C687   C     0.82519   0.38411   0.74841   0.00000  Uiso   1.00
C688   C     0.87816   0.09157   0.74125   0.00000  Uiso   1.00
C689   C     0.80032   0.40764   0.78212   0.00000  Uiso   1.00
C690   C     0.87379   0.04536   0.74008   0.00000  Uiso   1.00
C691   C     0.80144   0.45402   0.78144   0.00000  Uiso   1.00
C692   C     0.82677   0.02475   0.74704   0.00000  Uiso   1.00
C693   C     0.82375   0.47651   0.74629   0.00000  Uiso   1.00
C694   C     0.92926   0.11185   0.73412   0.00000  Uiso   1.00
C695   C     0.79033   0.23855   0.54542   0.00000  Uiso   1.00
C696   C     0.77096   0.38568   0.81685   0.00000  Uiso   1.00
C697   C     0.73060   0.18283   0.60302   0.00000  Uiso   1.00
C698   C     0.68694   0.16949   0.63076   0.00000  Uiso   1.00
C699   C     0.92635   0.31856   0.88239   0.00000  Uiso   1.00
C700   C     0.95565   0.34861   0.92080   0.00000  Uiso   1.00
C701   C     0.93552   0.26303   0.54566   0.00000  Uiso   1.00
C702   C     0.80288   0.16599   0.96400   0.00000  Uiso   1.00
C703   C     0.85211   0.28442   0.95123   0.00000  Uiso   1.00
C704   C     0.78951   0.23813   0.59506   0.00000  Uiso   1.00
C705   C     0.85258   0.28523   0.90173   0.00000  Uiso   1.00
C706   C     0.87905   0.25944   0.60942   0.00000  Uiso   1.00
C707   C     0.81588   0.21286   0.89426   0.00000  Uiso   1.00
C708   C     0.88290   0.25677   0.56027   0.00000  Uiso   1.00
H709   H     0.99117   0.25050   0.69444   0.00000  Uiso   1.00
H710   H     0.86507   0.31357   0.97227   0.00000  Uiso   1.00
H711   H     0.91352   0.26779   0.63460   0.00000  Uiso   1.00
H712   H     0.80178   0.18512   0.87156   0.00000  Uiso   1.00
H713   H     0.99884   0.10379   0.71043   0.00000  Uiso   1.00
H714   H     0.75138   0.38579   0.88298   0.00000  Uiso   1.00
H715   H     0.76506   0.16045   0.61438   0.00000  Uiso   1.00
H716   H     0.71597   0.17775   0.56445   0.00000  Uiso   1.00
H717   H     0.98556   0.19172   0.62121   0.00000  Uiso   1.00
H718   H     0.67491   0.13452   0.62212   0.00000  Uiso   1.00
H719   H     0.70111   0.17189   0.66963   0.00000  Uiso   1.00
H720   H     0.67556   0.25170   0.80567   0.00000  Uiso   1.00
H721   H     0.93552   0.33007   0.84738   0.00000  Uiso   1.00
H722   H     0.94199   0.28373   0.88754   0.00000  Uiso   1.00
H723   H     0.95078   0.33631   0.95674   0.00000  Uiso   1.00
H724   H     0.99829   0.34856   0.91809   0.00000  Uiso   1.00
H725   H     0.94040   0.38333   0.91613   0.00000  Uiso   1.00
H726   H     0.67439   0.29056   0.56038   0.00000  Uiso   1.00
H727   H     0.76088   0.10917   0.95276   0.00000  Uiso   1.00
H728   H     0.74678   0.03442   0.76054   0.00000  Uiso   1.00
H729   H     0.86117   0.47010   0.68329   0.00000  Uiso   1.00
H730   H     0.75370   0.11551   0.76430   0.00000  Uiso   1.00
H731   H     0.86461   0.38945   0.68624   0.00000  Uiso   1.00
H732   H     0.90745   0.02510   0.73485   0.00000  Uiso   1.00
H733   H     0.78457   0.47270   0.80811   0.00000  Uiso   1.00
H734   H     0.75439   0.23203   0.52109   0.00000  Uiso   1.00
N735   N     0.83333   0.24999   0.62623   0.00000  Uiso   1.00
N736   N     0.83333   0.25001   0.87376   0.00000  Uiso   1.00
O737   O     0.83334   0.18454   0.78974   0.00000  Uiso   1.00
O738   O     0.96533   0.08680   0.71283   0.00000  Uiso   1.00
O739   O     0.74316   0.35332   0.80499   0.00000  Uiso   1.00
O740   O     0.77331   0.40335   0.86269   0.00000  Uiso   1.00
O741   O     0.74354   0.22810   0.61231   0.00000  Uiso   1.00
O742   O     0.87126   0.32257   0.88142   0.00000  Uiso   1.00
O743   O     0.94641   0.24484   0.50988   0.00000  Uiso   1.00
O744   O     0.97349   0.28879   0.57388   0.00000  Uiso   1.00
O745   O     0.82194   0.15429   0.50429   0.00000  Uiso   1.00
O746   O     0.76783   0.13778   0.93569   0.00000  Uiso   1.00
O747   O     0.83333   0.31547   0.71026   0.00000  Uiso   1.00
O748   O     0.83334   0.18453   0.71026   0.00000  Uiso   1.00
O749   O     0.83333   0.31547   0.78974   0.00000  Uiso   1.00
O750   O     0.75725   0.25000   0.78044   0.00000  Uiso   1.00
O751   O     0.90942   0.25000   0.71955   0.00000  Uiso   1.00
O752   O     0.75725   0.25000   0.70096   0.00000  Uiso   1.00
O753   O     0.90942   0.25001   0.79903   0.00000  Uiso   1.00
O754   O     0.94056   0.14981   0.74750   0.00000  Uiso   1.00
Zn755  Zn    0.83333   0.25001   0.80307   0.00000  Uiso   1.00
Zn756  Zn    0.83333   0.25000   0.69693   0.00000  Uiso   1.00
C757   C     0.16750   0.66415   0.75016   0.00000  Uiso   1.00
C758   C     0.15130   0.70923   0.94429   0.00000  Uiso   1.00
C759   C     0.17046   0.74664   0.52714   0.00000  Uiso   1.00
C760   C     0.16951   0.74615   0.97371   0.00000  Uiso   1.00
C761   C     0.06700   0.75026   0.73750   0.00000  Uiso   1.00
C762   C     0.26633   0.75072   0.76251   0.00000  Uiso   1.00
C763   C     0.01192   0.75082   0.73083   0.00000  Uiso   1.00
C764   C     0.32144   0.75130   0.76925   0.00000  Uiso   1.00
C765   C     0.11686   0.55007   0.75571   0.00000  Uiso   1.00
C766   C     0.17816   0.95294   0.71125   0.00000  Uiso   1.00
C767   C     0.12073   0.59593   0.75774   0.00000  Uiso   1.00
C768   C     0.16407   0.83609   0.74963   0.00000  Uiso   1.00
C769   C     0.17950   0.90703   0.71268   0.00000  Uiso   1.00
C770   C     0.16737   0.61655   0.75025   0.00000  Uiso   1.00
C771   C     0.15852   0.88411   0.74841   0.00000  Uiso   1.00
C772   C     0.21150   0.59157   0.74125   0.00000  Uiso   1.00
C773   C     0.13365   0.90764   0.78212   0.00000  Uiso   1.00
C774   C     0.20712   0.54536   0.74008   0.00000  Uiso   1.00
C775   C     0.13477   0.95402   0.78144   0.00000  Uiso   1.00
C776   C     0.16010   0.52475   0.74704   0.00000  Uiso   1.00
C777   C     0.15709   0.97651   0.74629   0.00000  Uiso   1.00
C778   C     0.26259   0.61185   0.73412   0.00000  Uiso   1.00
C779   C     0.12366   0.73855   0.54542   0.00000  Uiso   1.00
C780   C     0.10429   0.88568   0.81685   0.00000  Uiso   1.00
C781   C     0.06393   0.68283   0.60302   0.00000  Uiso   1.00
C782   C     0.02027   0.66949   0.63076   0.00000  Uiso   1.00
C783   C     0.25969   0.81856   0.88239   0.00000  Uiso   1.00
C784   C     0.28898   0.84861   0.92080   0.00000  Uiso   1.00
C785   C     0.26886   0.76303   0.54566   0.00000  Uiso   1.00
C786   C     0.13621   0.66599   0.96400   0.00000  Uiso   1.00
C787   C     0.18545   0.78442   0.95123   0.00000  Uiso   1.00
C788   C     0.12284   0.73813   0.59506   0.00000  Uiso   1.00
C789   C     0.18591   0.78523   0.90173   0.00000  Uiso   1.00
C790   C     0.21239   0.75944   0.60942   0.00000  Uiso   1.00
C791   C     0.14921   0.71286   0.89426   0.00000  Uiso   1.00
C792   C     0.21624   0.75677   0.56027   0.00000  Uiso   1.00
H793   H     0.32451   0.75050   0.69444   0.00000  Uiso   1.00
H794   H     0.19841   0.81357   0.97227   0.00000  Uiso   1.00
H795   H     0.24685   0.76779   0.63460   0.00000  Uiso   1.00
H796   H     0.13511   0.68512   0.87156   0.00000  Uiso   1.00
H797   H     0.33217   0.60379   0.71043   0.00000  Uiso   1.00
H798   H     0.08471   0.88579   0.88298   0.00000  Uiso   1.00
H799   H     0.09839   0.66045   0.61438   0.00000  Uiso   1.00
H800   H     0.04930   0.67775   0.56445   0.00000  Uiso   1.00
H801   H     0.31889   0.69172   0.62121   0.00000  Uiso   1.00
H802   H     0.00825   0.63452   0.62212   0.00000  Uiso   1.00
H803   H     0.03444   0.67189   0.66963   0.00000  Uiso   1.00
H804   H     0.00889   0.75170   0.80567   0.00000  Uiso   1.00
H805   H     0.26886   0.83007   0.84738   0.00000  Uiso   1.00
H806   H     0.27532   0.78373   0.88754   0.00000  Uiso   1.00
H807   H     0.28412   0.83631   0.95674   0.00000  Uiso   1.00
H808   H     0.33162   0.84856   0.91809   0.00000  Uiso   1.00
H809   H     0.27373   0.88333   0.91613   0.00000  Uiso   1.00
H810   H     0.00772   0.79056   0.56038   0.00000  Uiso   1.00
H811   H     0.09421   0.60917   0.95276   0.00000  Uiso   1.00
H812   H     0.08011   0.53442   0.76054   0.00000  Uiso   1.00
H813   H     0.19451   0.97010   0.68329   0.00000  Uiso   1.00
H814   H     0.08704   0.61551   0.76430   0.00000  Uiso   1.00
H815   H     0.19795   0.88945   0.68624   0.00000  Uiso   1.00
H816   H     0.24078   0.52510   0.73485   0.00000  Uiso   1.00
H817   H     0.11790   0.97270   0.80811   0.00000  Uiso   1.00
H818   H     0.08772   0.73203   0.52109   0.00000  Uiso   1.00
N819   N     0.16667   0.74999   0.62623   0.00000  Uiso   1.00
N820   N     0.16667   0.75001   0.87376   0.00000  Uiso   1.00
O821   O     0.16667   0.68454   0.78974   0.00000  Uiso   1.00
O822   O     0.29867   0.58680   0.71283   0.00000  Uiso   1.00
O823   O     0.07649   0.85332   0.80499   0.00000  Uiso   1.00
O824   O     0.10664   0.90335   0.86269   0.00000  Uiso   1.00
O825   O     0.07688   0.72810   0.61231   0.00000  Uiso   1.00
O826   O     0.20460   0.82257   0.88142   0.00000  Uiso   1.00
O827   O     0.27974   0.74484   0.50988   0.00000  Uiso   1.00
O828   O     0.30682   0.78879   0.57388   0.00000  Uiso   1.00
O829   O     0.15527   0.65429   0.50429   0.00000  Uiso   1.00
O830   O     0.10116   0.63778   0.93569   0.00000  Uiso   1.00
O831   O     0.16666   0.81547   0.71026   0.00000  Uiso   1.00
O832   O     0.16667   0.68453   0.71026   0.00000  Uiso   1.00
O833   O     0.16666   0.81547   0.78974   0.00000  Uiso   1.00
O834   O     0.09058   0.75000   0.78044   0.00000  Uiso   1.00
O835   O     0.24275   0.75000   0.71955   0.00000  Uiso   1.00
O836   O     0.09058   0.75000   0.70096   0.00000  Uiso   1.00
O837   O     0.24275   0.75001   0.79903   0.00000  Uiso   1.00
O838   O     0.27389   0.64981   0.74750   0.00000  Uiso   1.00
Zn839  Zn    0.16667   0.75001   0.80307   0.00000  Uiso   1.00
Zn840  Zn    0.16667   0.75000   0.69693   0.00000  Uiso   1.00
C841   C     0.50084   0.66415   0.75016   0.00000  Uiso   1.00
C842   C     0.48463   0.70923   0.94429   0.00000  Uiso   1.00
C843   C     0.50379   0.74664   0.52714   0.00000  Uiso   1.00
C844   C     0.50284   0.74615   0.97371   0.00000  Uiso   1.00
C845   C     0.40034   0.75026   0.73750   0.00000  Uiso   1.00
C846   C     0.59966   0.75072   0.76251   0.00000  Uiso   1.00
C847   C     0.34526   0.75082   0.73083   0.00000  Uiso   1.00
C848   C     0.65477   0.75130   0.76925   0.00000  Uiso   1.00
C849   C     0.45019   0.55007   0.75571   0.00000  Uiso   1.00
C850   C     0.51149   0.95294   0.71125   0.00000  Uiso   1.00
C851   C     0.45407   0.59593   0.75774   0.00000  Uiso   1.00
C852   C     0.49740   0.83609   0.74963   0.00000  Uiso   1.00
C853   C     0.51284   0.90703   0.71268   0.00000  Uiso   1.00
C854   C     0.50070   0.61655   0.75025   0.00000  Uiso   1.00
C855   C     0.49186   0.88411   0.74841   0.00000  Uiso   1.00
C856   C     0.54483   0.59157   0.74125   0.00000  Uiso   1.00
C857   C     0.46698   0.90764   0.78212   0.00000  Uiso   1.00
C858   C     0.54046   0.54536   0.74008   0.00000  Uiso   1.00
C859   C     0.46811   0.95402   0.78144   0.00000  Uiso   1.00
C860   C     0.49344   0.52475   0.74704   0.00000  Uiso   1.00
C861   C     0.49042   0.97651   0.74629   0.00000  Uiso   1.00
C862   C     0.59593   0.61185   0.73412   0.00000  Uiso   1.00
C863   C     0.45699   0.73855   0.54542   0.00000  Uiso   1.00
C864   C     0.43762   0.88568   0.81685   0.00000  Uiso   1.00
C865   C     0.39726   0.68283   0.60302   0.00000  Uiso   1.00
C866   C     0.35360   0.66949   0.63076   0.00000  Uiso   1.00
C867   C     0.59302   0.81856   0.88239   0.00000  Uiso   1.00
C868   C     0.62232   0.84861   0.92080   0.00000  Uiso   1.00
C869   C     0.60219   0.76303   0.54566   0.00000  Uiso   1.00
C870   C     0.46955   0.66599   0.96400   0.00000  Uiso   1.00
C871   C     0.51878   0.78442   0.95123   0.00000  Uiso   1.00
C872   C     0.45618   0.73813   0.59506   0.00000  Uiso   1.00
C873   C     0.51924   0.78523   0.90173   0.00000  Uiso   1.00
C874   C     0.54572   0.75944   0.60942   0.00000  Uiso   1.00
C875   C     0.48254   0.71286   0.89426   0.00000  Uiso   1.00
C876   C     0.54957   0.75677   0.56027   0.00000  Uiso   1.00
H877   H     0.65784   0.75050   0.69444   0.00000  Uiso   1.00
H878   H     0.53174   0.81357   0.97227   0.00000  Uiso   1.00
H879   H     0.58018   0.76779   0.63460   0.00000  Uiso   1.00
H880   H     0.46844   0.68512   0.87156   0.00000  Uiso   1.00
H881   H     0.66551   0.60379   0.71043   0.00000  Uiso   1.00
H882   H     0.41804   0.88579   0.88298   0.00000  Uiso   1.00
H883   H     0.43173   0.66045   0.61438   0.00000  Uiso   1.00
H884   H     0.38264   0.67775   0.56445   0.00000  Uiso   1.00
H885   H     0.65223   0.69172   0.62121   0.00000  Uiso   1.00
H886   H     0.34158   0.63452   0.62212   0.00000  Uiso   1.00
H887   H     0.36777   0.67189   0.66963   0.00000  Uiso   1.00
H888   H     0.34223   0.75170   0.80567   0.00000  Uiso   1.00
H889   H     0.60219   0.83007   0.84738   0.00000  Uiso   1.00
H890   H     0.60866   0.78373   0.88754   0.00000  Uiso   1.00
H891   H     0.61745   0.83631   0.95674   0.00000  Uiso   1.00
H892   H     0.66496   0.84856   0.91809   0.00000  Uiso   1.00
H893   H     0.60707   0.88333   0.91613   0.00000  Uiso   1.00
H894   H     0.34105   0.79056   0.56038   0.00000  Uiso   1.00
H895   H     0.42755   0.60917   0.95276   0.00000  Uiso   1.00
H896   H     0.41344   0.53442   0.76054   0.00000  Uiso   1.00
H897   H     0.52784   0.97010   0.68329   0.00000  Uiso   1.00
H898   H     0.42037   0.61551   0.76430   0.00000  Uiso   1.00
H899   H     0.53128   0.88945   0.68624   0.00000  Uiso   1.00
H900   H     0.57412   0.52510   0.73485   0.00000  Uiso   1.00
H901   H     0.45124   0.97270   0.80811   0.00000  Uiso   1.00
H902   H     0.42106   0.73203   0.52109   0.00000  Uiso   1.00
N903   N     0.50000   0.74999   0.62623   0.00000  Uiso   1.00
N904   N     0.50000   0.75001   0.87376   0.00000  Uiso   1.00
O905   O     0.50000   0.68454   0.78974   0.00000  Uiso   1.00
O906   O     0.63200   0.58680   0.71283   0.00000  Uiso   1.00
O907   O     0.40983   0.85332   0.80499   0.00000  Uiso   1.00
O908   O     0.43998   0.90335   0.86269   0.00000  Uiso   1.00
O909   O     0.41021   0.72810   0.61231   0.00000  Uiso   1.00
O910   O     0.53793   0.82257   0.88142   0.00000  Uiso   1.00
O911   O     0.61308   0.74484   0.50988   0.00000  Uiso   1.00
O912   O     0.64016   0.78879   0.57388   0.00000  Uiso   1.00
O913   O     0.48860   0.65429   0.50429   0.00000  Uiso   1.00
O914   O     0.43450   0.63778   0.93569   0.00000  Uiso   1.00
O915   O     0.50000   0.81547   0.71026   0.00000  Uiso   1.00
O916   O     0.50000   0.68453   0.71026   0.00000  Uiso   1.00
O917   O     0.50000   0.81547   0.78974   0.00000  Uiso   1.00
O918   O     0.42392   0.75000   0.78044   0.00000  Uiso   1.00
O919   O     0.57608   0.75000   0.71955   0.00000  Uiso   1.00
O920   O     0.42392   0.75000   0.70096   0.00000  Uiso   1.00
O921   O     0.57608   0.75001   0.79903   0.00000  Uiso   1.00
O922   O     0.60723   0.64981   0.74750   0.00000  Uiso   1.00
Zn923  Zn    0.50000   0.75001   0.80307   0.00000  Uiso   1.00
Zn924  Zn    0.50000   0.75000   0.69693   0.00000  Uiso   1.00
C925   C     0.83417   0.66415   0.75016   0.00000  Uiso   1.00
C926   C     0.81796   0.70923   0.94429   0.00000  Uiso   1.00
C927   C     0.83712   0.74664   0.52714   0.00000  Uiso   1.00
C928   C     0.83618   0.74615   0.97371   0.00000  Uiso   1.00
C929   C     0.73367   0.75026   0.73750   0.00000  Uiso   1.00
C930   C     0.93299   0.75072   0.76251   0.00000  Uiso   1.00
C931   C     0.67859   0.75082   0.73083   0.00000  Uiso   1.00
C932   C     0.98810   0.75130   0.76925   0.00000  Uiso   1.00
C933   C     0.78352   0.55007   0.75571   0.00000  Uiso   1.00
C934   C     0.84482   0.95294   0.71125   0.00000  Uiso   1.00
C935   C     0.78740   0.59593   0.75774   0.00000  Uiso   1.00
C936   C     0.83074   0.83609   0.74963   0.00000  Uiso   1.00
C937   C     0.84617   0.90703   0.71268   0.00000  Uiso   1.00
C938   C     0.83404   0.61655   0.75025   0.00000  Uiso   1.00
C939   C     0.82519   0.88411   0.74841   0.00000  Uiso   1.00
C940   C     0.87816   0.59157   0.74125   0.00000  Uiso   1.00
C941   C     0.80032   0.90764   0.78212   0.00000  Uiso   1.00
C942   C     0.87379   0.54536   0.74008   0.00000  Uiso   1.00
C943   C     0.80144   0.95402   0.78144   0.00000  Uiso   1.00
C944   C     0.82677   0.52475   0.74704   0.00000  Uiso   1.00
C945   C     0.82375   0.97651   0.74629   0.00000  Uiso   1.00
C946   C     0.92926   0.61185   0.73412   0.00000  Uiso   1.00
C947   C     0.79033   0.73855   0.54542   0.00000  Uiso   1.00
C948   C     0.77096   0.88568   0.81685   0.00000  Uiso   1.00
C949   C     0.73060   0.68283   0.60302   0.00000  Uiso   1.00
C950   C     0.68694   0.66949   0.63076   0.00000  Uiso   1.00
C951   C     0.92635   0.81856   0.88239   0.00000  Uiso   1.00
C952   C     0.95565   0.84861   0.92080   0.00000  Uiso   1.00
C953   C     0.93552   0.76303   0.54566   0.00000  Uiso   1.00
C954   C     0.80288   0.66599   0.96400   0.00000  Uiso   1.00
C955   C     0.85211   0.78442   0.95123   0.00000  Uiso   1.00
C956   C     0.78951   0.73813   0.59506   0.00000  Uiso   1.00
C957   C     0.85258   0.78523   0.90173   0.00000  Uiso   1.00
C958   C     0.87905   0.75944   0.60942   0.00000  Uiso   1.00
C959   C     0.81588   0.71286   0.89426   0.00000  Uiso   1.00
C960   C     0.88290   0.75677   0.56027   0.00000  Uiso   1.00
H961   H     0.99117   0.75050   0.69444   0.00000  Uiso   1.00
H962   H     0.86507   0.81357   0.97227   0.00000  Uiso   1.00
H963   H     0.91352   0.76779   0.63460   0.00000  Uiso   1.00
H964   H     0.80178   0.68512   0.87156   0.00000  Uiso   1.00
H965   H     0.99884   0.60379   0.71043   0.00000  Uiso   1.00
H966   H     0.75138   0.88579   0.88298   0.00000  Uiso   1.00
H967   H     0.76506   0.66045   0.61438   0.00000  Uiso   1.00
H968   H     0.71597   0.67775   0.56445   0.00000  Uiso   1.00
H969   H     0.98556   0.69172   0.62121   0.00000  Uiso   1.00
H970   H     0.67491   0.63452   0.62212   0.00000  Uiso   1.00
H971   H     0.70111   0.67189   0.66963   0.00000  Uiso   1.00
H972   H     0.67556   0.75170   0.80567   0.00000  Uiso   1.00
H973   H     0.93552   0.83007   0.84738   0.00000  Uiso   1.00
H974   H     0.94199   0.78373   0.88754   0.00000  Uiso   1.00
H975   H     0.95078   0.83631   0.95674   0.00000  Uiso   1.00
H976   H     0.99829   0.84856   0.91809   0.00000  Uiso   1.00
H977   H     0.94040   0.88333   0.91613   0.00000  Uiso   1.00
H978   H     0.67439   0.79056   0.56038   0.00000  Uiso   1.00
H979   H     0.76088   0.60917   0.95276   0.00000  Uiso   1.00
H980   H     0.74678   0.53442   0.76054   0.00000  Uiso   1.00
H981   H     0.86117   0.97010   0.68329   0.00000  Uiso   1.00
H982   H     0.75370   0.61551   0.76430   0.00000  Uiso   1.00
H983   H     0.86461   0.88945   0.68624   0.00000  Uiso   1.00
H984   H     0.90745   0.52510   0.73485   0.00000  Uiso   1.00
H985   H     0.78457   0.97270   0.80811   0.00000  Uiso   1.00
H986   H     0.75439   0.73203   0.52109   0.00000  Uiso   1.00
N987   N     0.83333   0.74999   0.62623   0.00000  Uiso   1.00
N988   N     0.83333   0.75001   0.87376   0.00000  Uiso   1.00
O989   O     0.83334   0.68454   0.78974   0.00000  Uiso   1.00
O990   O     0.96533   0.58680   0.71283   0.00000  Uiso   1.00
O991   O     0.74316   0.85332   0.80499   0.00000  Uiso   1.00
O992   O     0.77331   0.90335   0.86269   0.00000  Uiso   1.00
O993   O     0.74354   0.72810   0.61231   0.00000  Uiso   1.00
O994   O     0.87126   0.82257   0.88142   0.00000  Uiso   1.00
O995   O     0.94641   0.74484   0.50988   0.00000  Uiso   1.00
O996   O     0.97349   0.78879   0.57388   0.00000  Uiso   1.00
O997   O     0.82194   0.65429   0.50429   0.00000  Uiso   1.00
O998   O     0.76783   0.63778   0.93569   0.00000  Uiso   1.00
O999   O     0.83333   0.81547   0.71026   0.00000  Uiso   1.00
O1000  O     0.83334   0.68453   0.71026   0.00000  Uiso   1.00
O1001  O     0.83333   0.81547   0.78974   0.00000  Uiso   1.00
O1002  O     0.75725   0.75000   0.78044   0.00000  Uiso   1.00
O1003  O     0.90942   0.75000   0.71955   0.00000  Uiso   1.00
O1004  O     0.75725   0.75000   0.70096   0.00000  Uiso   1.00
O1005  O     0.90942   0.75001   0.79903   0.00000  Uiso   1.00
O1006  O     0.94056   0.64981   0.74750   0.00000  Uiso   1.00
Zn1007 Zn    0.83333   0.75001   0.80307   0.00000  Uiso   1.00
Zn1008 Zn    0.83333   0.75000   0.69693   0.00000  Uiso   1.00
loop_
_geom_bond_atom_site_label_1
_geom_bond_atom_site_label_2
_geom_bond_distance
_geom_bond_site_symmetry_2
_ccdc_geom_bond_type
C1     O65     1.283   .     A
C1     O76     1.283   .     A
C1     C14     1.426   .     S
C2     C35     1.417   .     A
C2     C4      1.424   .     A
C2     C30     1.486   .     S
C3     C23     1.403   .     A
C3     C36     1.422   .     A
C3     C508    1.513   1_554 S
C4     C31     1.404   .     A
C4     C507    1.513   .     S
C5     C7      1.399   .     S
C5     O80     1.280   .     A
C5     O78     1.275   .     A
C6     O81     1.279   .     A
C6     C8      1.400   .     S
C6     O79     1.276   .     A
C7     C176    1.331   1_455 S
C7     H205    1.087   1_455 S
C8     C91     1.331   .     S
C8     H132    1.088   .     S
C9     C20     1.397   .     A
C9     H56     1.083   .     S
C9     C11     1.379   .     A
C10    C21     1.396   .     A
C10    H57     1.084   .     S
C10    C13     1.376   .     A
C11    H58     1.084   .     S
C11    C14     1.396   .     A
C12    C15     1.445   .     S
C12    O77     1.287   .     A
C12    O75     1.289   .     A
C13    C15     1.400   .     A
C13    H59     1.084   .     S
C14    C16     1.413   .     A
C15    C17     1.418   .     A
C16    C22     1.491   .     S
C16    C18     1.390   .     A
C17    C24     1.485   .     S
C17    C19     1.390   .     A
C18    C20     1.400   .     A
C18    H60     1.084   .     S
C19    C21     1.398   .     A
C19    H61     1.084   .     S
C20    C273    1.448   1_545 S
C21    C272    1.448   .     S
C22    O82     1.221   .     D
C22    O66     1.399   .     S
C23    H62     1.083   .     S
C23    C32     1.413   .     A
C24    O67     1.223   .     D
C24    O68     1.398   .     S
C25    H43     1.116   .     S
C25    H44     1.112   .     S
C25    C26     1.521   .     S
C25    O69     1.413   .     S
C26    H46     1.110   .     S
C26    H47     1.110   .     S
C26    H213    1.111   1_455 S
C27    H50     1.118   .     S
C27    O70     1.417   .     S
C27    C28     1.524   .     S
C27    H49     1.111   .     S
C28    H51     1.109   .     S
C28    H53     1.111   .     S
C28    H52     1.111   .     S
C29    C36     1.487   .     S
C29    O72     1.399   .     S
C29    O71     1.223   .     D
C30    O74     1.399   .     S
C30    O577    1.223   .     S
C31    C33     1.407   .     A
C31    H38     1.083   .     S
C32    N63     1.369   .     A
C32    O69     1.381   .     S
C33    O70     1.379   .     S
C33    N64     1.369   .     A
C34    H39     1.079   .     S
C34    N63     1.365   .     A
C34    C36     1.416   .     A
C35    N64     1.364   .     A
C35    H40     1.081   .     S
H37    C91     1.087   .     S
H41    O66     1.013   .     S
H42    O68     1.014   .     S
H45    C110    1.111   .     S
H48    C176    1.088   1_455 S
H54    O240    1.014   1_455 S
H55    O74     1.014   .     S
N63    Zn84    2.007   .     S
N64    Zn83    2.007   .     S
O65    Zn83    1.998   .     S
O72    H138    1.014   .     S
O73    C534    1.223   1_554 S
O75    Zn84    1.998   .     S
O76    Zn84    1.997   .     S
O77    Zn83    1.997   .     S
O78    Zn83    1.962   .     S
O79    Zn84    1.962   .     S
O80    Zn84    1.977   .     S
O81    Zn83    1.977   .     S
C85    O149    1.283   .     A
C85    O160    1.283   .     A
C85    C98     1.426   .     S
C86    C119    1.417   .     A
C86    C88     1.424   .     A
C86    C114    1.486   .     S
C87    C107    1.403   .     A
C87    C120    1.422   .     A
C87    C592    1.513   1_554 S
C88    C115    1.404   .     A
C88    C591    1.513   .     S
C89    C91     1.399   .     S
C89    O164    1.280   .     A
C89    O162    1.275   .     A
C90    O165    1.279   .     A
C90    C92     1.400   .     S
C90    O163    1.276   .     A
C92    C175    1.331   .     S
C92    H216    1.088   .     S
C93    C104    1.397   .     A
C93    H140    1.083   .     S
C93    C95     1.379   .     A
C94    C105    1.396   .     A
C94    H141    1.084   .     S
C94    C97     1.376   .     A
C95    H142    1.084   .     S
C95    C98     1.396   .     A
C96    C99     1.445   .     S
C96    O161    1.287   .     A
C96    O159    1.289   .     A
C97    C99     1.400   .     A
C97    H143    1.084   .     S
C98    C100    1.413   .     A
C99    C101    1.418   .     A
C100   C106    1.491   .     S
C100   C102    1.390   .     A
C101   C108    1.485   .     S
C101   C103    1.390   .     A
C102   C104    1.400   .     A
C102   H144    1.084   .     S
C103   C105    1.398   .     A
C103   H145    1.084   .     S
C104   C357    1.448   1_545 S
C105   C356    1.448   .     S
C106   O166    1.221   .     D
C106   O150    1.399   .     S
C107   H146    1.083   .     S
C107   C116    1.413   .     A
C108   O151    1.223   .     D
C108   O152    1.398   .     S
C109   H127    1.116   .     S
C109   H128    1.112   .     S
C109   C110    1.521   .     S
C109   O153    1.413   .     S
C110   H130    1.110   .     S
C110   H131    1.110   .     S
C111   H134    1.118   .     S
C111   O154    1.417   .     S
C111   C112    1.524   .     S
C111   H133    1.111   .     S
C112   H135    1.109   .     S
C112   H137    1.111   .     S
C112   H136    1.111   .     S
C113   C120    1.487   .     S
C113   O156    1.399   .     S
C113   O155    1.223   .     D
C114   O158    1.399   .     S
C114   O661    1.223   .     S
C115   C117    1.407   .     A
C115   H122    1.083   .     S
C116   N147    1.369   .     A
C116   O153    1.381   .     S
C117   O154    1.379   .     S
C117   N148    1.369   .     A
C118   H123    1.079   .     S
C118   N147    1.365   .     A
C118   C120    1.416   .     A
C119   N148    1.364   .     A
C119   H124    1.081   .     S
H121   C175    1.087   .     S
H125   O150    1.013   .     S
H126   O152    1.014   .     S
H129   C194    1.111   .     S
H139   O158    1.014   .     S
N147   Zn168   2.007   .     S
N148   Zn167   2.007   .     S
O149   Zn167   1.998   .     S
O156   H222    1.014   .     S
O157   C618    1.223   1_554 S
O159   Zn168   1.998   .     S
O160   Zn168   1.997   .     S
O161   Zn167   1.997   .     S
O162   Zn167   1.962   .     S
O163   Zn168   1.962   .     S
O164   Zn168   1.977   .     S
O165   Zn167   1.977   .     S
C169   O233    1.283   .     A
C169   O244    1.283   .     A
C169   C182    1.426   .     S
C170   C203    1.417   .     A
C170   C172    1.424   .     A
C170   C198    1.486   .     S
C171   C191    1.403   .     A
C171   C204    1.422   .     A
C171   C676    1.513   1_554 S
C172   C199    1.404   .     A
C172   C675    1.513   .     S
C173   C175    1.399   .     S
C173   O248    1.280   .     A
C173   O246    1.275   .     A
C174   O249    1.279   .     A
C174   C176    1.400   .     S
C174   O247    1.276   .     A
C176   C7      1.331   1_655 S
C176   H48     1.088   1_655 S
C177   C188    1.397   .     A
C177   H224    1.083   .     S
C177   C179    1.379   .     A
C178   C189    1.396   .     A
C178   H225    1.084   .     S
C178   C181    1.376   .     A
C179   H226    1.084   .     S
C179   C182    1.396   .     A
C180   C183    1.445   .     S
C180   O245    1.287   .     A
C180   O243    1.289   .     A
C181   C183    1.400   .     A
C181   H227    1.084   .     S
C182   C184    1.413   .     A
C183   C185    1.418   .     A
C184   C190    1.491   .     S
C184   C186    1.390   .     A
C185   C192    1.485   .     S
C185   C187    1.390   .     A
C186   C188    1.400   .     A
C186   H228    1.084   .     S
C187   C189    1.398   .     A
C187   H229    1.084   .     S
C188   C441    1.448   1_545 S
C189   C440    1.448   .     S
C190   O250    1.221   .     D
C190   O234    1.399   .     S
C191   H230    1.083   .     S
C191   C200    1.413   .     A
C192   O235    1.223   .     D
C192   O236    1.398   .     S
C193   H211    1.116   .     S
C193   H212    1.112   .     S
C193   C194    1.521   .     S
C193   O237    1.413   .     S
C194   H214    1.110   .     S
C194   H215    1.110   .     S
C195   H218    1.118   .     S
C195   O238    1.417   .     S
C195   C196    1.524   .     S
C195   H217    1.111   .     S
C196   H219    1.109   .     S
C196   H221    1.111   .     S
C196   H220    1.111   .     S
C197   C204    1.487   .     S
C197   O240    1.399   .     S
C197   O239    1.223   .     D
C198   O242    1.399   .     S
C198   O745    1.223   .     S
C199   C201    1.407   .     A
C199   H206    1.083   .     S
C200   N231    1.369   .     A
C200   O237    1.381   .     S
C201   O238    1.379   .     S
C201   N232    1.369   .     A
C202   H207    1.079   .     S
C202   N231    1.365   .     A
C202   C204    1.416   .     A
C203   N232    1.364   .     A
C203   H208    1.081   .     S
H205   C7      1.087   1_655 S
H209   O234    1.013   .     S
H210   O236    1.014   .     S
H213   C26     1.111   1_655 S
H223   O242    1.014   .     S
N231   Zn252   2.007   .     S
N232   Zn251   2.007   .     S
O233   Zn251   1.998   .     S
O240   H54     1.014   1_655 S
O241   C702    1.223   1_554 S
O243   Zn252   1.998   .     S
O244   Zn252   1.997   .     S
O245   Zn251   1.997   .     S
O246   Zn251   1.962   .     S
O247   Zn252   1.962   .     S
O248   Zn252   1.977   .     S
O249   Zn251   1.977   .     S
C253   O317    1.283   .     A
C253   O328    1.283   .     A
C253   C266    1.426   .     S
C254   C287    1.417   .     A
C254   C256    1.424   .     A
C254   C282    1.486   .     S
C255   C275    1.403   .     A
C255   C288    1.422   .     A
C255   C760    1.513   1_554 S
C256   C283    1.404   .     A
C256   C759    1.513   .     S
C257   C259    1.399   .     S
C257   O332    1.280   .     A
C257   O330    1.275   .     A
C258   O333    1.279   .     A
C258   C260    1.400   .     S
C258   O331    1.276   .     A
C259   C428    1.331   1_455 S
C259   H457    1.087   1_455 S
C260   C343    1.331   .     S
C260   H384    1.088   .     S
C261   C272    1.397   .     A
C261   H308    1.083   .     S
C261   C263    1.379   .     A
C262   C273    1.396   .     A
C262   H309    1.084   .     S
C262   C265    1.376   .     A
C263   H310    1.084   .     S
C263   C266    1.396   .     A
C264   C267    1.445   .     S
C264   O329    1.287   .     A
C264   O327    1.289   .     A
C265   C267    1.400   .     A
C265   H311    1.084   .     S
C266   C268    1.413   .     A
C267   C269    1.418   .     A
C268   C274    1.491   .     S
C268   C270    1.390   .     A
C269   C276    1.485   .     S
C269   C271    1.390   .     A
C270   C272    1.400   .     A
C270   H312    1.084   .     S
C271   C273    1.398   .     A
C271   H313    1.084   .     S
C273   C20     1.448   1_565 S
C274   O334    1.221   .     D
C274   O318    1.399   .     S
C275   H314    1.083   .     S
C275   C284    1.413   .     A
C276   O319    1.223   .     D
C276   O320    1.398   .     S
C277   H295    1.116   .     S
C277   H296    1.112   .     S
C277   C278    1.521   .     S
C277   O321    1.413   .     S
C278   H298    1.110   .     S
C278   H299    1.110   .     S
C278   H465    1.111   1_455 S
C279   H302    1.118   .     S
C279   O322    1.417   .     S
C279   C280    1.524   .     S
C279   H301    1.111   .     S
C280   H303    1.109   .     S
C280   H305    1.111   .     S
C280   H304    1.111   .     S
C281   C288    1.487   .     S
C281   O324    1.399   .     S
C281   O323    1.223   .     D
C282   O326    1.399   .     S
C282   O829    1.223   .     S
C283   C285    1.407   .     A
C283   H290    1.083   .     S
C284   N315    1.369   .     A
C284   O321    1.381   .     S
C285   O322    1.379   .     S
C285   N316    1.369   .     A
C286   H291    1.079   .     S
C286   N315    1.365   .     A
C286   C288    1.416   .     A
C287   N316    1.364   .     A
C287   H292    1.081   .     S
H289   C343    1.087   .     S
H293   O318    1.013   .     S
H294   O320    1.014   .     S
H297   C362    1.111   .     S
H300   C428    1.088   1_455 S
H306   O492    1.014   1_455 S
H307   O326    1.014   .     S
N315   Zn336   2.007   .     S
N316   Zn335   2.007   .     S
O317   Zn335   1.998   .     S
O324   H390    1.014   .     S
O325   C786    1.223   1_554 S
O327   Zn336   1.998   .     S
O328   Zn336   1.997   .     S
O329   Zn335   1.997   .     S
O330   Zn335   1.962   .     S
O331   Zn336   1.962   .     S
O332   Zn336   1.977   .     S
O333   Zn335   1.977   .     S
C337   O401    1.283   .     A
C337   O412    1.283   .     A
C337   C350    1.426   .     S
C338   C371    1.417   .     A
C338   C340    1.424   .     A
C338   C366    1.486   .     S
C339   C359    1.403   .     A
C339   C372    1.422   .     A
C339   C844    1.513   1_554 S
C340   C367    1.404   .     A
C340   C843    1.513   .     S
C341   C343    1.399   .     S
C341   O416    1.280   .     A
C341   O414    1.275   .     A
C342   O417    1.279   .     A
C342   C344    1.400   .     S
C342   O415    1.276   .     A
C344   C427    1.331   .     S
C344   H468    1.088   .     S
C345   C356    1.397   .     A
C345   H392    1.083   .     S
C345   C347    1.379   .     A
C346   C357    1.396   .     A
C346   H393    1.084   .     S
C346   C349    1.376   .     A
C347   H394    1.084   .     S
C347   C350    1.396   .     A
C348   C351    1.445   .     S
C348   O413    1.287   .     A
C348   O411    1.289   .     A
C349   C351    1.400   .     A
C349   H395    1.084   .     S
C350   C352    1.413   .     A
C351   C353    1.418   .     A
C352   C358    1.491   .     S
C352   C354    1.390   .     A
C353   C360    1.485   .     S
C353   C355    1.390   .     A
C354   C356    1.400   .     A
C354   H396    1.084   .     S
C355   C357    1.398   .     A
C355   H397    1.084   .     S
C357   C104    1.448   1_565 S
C358   O418    1.221   .     D
C358   O402    1.399   .     S
C359   H398    1.083   .     S
C359   C368    1.413   .     A
C360   O403    1.223   .     D
C360   O404    1.398   .     S
C361   H379    1.116   .     S
C361   H380    1.112   .     S
C361   C362    1.521   .     S
C361   O405    1.413   .     S
C362   H382    1.110   .     S
C362   H383    1.110   .     S
C363   H386    1.118   .     S
C363   O406    1.417   .     S
C363   C364    1.524   .     S
C363   H385    1.111   .     S
C364   H387    1.109   .     S
C364   H389    1.111   .     S
C364   H388    1.111   .     S
C365   C372    1.487   .     S
C365   O408    1.399   .     S
C365   O407    1.223   .     D
C366   O410    1.399   .     S
C366   O913    1.223   .     S
C367   C369    1.407   .     A
C367   H374    1.083   .     S
C368   N399    1.369   .     A
C368   O405    1.381   .     S
C369   O406    1.379   .     S
C369   N400    1.369   .     A
C370   H375    1.079   .     S
C370   N399    1.365   .     A
C370   C372    1.416   .     A
C371   N400    1.364   .     A
C371   H376    1.081   .     S
H373   C427    1.087   .     S
H377   O402    1.013   .     S
H378   O404    1.014   .     S
H381   C446    1.111   .     S
H391   O410    1.014   .     S
N399   Zn420   2.007   .     S
N400   Zn419   2.007   .     S
O401   Zn419   1.998   .     S
O408   H474    1.014   .     S
O409   C870    1.223   1_554 S
O411   Zn420   1.998   .     S
O412   Zn420   1.997   .     S
O413   Zn419   1.997   .     S
O414   Zn419   1.962   .     S
O415   Zn420   1.962   .     S
O416   Zn420   1.977   .     S
O417   Zn419   1.977   .     S
C421   O485    1.283   .     A
C421   O496    1.283   .     A
C421   C434    1.426   .     S
C422   C455    1.417   .     A
C422   C424    1.424   .     A
C422   C450    1.486   .     S
C423   C443    1.403   .     A
C423   C456    1.422   .     A
C423   C928    1.513   1_554 S
C424   C451    1.404   .     A
C424   C927    1.513   .     S
C425   C427    1.399   .     S
C425   O500    1.280   .     A
C425   O498    1.275   .     A
C426   O501    1.279   .     A
C426   C428    1.400   .     S
C426   O499    1.276   .     A
C428   C259    1.331   1_655 S
C428   H300    1.088   1_655 S
C429   C440    1.397   .     A
C429   H476    1.083   .     S
C429   C431    1.379   .     A
C430   C441    1.396   .     A
C430   H477    1.084   .     S
C430   C433    1.376   .     A
C431   H478    1.084   .     S
C431   C434    1.396   .     A
C432   C435    1.445   .     S
C432   O497    1.287   .     A
C432   O495    1.289   .     A
C433   C435    1.400   .     A
C433   H479    1.084   .     S
C434   C436    1.413   .     A
C435   C437    1.418   .     A
C436   C442    1.491   .     S
C436   C438    1.390   .     A
C437   C444    1.485   .     S
C437   C439    1.390   .     A
C438   C440    1.400   .     A
C438   H480    1.084   .     S
C439   C441    1.398   .     A
C439   H481    1.084   .     S
C441   C188    1.448   1_565 S
C442   O502    1.221   .     D
C442   O486    1.399   .     S
C443   H482    1.083   .     S
C443   C452    1.413   .     A
C444   O487    1.223   .     D
C444   O488    1.398   .     S
C445   H463    1.116   .     S
C445   H464    1.112   .     S
C445   C446    1.521   .     S
C445   O489    1.413   .     S
C446   H466    1.110   .     S
C446   H467    1.110   .     S
C447   H470    1.118   .     S
C447   O490    1.417   .     S
C447   C448    1.524   .     S
C447   H469    1.111   .     S
C448   H471    1.109   .     S
C448   H473    1.111   .     S
C448   H472    1.111   .     S
C449   C456    1.487   .     S
C449   O492    1.399   .     S
C449   O491    1.223   .     D
C450   O494    1.399   .     S
C450   O997    1.223   .     S
C451   C453    1.407   .     A
C451   H458    1.083   .     S
C452   N483    1.369   .     A
C452   O489    1.381   .     S
C453   O490    1.379   .     S
C453   N484    1.369   .     A
C454   H459    1.079   .     S
C454   N483    1.365   .     A
C454   C456    1.416   .     A
C455   N484    1.364   .     A
C455   H460    1.081   .     S
H457   C259    1.087   1_655 S
H461   O486    1.013   .     S
H462   O488    1.014   .     S
H465   C278    1.111   1_655 S
H475   O494    1.014   .     S
N483   Zn504   2.007   .     S
N484   Zn503   2.007   .     S
O485   Zn503   1.998   .     S
O492   H306    1.014   1_655 S
O493   C954    1.223   1_554 S
O495   Zn504   1.998   .     S
O496   Zn504   1.997   .     S
O497   Zn503   1.997   .     S
O498   Zn503   1.962   .     S
O499   Zn504   1.962   .     S
O500   Zn504   1.977   .     S
O501   Zn503   1.977   .     S
C505   O569    1.283   .     A
C505   O580    1.283   .     A
C505   C518    1.426   .     S
C506   C539    1.417   .     A
C506   C508    1.424   .     A
C506   C534    1.486   .     S
C507   C527    1.403   .     A
C507   C540    1.422   .     A
C508   C535    1.404   .     A
C508   C3      1.513   1_556 S
C509   C511    1.399   .     S
C509   O584    1.280   .     A
C509   O582    1.275   .     A
C510   O585    1.279   .     A
C510   C512    1.400   .     S
C510   O583    1.276   .     A
C511   C680    1.331   1_455 S
C511   H709    1.087   1_455 S
C512   C595    1.331   .     S
C512   H636    1.088   .     S
C513   C524    1.397   .     A
C513   H560    1.083   .     S
C513   C515    1.379   .     A
C514   C525    1.396   .     A
C514   H561    1.084   .     S
C514   C517    1.376   .     A
C515   H562    1.084   .     S
C515   C518    1.396   .     A
C516   C519    1.445   .     S
C516   O581    1.287   .     A
C516   O579    1.289   .     A
C517   C519    1.400   .     A
C517   H563    1.084   .     S
C518   C520    1.413   .     A
C519   C521    1.418   .     A
C520   C526    1.491   .     S
C520   C522    1.390   .     A
C521   C528    1.485   .     S
C521   C523    1.390   .     A
C522   C524    1.400   .     A
C522   H564    1.084   .     S
C523   C525    1.398   .     A
C523   H565    1.084   .     S
C524   C777    1.448   1_545 S
C525   C776    1.448   .     S
C526   O586    1.221   .     D
C526   O570    1.399   .     S
C527   H566    1.083   .     S
C527   C536    1.413   .     A
C528   O571    1.223   .     D
C528   O572    1.398   .     S
C529   H547    1.116   .     S
C529   H548    1.112   .     S
C529   C530    1.521   .     S
C529   O573    1.413   .     S
C530   H550    1.110   .     S
C530   H551    1.110   .     S
C530   H717    1.111   1_455 S
C531   H554    1.118   .     S
C531   O574    1.417   .     S
C531   C532    1.524   .     S
C531   H553    1.111   .     S
C532   H555    1.109   .     S
C532   H557    1.111   .     S
C532   H556    1.111   .     S
C533   C540    1.487   .     S
C533   O576    1.399   .     S
C533   O575    1.223   .     D
C534   O578    1.399   .     S
C534   O73     1.223   1_556 S
C535   C537    1.407   .     A
C535   H542    1.083   .     S
C536   N567    1.369   .     A
C536   O573    1.381   .     S
C537   O574    1.379   .     S
C537   N568    1.369   .     A
C538   H543    1.079   .     S
C538   N567    1.365   .     A
C538   C540    1.416   .     A
C539   N568    1.364   .     A
C539   H544    1.081   .     S
H541   C595    1.087   .     S
H545   O570    1.013   .     S
H546   O572    1.014   .     S
H549   C614    1.111   .     S
H552   C680    1.088   1_455 S
H558   O744    1.014   1_455 S
H559   O578    1.014   .     S
N567   Zn588   2.007   .     S
N568   Zn587   2.007   .     S
O569   Zn587   1.998   .     S
O576   H642    1.014   .     S
O579   Zn588   1.998   .     S
O580   Zn588   1.997   .     S
O581   Zn587   1.997   .     S
O582   Zn587   1.962   .     S
O583   Zn588   1.962   .     S
O584   Zn588   1.977   .     S
O585   Zn587   1.977   .     S
C589   O653    1.283   .     A
C589   O664    1.283   .     A
C589   C602    1.426   .     S
C590   C623    1.417   .     A
C590   C592    1.424   .     A
C590   C618    1.486   .     S
C591   C611    1.403   .     A
C591   C624    1.422   .     A
C592   C619    1.404   .     A
C592   C87     1.513   1_556 S
C593   C595    1.399   .     S
C593   O668    1.280   .     A
C593   O666    1.275   .     A
C594   O669    1.279   .     A
C594   C596    1.400   .     S
C594   O667    1.276   .     A
C596   C679    1.331   .     S
C596   H720    1.088   .     S
C597   C608    1.397   .     A
C597   H644    1.083   .     S
C597   C599    1.379   .     A
C598   C609    1.396   .     A
C598   H645    1.084   .     S
C598   C601    1.376   .     A
C599   H646    1.084   .     S
C599   C602    1.396   .     A
C600   C603    1.445   .     S
C600   O665    1.287   .     A
C600   O663    1.289   .     A
C601   C603    1.400   .     A
C601   H647    1.084   .     S
C602   C604    1.413   .     A
C603   C605    1.418   .     A
C604   C610    1.491   .     S
C604   C606    1.390   .     A
C605   C612    1.485   .     S
C605   C607    1.390   .     A
C606   C608    1.400   .     A
C606   H648    1.084   .     S
C607   C609    1.398   .     A
C607   H649    1.084   .     S
C608   C861    1.448   1_545 S
C609   C860    1.448   .     S
C610   O670    1.221   .     D
C610   O654    1.399   .     S
C611   H650    1.083   .     S
C611   C620    1.413   .     A
C612   O655    1.223   .     D
C612   O656    1.398   .     S
C613   H631    1.116   .     S
C613   H632    1.112   .     S
C613   C614    1.521   .     S
C613   O657    1.413   .     S
C614   H634    1.110   .     S
C614   H635    1.110   .     S
C615   H638    1.118   .     S
C615   O658    1.417   .     S
C615   C616    1.524   .     S
C615   H637    1.111   .     S
C616   H639    1.109   .     S
C616   H641    1.111   .     S
C616   H640    1.111   .     S
C617   C624    1.487   .     S
C617   O660    1.399   .     S
C617   O659    1.223   .     D
C618   O662    1.399   .     S
C618   O157    1.223   1_556 S
C619   C621    1.407   .     A
C619   H626    1.083   .     S
C620   N651    1.369   .     A
C620   O657    1.381   .     S
C621   O658    1.379   .     S
C621   N652    1.369   .     A
C622   H627    1.079   .     S
C622   N651    1.365   .     A
C622   C624    1.416   .     A
C623   N652    1.364   .     A
C623   H628    1.081   .     S
H625   C679    1.087   .     S
H629   O654    1.013   .     S
H630   O656    1.014   .     S
H633   C698    1.111   .     S
H643   O662    1.014   .     S
N651   Zn672   2.007   .     S
N652   Zn671   2.007   .     S
O653   Zn671   1.998   .     S
O660   H726    1.014   .     S
O663   Zn672   1.998   .     S
O664   Zn672   1.997   .     S
O665   Zn671   1.997   .     S
O666   Zn671   1.962   .     S
O667   Zn672   1.962   .     S
O668   Zn672   1.977   .     S
O669   Zn671   1.977   .     S
C673   O737    1.283   .     A
C673   O748    1.283   .     A
C673   C686    1.426   .     S
C674   C707    1.417   .     A
C674   C676    1.424   .     A
C674   C702    1.486   .     S
C675   C695    1.403   .     A
C675   C708    1.422   .     A
C676   C703    1.404   .     A
C676   C171    1.513   1_556 S
C677   C679    1.399   .     S
C677   O752    1.280   .     A
C677   O750    1.275   .     A
C678   O753    1.279   .     A
C678   C680    1.400   .     S
C678   O751    1.276   .     A
C680   C511    1.331   1_655 S
C680   H552    1.088   1_655 S
C681   C692    1.397   .     A
C681   H728    1.083   .     S
C681   C683    1.379   .     A
C682   C693    1.396   .     A
C682   H729    1.084   .     S
C682   C685    1.376   .     A
C683   H730    1.084   .     S
C683   C686    1.396   .     A
C684   C687    1.445   .     S
C684   O749    1.287   .     A
C684   O747    1.289   .     A
C685   C687    1.400   .     A
C685   H731    1.084   .     S
C686   C688    1.413   .     A
C687   C689    1.418   .     A
C688   C694    1.491   .     S
C688   C690    1.390   .     A
C689   C696    1.485   .     S
C689   C691    1.390   .     A
C690   C692    1.400   .     A
C690   H732    1.084   .     S
C691   C693    1.398   .     A
C691   H733    1.084   .     S
C692   C945    1.448   1_545 S
C693   C944    1.448   .     S
C694   O754    1.221   .     D
C694   O738    1.399   .     S
C695   H734    1.083   .     S
C695   C704    1.413   .     A
C696   O739    1.223   .     D
C696   O740    1.398   .     S
C697   H715    1.116   .     S
C697   H716    1.112   .     S
C697   C698    1.521   .     S
C697   O741    1.413   .     S
C698   H718    1.110   .     S
C698   H719    1.110   .     S
C699   H722    1.118   .     S
C699   O742    1.417   .     S
C699   C700    1.524   .     S
C699   H721    1.111   .     S
C700   H723    1.109   .     S
C700   H725    1.111   .     S
C700   H724    1.111   .     S
C701   C708    1.487   .     S
C701   O744    1.399   .     S
C701   O743    1.223   .     D
C702   O746    1.399   .     S
C702   O241    1.223   1_556 S
C703   C705    1.407   .     A
C703   H710    1.083   .     S
C704   N735    1.369   .     A
C704   O741    1.381   .     S
C705   O742    1.379   .     S
C705   N736    1.369   .     A
C706   H711    1.079   .     S
C706   N735    1.365   .     A
C706   C708    1.416   .     A
C707   N736    1.364   .     A
C707   H712    1.081   .     S
H709   C511    1.087   1_655 S
H713   O738    1.013   .     S
H714   O740    1.014   .     S
H717   C530    1.111   1_655 S
H727   O746    1.014   .     S
N735   Zn756   2.007   .     S
N736   Zn755   2.007   .     S
O737   Zn755   1.998   .     S
O744   H558    1.014   1_655 S
O747   Zn756   1.998   .     S
O748   Zn756   1.997   .     S
O749   Zn755   1.997   .     S
O750   Zn755   1.962   .     S
O751   Zn756   1.962   .     S
O752   Zn756   1.977   .     S
O753   Zn755   1.977   .     S
C757   O821    1.283   .     A
C757   O832    1.283   .     A
C757   C770    1.426   .     S
C758   C791    1.417   .     A
C758   C760    1.424   .     A
C758   C786    1.486   .     S
C759   C779    1.403   .     A
C759   C792    1.422   .     A
C760   C787    1.404   .     A
C760   C255    1.513   1_556 S
C761   C763    1.399   .     S
C761   O836    1.280   .     A
C761   O834    1.275   .     A
C762   O837    1.279   .     A
C762   C764    1.400   .     S
C762   O835    1.276   .     A
C763   C932    1.331   1_455 S
C763   H961    1.087   1_455 S
C764   C847    1.331   .     S
C764   H888    1.088   .     S
C765   C776    1.397   .     A
C765   H812    1.083   .     S
C765   C767    1.379   .     A
C766   C777    1.396   .     A
C766   H813    1.084   .     S
C766   C769    1.376   .     A
C767   H814    1.084   .     S
C767   C770    1.396   .     A
C768   C771    1.445   .     S
C768   O833    1.287   .     A
C768   O831    1.289   .     A
C769   C771    1.400   .     A
C769   H815    1.084   .     S
C770   C772    1.413   .     A
C771   C773    1.418   .     A
C772   C778    1.491   .     S
C772   C774    1.390   .     A
C773   C780    1.485   .     S
C773   C775    1.390   .     A
C774   C776    1.400   .     A
C774   H816    1.084   .     S
C775   C777    1.398   .     A
C775   H817    1.084   .     S
C777   C524    1.448   1_565 S
C778   O838    1.221   .     D
C778   O822    1.399   .     S
C779   H818    1.083   .     S
C779   C788    1.413   .     A
C780   O823    1.223   .     D
C780   O824    1.398   .     S
C781   H799    1.116   .     S
C781   H800    1.112   .     S
C781   C782    1.521   .     S
C781   O825    1.413   .     S
C782   H802    1.110   .     S
C782   H803    1.110   .     S
C782   H969    1.111   1_455 S
C783   H806    1.118   .     S
C783   O826    1.417   .     S
C783   C784    1.524   .     S
C783   H805    1.111   .     S
C784   H807    1.109   .     S
C784   H809    1.111   .     S
C784   H808    1.111   .     S
C785   C792    1.487   .     S
C785   O828    1.399   .     S
C785   O827    1.223   .     D
C786   O830    1.399   .     S
C786   O325    1.223   1_556 S
C787   C789    1.407   .     A
C787   H794    1.083   .     S
C788   N819    1.369   .     A
C788   O825    1.381   .     S
C789   O826    1.379   .     S
C789   N820    1.369   .     A
C790   H795    1.079   .     S
C790   N819    1.365   .     A
C790   C792    1.416   .     A
C791   N820    1.364   .     A
C791   H796    1.081   .     S
H793   C847    1.087   .     S
H797   O822    1.013   .     S
H798   O824    1.014   .     S
H801   C866    1.111   .     S
H804   C932    1.088   1_455 S
H810   O996    1.014   1_455 S
H811   O830    1.014   .     S
N819   Zn840   2.007   .     S
N820   Zn839   2.007   .     S
O821   Zn839   1.998   .     S
O828   H894    1.014   .     S
O831   Zn840   1.998   .     S
O832   Zn840   1.997   .     S
O833   Zn839   1.997   .     S
O834   Zn839   1.962   .     S
O835   Zn840   1.962   .     S
O836   Zn840   1.977   .     S
O837   Zn839   1.977   .     S
C841   O905    1.283   .     A
C841   O916    1.283   .     A
C841   C854    1.426   .     S
C842   C875    1.417   .     A
C842   C844    1.424   .     A
C842   C870    1.486   .     S
C843   C863    1.403   .     A
C843   C876    1.422   .     A
C844   C871    1.404   .     A
C844   C339    1.513   1_556 S
C845   C847    1.399   .     S
C845   O920    1.280   .     A
C845   O918    1.275   .     A
C846   O921    1.279   .     A
C846   C848    1.400   .     S
C846   O919    1.276   .     A
C848   C931    1.331   .     S
C848   H972    1.088   .     S
C849   C860    1.397   .     A
C849   H896    1.083   .     S
C849   C851    1.379   .     A
C850   C861    1.396   .     A
C850   H897    1.084   .     S
C850   C853    1.376   .     A
C851   H898    1.084   .     S
C851   C854    1.396   .     A
C852   C855    1.445   .     S
C852   O917    1.287   .     A
C852   O915    1.289   .     A
C853   C855    1.400   .     A
C853   H899    1.084   .     S
C854   C856    1.413   .     A
C855   C857    1.418   .     A
C856   C862    1.491   .     S
C856   C858    1.390   .     A
C857   C864    1.485   .     S
C857   C859    1.390   .     A
C858   C860    1.400   .     A
C858   H900    1.084   .     S
C859   C861    1.398   .     A
C859   H901    1.084   .     S
C861   C608    1.448   1_565 S
C862   O922    1.221   .     D
C862   O906    1.399   .     S
C863   H902    1.083   .     S
C863   C872    1.413   .     A
C864   O907    1.223   .     D
C864   O908    1.398   .     S
C865   H883    1.116   .     S
C865   H884    1.112   .     S
C865   C866    1.521   .     S
C865   O909    1.413   .     S
C866   H886    1.110   .     S
C866   H887    1.110   .     S
C867   H890    1.118   .     S
C867   O910    1.417   .     S
C867   C868    1.524   .     S
C867   H889    1.111   .     S
C868   H891    1.109   .     S
C868   H893    1.111   .     S
C868   H892    1.111   .     S
C869   C876    1.487   .     S
C869   O912    1.399   .     S
C869   O911    1.223   .     D
C870   O914    1.399   .     S
C870   O409    1.223   1_556 S
C871   C873    1.407   .     A
C871   H878    1.083   .     S
C872   N903    1.369   .     A
C872   O909    1.381   .     S
C873   O910    1.379   .     S
C873   N904    1.369   .     A
C874   H879    1.079   .     S
C874   N903    1.365   .     A
C874   C876    1.416   .     A
C875   N904    1.364   .     A
C875   H880    1.081   .     S
H877   C931    1.087   .     S
H881   O906    1.013   .     S
H882   O908    1.014   .     S
H885   C950    1.111   .     S
H895   O914    1.014   .     S
N903   Zn924   2.007   .     S
N904   Zn923   2.007   .     S
O905   Zn923   1.998   .     S
O912   H978    1.014   .     S
O915   Zn924   1.998   .     S
O916   Zn924   1.997   .     S
O917   Zn923   1.997   .     S
O918   Zn923   1.962   .     S
O919   Zn924   1.962   .     S
O920   Zn924   1.977   .     S
O921   Zn923   1.977   .     S
C925   O989    1.283   .     A
C925   O1000   1.283   .     A
C925   C938    1.426   .     S
C926   C959    1.417   .     A
C926   C928    1.424   .     A
C926   C954    1.486   .     S
C927   C947    1.403   .     A
C927   C960    1.422   .     A
C928   C955    1.404   .     A
C928   C423    1.513   1_556 S
C929   C931    1.399   .     S
C929   O1004   1.280   .     A
C929   O1002   1.275   .     A
C930   O1005   1.279   .     A
C930   C932    1.400   .     S
C930   O1003   1.276   .     A
C932   C763    1.331   1_655 S
C932   H804    1.088   1_655 S
C933   C944    1.397   .     A
C933   H980    1.083   .     S
C933   C935    1.379   .     A
C934   C945    1.396   .     A
C934   H981    1.084   .     S
C934   C937    1.376   .     A
C935   H982    1.084   .     S
C935   C938    1.396   .     A
C936   C939    1.445   .     S
C936   O1001   1.287   .     A
C936   O999    1.289   .     A
C937   C939    1.400   .     A
C937   H983    1.084   .     S
C938   C940    1.413   .     A
C939   C941    1.418   .     A
C940   C946    1.491   .     S
C940   C942    1.390   .     A
C941   C948    1.485   .     S
C941   C943    1.390   .     A
C942   C944    1.400   .     A
C942   H984    1.084   .     S
C943   C945    1.398   .     A
C943   H985    1.084   .     S
C945   C692    1.448   1_565 S
C946   O1006   1.221   .     D
C946   O990    1.399   .     S
C947   H986    1.083   .     S
C947   C956    1.413   .     A
C948   O991    1.223   .     D
C948   O992    1.398   .     S
C949   H967    1.116   .     S
C949   H968    1.112   .     S
C949   C950    1.521   .     S
C949   O993    1.413   .     S
C950   H970    1.110   .     S
C950   H971    1.110   .     S
C951   H974    1.118   .     S
C951   O994    1.417   .     S
C951   C952    1.524   .     S
C951   H973    1.111   .     S
C952   H975    1.109   .     S
C952   H977    1.111   .     S
C952   H976    1.111   .     S
C953   C960    1.487   .     S
C953   O996    1.399   .     S
C953   O995    1.223   .     D
C954   O998    1.399   .     S
C954   O493    1.223   1_556 S
C955   C957    1.407   .     A
C955   H962    1.083   .     S
C956   N987    1.369   .     A
C956   O993    1.381   .     S
C957   O994    1.379   .     S
C957   N988    1.369   .     A
C958   H963    1.079   .     S
C958   N987    1.365   .     A
C958   C960    1.416   .     A
C959   N988    1.364   .     A
C959   H964    1.081   .     S
H961   C763    1.087   1_655 S
H965   O990    1.013   .     S
H966   O992    1.014   .     S
H969   C782    1.111   1_655 S
H979   O998    1.014   .     S
N987   Zn1008  2.007   .     S
N988   Zn1007  2.007   .     S
O989   Zn1007  1.998   .     S
O996   H810    1.014   1_655 S
O999   Zn1008  1.998   .     S
O1000  Zn1008  1.997   .     S
O1001  Zn1007  1.997   .     S
O1002  Zn1007  1.962   .     S
O1003  Zn1008  1.962   .     S
O1004  Zn1008  1.977   .     S
O1005  Zn1007  1.977   .     S
