data_str_m3_o10_o17_pcu_sym.41
_audit_creation_date              2020-01-03
_audit_creation_method            'Materials Studio'
_symmetry_space_group_name_H-M    'P1'
_symmetry_Int_Tables_number       1
_symmetry_cell_setting            triclinic
loop_
_symmetry_equiv_pos_as_xyz
  x,y,z
_cell_length_a                    23.7711
_cell_length_b                    25.7144
_cell_length_c                    29.9079
_cell_angle_alpha                 93.7192
_cell_angle_beta                  85.6668
_cell_angle_gamma                 92.6507
loop_
_atom_site_label
_atom_site_type_symbol
_atom_site_fract_x
_atom_site_fract_y
_atom_site_fract_z
_atom_site_U_iso_or_equiv
_atom_site_adp_type
_atom_site_occupancy
C1     C     0.18143   0.26461   0.24926   0.00000  Uiso   1.00
C2     C     0.21625   0.18230   0.40525   0.00000  Uiso   1.00
C3     C     0.16598   0.16718   0.11569   0.00000  Uiso   1.00
C4     C     0.16736   0.16616   0.38431   0.00000  Uiso   1.00
C5     C     0.21524   0.18309   0.09083   0.00000  Uiso   1.00
C6     C     0.11809   0.15024   0.40917   0.00000  Uiso   1.00
C7     C     0.21589   0.18306   0.04456   0.00000  Uiso   1.00
C8     C     0.11744   0.15027   0.45544   0.00000  Uiso   1.00
C9     C     0.16652   0.16683   0.02327   0.00000  Uiso   1.00
C10    C     0.16681   0.16650   0.47673   0.00000  Uiso   1.00
C11    C     0.11688   0.15082   0.04851   0.00000  Uiso   1.00
C12    C     0.15190   0.06872   0.25074   0.00000  Uiso   1.00
C13    C     0.21645   0.18251   0.45149   0.00000  Uiso   1.00
C14    C     0.26497   0.19895   0.01934   0.00000  Uiso   1.00
C15    C     0.06836   0.13439   0.48066   0.00000  Uiso   1.00
C16    C     0.00715   0.12574   0.19716   0.00000  Uiso   1.00
C17    C     0.30717   0.07537   0.18531   0.00000  Uiso   1.00
C18    C     0.32618   0.20759   0.30284   0.00000  Uiso   1.00
C19    C     0.02617   0.25797   0.31469   0.00000  Uiso   1.00
C20    C     0.26525   0.19869   0.47285   0.00000  Uiso   1.00
C21    C     0.06808   0.13464   0.02715   0.00000  Uiso   1.00
C22    C     0.18920   0.31906   0.25020   0.00000  Uiso   1.00
C23    C     0.14414   0.01427   0.24980   0.00000  Uiso   1.00
C24    C     0.16705   0.16668   0.33639   0.00000  Uiso   1.00
C25    C     0.16628   0.16665   0.16361   0.00000  Uiso   1.00
C26    C     0.11708   0.15103   0.09475   0.00000  Uiso   1.00
H27    H     0.07967   0.13767   0.11426   0.00000  Uiso   1.00
H28    H     0.10141   0.33115   0.24811   0.00000  Uiso   1.00
H29    H     0.30379   0.05026   0.21424   0.00000  Uiso   1.00
H30    H     0.26483   0.08271   0.17491   0.00000  Uiso   1.00
H31    H     0.32993   0.05384   0.15655   0.00000  Uiso   1.00
H32    H     0.00803   0.15194   0.16905   0.00000  Uiso   1.00
H33    H     0.04893   0.11235   0.20144   0.00000  Uiso   1.00
H34    H     0.06851   0.25062   0.32509   0.00000  Uiso   1.00
H35    H     0.02955   0.28308   0.28576   0.00000  Uiso   1.00
H36    H     0.00341   0.27950   0.34345   0.00000  Uiso   1.00
H37    H     0.28440   0.22098   0.29856   0.00000  Uiso   1.00
H38    H     0.25367   0.19566   0.38574   0.00000  Uiso   1.00
H39    H     0.32530   0.18139   0.33095   0.00000  Uiso   1.00
H40    H     0.25294   0.19577   0.10752   0.00000  Uiso   1.00
H41    H     0.08040   0.13757   0.39248   0.00000  Uiso   1.00
H42    H     0.30299   0.21151   0.03554   0.00000  Uiso   1.00
H43    H     0.03034   0.12182   0.46446   0.00000  Uiso   1.00
H44    H     0.30349   0.21103   0.45364   0.00000  Uiso   1.00
H45    H     0.02985   0.12230   0.04636   0.00000  Uiso   1.00
H46    H     0.23193   0.00218   0.25189   0.00000  Uiso   1.00
N47    N     0.31678   0.15265   0.23783   0.00000  Uiso   1.00
N48    N     0.01656   0.18068   0.26217   0.00000  Uiso   1.00
O49    O     0.12975   0.24619   0.25298   0.00000  Uiso   1.00
O50    O     0.20358   0.08714   0.24701   0.00000  Uiso   1.00
O51    O     0.22613   0.23721   0.24518   0.00000  Uiso   1.00
O52    O     0.10720   0.09613   0.25481   0.00000  Uiso   1.00
O53    O     0.11847   0.17117   0.31997   0.00000  Uiso   1.00
O54    O     0.21486   0.16216   0.18002   0.00000  Uiso   1.00
O55    O     0.21485   0.16219   0.31217   0.00000  Uiso   1.00
O56    O     0.11848   0.17115   0.18782   0.00000  Uiso   1.00
Zn57   Zn    0.10231   0.17266   0.25521   0.00000  Uiso   1.00
Zn58   Zn    0.23102   0.16067   0.24479   0.00000  Uiso   1.00
C59    C     0.51477   0.26461   0.24926   0.00000  Uiso   1.00
C60    C     0.54959   0.18230   0.40525   0.00000  Uiso   1.00
C61    C     0.49931   0.16718   0.11569   0.00000  Uiso   1.00
C62    C     0.50069   0.16616   0.38431   0.00000  Uiso   1.00
C63    C     0.54857   0.18309   0.09083   0.00000  Uiso   1.00
C64    C     0.45143   0.15024   0.40917   0.00000  Uiso   1.00
C65    C     0.54923   0.18306   0.04456   0.00000  Uiso   1.00
C66    C     0.45077   0.15027   0.45544   0.00000  Uiso   1.00
C67    C     0.49985   0.16683   0.02327   0.00000  Uiso   1.00
C68    C     0.50015   0.16650   0.47673   0.00000  Uiso   1.00
C69    C     0.45021   0.15082   0.04851   0.00000  Uiso   1.00
C70    C     0.48523   0.06872   0.25074   0.00000  Uiso   1.00
C71    C     0.54979   0.18251   0.45149   0.00000  Uiso   1.00
C72    C     0.59831   0.19895   0.01934   0.00000  Uiso   1.00
C73    C     0.40169   0.13439   0.48066   0.00000  Uiso   1.00
C74    C     0.34049   0.12574   0.19716   0.00000  Uiso   1.00
C75    C     0.64050   0.07537   0.18531   0.00000  Uiso   1.00
C76    C     0.65951   0.20759   0.30284   0.00000  Uiso   1.00
C77    C     0.35950   0.25797   0.31469   0.00000  Uiso   1.00
C78    C     0.59858   0.19869   0.47285   0.00000  Uiso   1.00
C79    C     0.40142   0.13464   0.02715   0.00000  Uiso   1.00
C80    C     0.52253   0.31906   0.25020   0.00000  Uiso   1.00
C81    C     0.47747   0.01427   0.24980   0.00000  Uiso   1.00
C82    C     0.50038   0.16668   0.33639   0.00000  Uiso   1.00
C83    C     0.49962   0.16665   0.16361   0.00000  Uiso   1.00
C84    C     0.45041   0.15103   0.09475   0.00000  Uiso   1.00
H85    H     0.41300   0.13767   0.11426   0.00000  Uiso   1.00
H86    H     0.43474   0.33115   0.24811   0.00000  Uiso   1.00
H87    H     0.63712   0.05026   0.21424   0.00000  Uiso   1.00
H88    H     0.59816   0.08271   0.17491   0.00000  Uiso   1.00
H89    H     0.66326   0.05384   0.15655   0.00000  Uiso   1.00
H90    H     0.34136   0.15194   0.16905   0.00000  Uiso   1.00
H91    H     0.38226   0.11235   0.20144   0.00000  Uiso   1.00
H92    H     0.40184   0.25062   0.32509   0.00000  Uiso   1.00
H93    H     0.36288   0.28308   0.28576   0.00000  Uiso   1.00
H94    H     0.33674   0.27950   0.34345   0.00000  Uiso   1.00
H95    H     0.61774   0.22098   0.29856   0.00000  Uiso   1.00
H96    H     0.58700   0.19566   0.38574   0.00000  Uiso   1.00
H97    H     0.65863   0.18139   0.33095   0.00000  Uiso   1.00
H98    H     0.58627   0.19577   0.10752   0.00000  Uiso   1.00
H99    H     0.41373   0.13757   0.39248   0.00000  Uiso   1.00
H100   H     0.63632   0.21151   0.03554   0.00000  Uiso   1.00
H101   H     0.36368   0.12182   0.46446   0.00000  Uiso   1.00
H102   H     0.63682   0.21103   0.45364   0.00000  Uiso   1.00
H103   H     0.36318   0.12230   0.04636   0.00000  Uiso   1.00
H104   H     0.56526   0.00218   0.25189   0.00000  Uiso   1.00
N105   N     0.65011   0.15265   0.23783   0.00000  Uiso   1.00
N106   N     0.34989   0.18068   0.26217   0.00000  Uiso   1.00
O107   O     0.46308   0.24619   0.25298   0.00000  Uiso   1.00
O108   O     0.53692   0.08714   0.24701   0.00000  Uiso   1.00
O109   O     0.55946   0.23721   0.24518   0.00000  Uiso   1.00
O110   O     0.44054   0.09613   0.25481   0.00000  Uiso   1.00
O111   O     0.45181   0.17117   0.31997   0.00000  Uiso   1.00
O112   O     0.54819   0.16216   0.18002   0.00000  Uiso   1.00
O113   O     0.54819   0.16219   0.31217   0.00000  Uiso   1.00
O114   O     0.45181   0.17115   0.18782   0.00000  Uiso   1.00
Zn115  Zn    0.43565   0.17266   0.25521   0.00000  Uiso   1.00
Zn116  Zn    0.56435   0.16067   0.24479   0.00000  Uiso   1.00
C117   C     0.84810   0.26461   0.24926   0.00000  Uiso   1.00
C118   C     0.88292   0.18230   0.40525   0.00000  Uiso   1.00
C119   C     0.83264   0.16718   0.11569   0.00000  Uiso   1.00
C120   C     0.83402   0.16616   0.38431   0.00000  Uiso   1.00
C121   C     0.88191   0.18309   0.09083   0.00000  Uiso   1.00
C122   C     0.78476   0.15024   0.40917   0.00000  Uiso   1.00
C123   C     0.88256   0.18306   0.04456   0.00000  Uiso   1.00
C124   C     0.78410   0.15027   0.45544   0.00000  Uiso   1.00
C125   C     0.83318   0.16683   0.02327   0.00000  Uiso   1.00
C126   C     0.83348   0.16650   0.47673   0.00000  Uiso   1.00
C127   C     0.78355   0.15082   0.04851   0.00000  Uiso   1.00
C128   C     0.81857   0.06872   0.25074   0.00000  Uiso   1.00
C129   C     0.88312   0.18251   0.45149   0.00000  Uiso   1.00
C130   C     0.93164   0.19895   0.01934   0.00000  Uiso   1.00
C131   C     0.73502   0.13439   0.48066   0.00000  Uiso   1.00
C132   C     0.67382   0.12574   0.19716   0.00000  Uiso   1.00
C133   C     0.97383   0.07537   0.18531   0.00000  Uiso   1.00
C134   C     0.99285   0.20759   0.30284   0.00000  Uiso   1.00
C135   C     0.69283   0.25797   0.31469   0.00000  Uiso   1.00
C136   C     0.93192   0.19869   0.47285   0.00000  Uiso   1.00
C137   C     0.73475   0.13464   0.02715   0.00000  Uiso   1.00
C138   C     0.85586   0.31906   0.25020   0.00000  Uiso   1.00
C139   C     0.81080   0.01427   0.24980   0.00000  Uiso   1.00
C140   C     0.83372   0.16668   0.33639   0.00000  Uiso   1.00
C141   C     0.83295   0.16665   0.16361   0.00000  Uiso   1.00
C142   C     0.78375   0.15103   0.09475   0.00000  Uiso   1.00
H143   H     0.74633   0.13767   0.11426   0.00000  Uiso   1.00
H144   H     0.76807   0.33115   0.24811   0.00000  Uiso   1.00
H145   H     0.97045   0.05026   0.21424   0.00000  Uiso   1.00
H146   H     0.93149   0.08271   0.17491   0.00000  Uiso   1.00
H147   H     0.99659   0.05384   0.15655   0.00000  Uiso   1.00
H148   H     0.67470   0.15194   0.16905   0.00000  Uiso   1.00
H149   H     0.71560   0.11235   0.20144   0.00000  Uiso   1.00
H150   H     0.73517   0.25062   0.32509   0.00000  Uiso   1.00
H151   H     0.69621   0.28308   0.28576   0.00000  Uiso   1.00
H152   H     0.67007   0.27950   0.34345   0.00000  Uiso   1.00
H153   H     0.95107   0.22098   0.29856   0.00000  Uiso   1.00
H154   H     0.92033   0.19566   0.38574   0.00000  Uiso   1.00
H155   H     0.99197   0.18139   0.33095   0.00000  Uiso   1.00
H156   H     0.91960   0.19577   0.10752   0.00000  Uiso   1.00
H157   H     0.74706   0.13757   0.39248   0.00000  Uiso   1.00
H158   H     0.96966   0.21151   0.03554   0.00000  Uiso   1.00
H159   H     0.69701   0.12182   0.46446   0.00000  Uiso   1.00
H160   H     0.97015   0.21103   0.45364   0.00000  Uiso   1.00
H161   H     0.69651   0.12230   0.04636   0.00000  Uiso   1.00
H162   H     0.89859   0.00218   0.25189   0.00000  Uiso   1.00
N163   N     0.98344   0.15265   0.23783   0.00000  Uiso   1.00
N164   N     0.68322   0.18068   0.26217   0.00000  Uiso   1.00
O165   O     0.79642   0.24619   0.25298   0.00000  Uiso   1.00
O166   O     0.87025   0.08714   0.24701   0.00000  Uiso   1.00
O167   O     0.89280   0.23721   0.24518   0.00000  Uiso   1.00
O168   O     0.77387   0.09613   0.25481   0.00000  Uiso   1.00
O169   O     0.78514   0.17117   0.31997   0.00000  Uiso   1.00
O170   O     0.88153   0.16216   0.18002   0.00000  Uiso   1.00
O171   O     0.88152   0.16219   0.31217   0.00000  Uiso   1.00
O172   O     0.78515   0.17115   0.18782   0.00000  Uiso   1.00
Zn173  Zn    0.76898   0.17266   0.25521   0.00000  Uiso   1.00
Zn174  Zn    0.89769   0.16067   0.24479   0.00000  Uiso   1.00
C175   C     0.18143   0.59794   0.24926   0.00000  Uiso   1.00
C176   C     0.21625   0.51563   0.40525   0.00000  Uiso   1.00
C177   C     0.16598   0.50051   0.11569   0.00000  Uiso   1.00
C178   C     0.16736   0.49949   0.38431   0.00000  Uiso   1.00
C179   C     0.21524   0.51643   0.09083   0.00000  Uiso   1.00
C180   C     0.11809   0.48357   0.40917   0.00000  Uiso   1.00
C181   C     0.21589   0.51639   0.04456   0.00000  Uiso   1.00
C182   C     0.11744   0.48361   0.45544   0.00000  Uiso   1.00
C183   C     0.16652   0.50016   0.02327   0.00000  Uiso   1.00
C184   C     0.16681   0.49984   0.47673   0.00000  Uiso   1.00
C185   C     0.11688   0.48415   0.04851   0.00000  Uiso   1.00
C186   C     0.15190   0.40206   0.25074   0.00000  Uiso   1.00
C187   C     0.21645   0.51585   0.45149   0.00000  Uiso   1.00
C188   C     0.26497   0.53228   0.01934   0.00000  Uiso   1.00
C189   C     0.06836   0.46772   0.48066   0.00000  Uiso   1.00
C190   C     0.00715   0.45908   0.19716   0.00000  Uiso   1.00
C191   C     0.30717   0.40870   0.18531   0.00000  Uiso   1.00
C192   C     0.32618   0.54092   0.30284   0.00000  Uiso   1.00
C193   C     0.02617   0.59130   0.31469   0.00000  Uiso   1.00
C194   C     0.26525   0.53203   0.47285   0.00000  Uiso   1.00
C195   C     0.06808   0.46797   0.02715   0.00000  Uiso   1.00
C196   C     0.18920   0.65239   0.25020   0.00000  Uiso   1.00
C197   C     0.14414   0.34761   0.24980   0.00000  Uiso   1.00
C198   C     0.16705   0.50002   0.33639   0.00000  Uiso   1.00
C199   C     0.16628   0.49998   0.16361   0.00000  Uiso   1.00
C200   C     0.11708   0.48437   0.09475   0.00000  Uiso   1.00
H201   H     0.07967   0.47101   0.11426   0.00000  Uiso   1.00
H202   H     0.10141   0.66449   0.24811   0.00000  Uiso   1.00
H203   H     0.30379   0.38359   0.21424   0.00000  Uiso   1.00
H204   H     0.26483   0.41604   0.17491   0.00000  Uiso   1.00
H205   H     0.32993   0.38717   0.15655   0.00000  Uiso   1.00
H206   H     0.00803   0.48528   0.16905   0.00000  Uiso   1.00
H207   H     0.04893   0.44569   0.20144   0.00000  Uiso   1.00
H208   H     0.06851   0.58396   0.32509   0.00000  Uiso   1.00
H209   H     0.02955   0.61641   0.28576   0.00000  Uiso   1.00
H210   H     0.00341   0.61283   0.34345   0.00000  Uiso   1.00
H211   H     0.28440   0.55431   0.29856   0.00000  Uiso   1.00
H212   H     0.25367   0.52899   0.38574   0.00000  Uiso   1.00
H213   H     0.32530   0.51472   0.33095   0.00000  Uiso   1.00
H214   H     0.25294   0.52910   0.10752   0.00000  Uiso   1.00
H215   H     0.08040   0.47090   0.39248   0.00000  Uiso   1.00
H216   H     0.30299   0.54484   0.03554   0.00000  Uiso   1.00
H217   H     0.03034   0.45516   0.46446   0.00000  Uiso   1.00
H218   H     0.30349   0.54437   0.45364   0.00000  Uiso   1.00
H219   H     0.02985   0.45563   0.04636   0.00000  Uiso   1.00
H220   H     0.23193   0.33551   0.25189   0.00000  Uiso   1.00
N221   N     0.31678   0.48598   0.23783   0.00000  Uiso   1.00
N222   N     0.01656   0.51402   0.26217   0.00000  Uiso   1.00
O223   O     0.12975   0.57952   0.25298   0.00000  Uiso   1.00
O224   O     0.20358   0.42048   0.24701   0.00000  Uiso   1.00
O225   O     0.22613   0.57054   0.24518   0.00000  Uiso   1.00
O226   O     0.10720   0.42946   0.25481   0.00000  Uiso   1.00
O227   O     0.11847   0.50450   0.31997   0.00000  Uiso   1.00
O228   O     0.21486   0.49550   0.18002   0.00000  Uiso   1.00
O229   O     0.21485   0.49552   0.31217   0.00000  Uiso   1.00
O230   O     0.11848   0.50448   0.18782   0.00000  Uiso   1.00
Zn231  Zn    0.10231   0.50600   0.25521   0.00000  Uiso   1.00
Zn232  Zn    0.23102   0.49400   0.24479   0.00000  Uiso   1.00
C233   C     0.51477   0.59794   0.24926   0.00000  Uiso   1.00
C234   C     0.54959   0.51563   0.40525   0.00000  Uiso   1.00
C235   C     0.49931   0.50051   0.11569   0.00000  Uiso   1.00
C236   C     0.50069   0.49949   0.38431   0.00000  Uiso   1.00
C237   C     0.54857   0.51643   0.09083   0.00000  Uiso   1.00
C238   C     0.45143   0.48357   0.40917   0.00000  Uiso   1.00
C239   C     0.54923   0.51639   0.04456   0.00000  Uiso   1.00
C240   C     0.45077   0.48361   0.45544   0.00000  Uiso   1.00
C241   C     0.49985   0.50016   0.02327   0.00000  Uiso   1.00
C242   C     0.50015   0.49984   0.47673   0.00000  Uiso   1.00
C243   C     0.45021   0.48415   0.04851   0.00000  Uiso   1.00
C244   C     0.48523   0.40206   0.25074   0.00000  Uiso   1.00
C245   C     0.54979   0.51585   0.45149   0.00000  Uiso   1.00
C246   C     0.59831   0.53228   0.01934   0.00000  Uiso   1.00
C247   C     0.40169   0.46772   0.48066   0.00000  Uiso   1.00
C248   C     0.34049   0.45908   0.19716   0.00000  Uiso   1.00
C249   C     0.64050   0.40870   0.18531   0.00000  Uiso   1.00
C250   C     0.65951   0.54092   0.30284   0.00000  Uiso   1.00
C251   C     0.35950   0.59130   0.31469   0.00000  Uiso   1.00
C252   C     0.59858   0.53203   0.47285   0.00000  Uiso   1.00
C253   C     0.40142   0.46797   0.02715   0.00000  Uiso   1.00
C254   C     0.52253   0.65239   0.25020   0.00000  Uiso   1.00
C255   C     0.47747   0.34761   0.24980   0.00000  Uiso   1.00
C256   C     0.50038   0.50002   0.33639   0.00000  Uiso   1.00
C257   C     0.49962   0.49998   0.16361   0.00000  Uiso   1.00
C258   C     0.45041   0.48437   0.09475   0.00000  Uiso   1.00
H259   H     0.41300   0.47101   0.11426   0.00000  Uiso   1.00
H260   H     0.43474   0.66449   0.24811   0.00000  Uiso   1.00
H261   H     0.63712   0.38359   0.21424   0.00000  Uiso   1.00
H262   H     0.59816   0.41604   0.17491   0.00000  Uiso   1.00
H263   H     0.66326   0.38717   0.15655   0.00000  Uiso   1.00
H264   H     0.34136   0.48528   0.16905   0.00000  Uiso   1.00
H265   H     0.38226   0.44569   0.20144   0.00000  Uiso   1.00
H266   H     0.40184   0.58396   0.32509   0.00000  Uiso   1.00
H267   H     0.36288   0.61641   0.28576   0.00000  Uiso   1.00
H268   H     0.33674   0.61283   0.34345   0.00000  Uiso   1.00
H269   H     0.61774   0.55431   0.29856   0.00000  Uiso   1.00
H270   H     0.58700   0.52899   0.38574   0.00000  Uiso   1.00
H271   H     0.65863   0.51472   0.33095   0.00000  Uiso   1.00
H272   H     0.58627   0.52910   0.10752   0.00000  Uiso   1.00
H273   H     0.41373   0.47090   0.39248   0.00000  Uiso   1.00
H274   H     0.63632   0.54484   0.03554   0.00000  Uiso   1.00
H275   H     0.36368   0.45516   0.46446   0.00000  Uiso   1.00
H276   H     0.63682   0.54437   0.45364   0.00000  Uiso   1.00
H277   H     0.36318   0.45563   0.04636   0.00000  Uiso   1.00
H278   H     0.56526   0.33551   0.25189   0.00000  Uiso   1.00
N279   N     0.65011   0.48598   0.23783   0.00000  Uiso   1.00
N280   N     0.34989   0.51402   0.26217   0.00000  Uiso   1.00
O281   O     0.46308   0.57952   0.25298   0.00000  Uiso   1.00
O282   O     0.53692   0.42048   0.24701   0.00000  Uiso   1.00
O283   O     0.55946   0.57054   0.24518   0.00000  Uiso   1.00
O284   O     0.44054   0.42946   0.25481   0.00000  Uiso   1.00
O285   O     0.45181   0.50450   0.31997   0.00000  Uiso   1.00
O286   O     0.54819   0.49550   0.18002   0.00000  Uiso   1.00
O287   O     0.54819   0.49552   0.31217   0.00000  Uiso   1.00
O288   O     0.45181   0.50448   0.18782   0.00000  Uiso   1.00
Zn289  Zn    0.43565   0.50600   0.25521   0.00000  Uiso   1.00
Zn290  Zn    0.56435   0.49400   0.24479   0.00000  Uiso   1.00
C291   C     0.84810   0.59794   0.24926   0.00000  Uiso   1.00
C292   C     0.88292   0.51563   0.40525   0.00000  Uiso   1.00
C293   C     0.83264   0.50051   0.11569   0.00000  Uiso   1.00
C294   C     0.83402   0.49949   0.38431   0.00000  Uiso   1.00
C295   C     0.88191   0.51643   0.09083   0.00000  Uiso   1.00
C296   C     0.78476   0.48357   0.40917   0.00000  Uiso   1.00
C297   C     0.88256   0.51639   0.04456   0.00000  Uiso   1.00
C298   C     0.78410   0.48361   0.45544   0.00000  Uiso   1.00
C299   C     0.83318   0.50016   0.02327   0.00000  Uiso   1.00
C300   C     0.83348   0.49984   0.47673   0.00000  Uiso   1.00
C301   C     0.78355   0.48415   0.04851   0.00000  Uiso   1.00
C302   C     0.81857   0.40206   0.25074   0.00000  Uiso   1.00
C303   C     0.88312   0.51585   0.45149   0.00000  Uiso   1.00
C304   C     0.93164   0.53228   0.01934   0.00000  Uiso   1.00
C305   C     0.73502   0.46772   0.48066   0.00000  Uiso   1.00
C306   C     0.67382   0.45908   0.19716   0.00000  Uiso   1.00
C307   C     0.97383   0.40870   0.18531   0.00000  Uiso   1.00
C308   C     0.99285   0.54092   0.30284   0.00000  Uiso   1.00
C309   C     0.69283   0.59130   0.31469   0.00000  Uiso   1.00
C310   C     0.93192   0.53203   0.47285   0.00000  Uiso   1.00
C311   C     0.73475   0.46797   0.02715   0.00000  Uiso   1.00
C312   C     0.85586   0.65239   0.25020   0.00000  Uiso   1.00
C313   C     0.81080   0.34761   0.24980   0.00000  Uiso   1.00
C314   C     0.83372   0.50002   0.33639   0.00000  Uiso   1.00
C315   C     0.83295   0.49998   0.16361   0.00000  Uiso   1.00
C316   C     0.78375   0.48437   0.09475   0.00000  Uiso   1.00
H317   H     0.74633   0.47101   0.11426   0.00000  Uiso   1.00
H318   H     0.76807   0.66449   0.24811   0.00000  Uiso   1.00
H319   H     0.97045   0.38359   0.21424   0.00000  Uiso   1.00
H320   H     0.93149   0.41604   0.17491   0.00000  Uiso   1.00
H321   H     0.99659   0.38717   0.15655   0.00000  Uiso   1.00
H322   H     0.67470   0.48528   0.16905   0.00000  Uiso   1.00
H323   H     0.71560   0.44569   0.20144   0.00000  Uiso   1.00
H324   H     0.73517   0.58396   0.32509   0.00000  Uiso   1.00
H325   H     0.69621   0.61641   0.28576   0.00000  Uiso   1.00
H326   H     0.67007   0.61283   0.34345   0.00000  Uiso   1.00
H327   H     0.95107   0.55431   0.29856   0.00000  Uiso   1.00
H328   H     0.92033   0.52899   0.38574   0.00000  Uiso   1.00
H329   H     0.99197   0.51472   0.33095   0.00000  Uiso   1.00
H330   H     0.91960   0.52910   0.10752   0.00000  Uiso   1.00
H331   H     0.74706   0.47090   0.39248   0.00000  Uiso   1.00
H332   H     0.96966   0.54484   0.03554   0.00000  Uiso   1.00
H333   H     0.69701   0.45516   0.46446   0.00000  Uiso   1.00
H334   H     0.97015   0.54437   0.45364   0.00000  Uiso   1.00
H335   H     0.69651   0.45563   0.04636   0.00000  Uiso   1.00
H336   H     0.89859   0.33551   0.25189   0.00000  Uiso   1.00
N337   N     0.98344   0.48598   0.23783   0.00000  Uiso   1.00
N338   N     0.68322   0.51402   0.26217   0.00000  Uiso   1.00
O339   O     0.79642   0.57952   0.25298   0.00000  Uiso   1.00
O340   O     0.87025   0.42048   0.24701   0.00000  Uiso   1.00
O341   O     0.89280   0.57054   0.24518   0.00000  Uiso   1.00
O342   O     0.77387   0.42946   0.25481   0.00000  Uiso   1.00
O343   O     0.78514   0.50450   0.31997   0.00000  Uiso   1.00
O344   O     0.88153   0.49550   0.18002   0.00000  Uiso   1.00
O345   O     0.88152   0.49552   0.31217   0.00000  Uiso   1.00
O346   O     0.78515   0.50448   0.18782   0.00000  Uiso   1.00
Zn347  Zn    0.76898   0.50600   0.25521   0.00000  Uiso   1.00
Zn348  Zn    0.89769   0.49400   0.24479   0.00000  Uiso   1.00
C349   C     0.18143   0.93128   0.24926   0.00000  Uiso   1.00
C350   C     0.21625   0.84897   0.40525   0.00000  Uiso   1.00
C351   C     0.16598   0.83384   0.11569   0.00000  Uiso   1.00
C352   C     0.16736   0.83282   0.38431   0.00000  Uiso   1.00
C353   C     0.21524   0.84976   0.09083   0.00000  Uiso   1.00
C354   C     0.11809   0.81691   0.40917   0.00000  Uiso   1.00
C355   C     0.21589   0.84973   0.04456   0.00000  Uiso   1.00
C356   C     0.11744   0.81694   0.45544   0.00000  Uiso   1.00
C357   C     0.16652   0.83350   0.02327   0.00000  Uiso   1.00
C358   C     0.16681   0.83317   0.47673   0.00000  Uiso   1.00
C359   C     0.11688   0.81748   0.04851   0.00000  Uiso   1.00
C360   C     0.15190   0.73539   0.25074   0.00000  Uiso   1.00
C361   C     0.21645   0.84918   0.45149   0.00000  Uiso   1.00
C362   C     0.26497   0.86561   0.01934   0.00000  Uiso   1.00
C363   C     0.06836   0.80105   0.48066   0.00000  Uiso   1.00
C364   C     0.00715   0.79241   0.19716   0.00000  Uiso   1.00
C365   C     0.30717   0.74203   0.18531   0.00000  Uiso   1.00
C366   C     0.32618   0.87426   0.30284   0.00000  Uiso   1.00
C367   C     0.02617   0.92463   0.31469   0.00000  Uiso   1.00
C368   C     0.26525   0.86536   0.47285   0.00000  Uiso   1.00
C369   C     0.06808   0.80131   0.02715   0.00000  Uiso   1.00
C370   C     0.18920   0.98573   0.25020   0.00000  Uiso   1.00
C371   C     0.14414   0.68094   0.24980   0.00000  Uiso   1.00
C372   C     0.16705   0.83335   0.33639   0.00000  Uiso   1.00
C373   C     0.16628   0.83332   0.16361   0.00000  Uiso   1.00
C374   C     0.11708   0.81770   0.09475   0.00000  Uiso   1.00
H375   H     0.07967   0.80434   0.11426   0.00000  Uiso   1.00
H376   H     0.10141   0.99782   0.24811   0.00000  Uiso   1.00
H377   H     0.30379   0.71692   0.21424   0.00000  Uiso   1.00
H378   H     0.26483   0.74938   0.17491   0.00000  Uiso   1.00
H379   H     0.32993   0.72050   0.15655   0.00000  Uiso   1.00
H380   H     0.00803   0.81861   0.16905   0.00000  Uiso   1.00
H381   H     0.04893   0.77902   0.20144   0.00000  Uiso   1.00
H382   H     0.06851   0.91729   0.32509   0.00000  Uiso   1.00
H383   H     0.02955   0.94974   0.28576   0.00000  Uiso   1.00
H384   H     0.00341   0.94616   0.34345   0.00000  Uiso   1.00
H385   H     0.28440   0.88765   0.29856   0.00000  Uiso   1.00
H386   H     0.25367   0.86233   0.38574   0.00000  Uiso   1.00
H387   H     0.32530   0.84806   0.33095   0.00000  Uiso   1.00
H388   H     0.25294   0.86243   0.10752   0.00000  Uiso   1.00
H389   H     0.08040   0.80424   0.39248   0.00000  Uiso   1.00
H390   H     0.30299   0.87818   0.03554   0.00000  Uiso   1.00
H391   H     0.03034   0.78849   0.46446   0.00000  Uiso   1.00
H392   H     0.30349   0.87770   0.45364   0.00000  Uiso   1.00
H393   H     0.02985   0.78897   0.04636   0.00000  Uiso   1.00
H394   H     0.23193   0.66885   0.25189   0.00000  Uiso   1.00
N395   N     0.31678   0.81932   0.23783   0.00000  Uiso   1.00
N396   N     0.01656   0.84735   0.26217   0.00000  Uiso   1.00
O397   O     0.12975   0.91286   0.25298   0.00000  Uiso   1.00
O398   O     0.20358   0.75381   0.24701   0.00000  Uiso   1.00
O399   O     0.22613   0.90387   0.24518   0.00000  Uiso   1.00
O400   O     0.10720   0.76279   0.25481   0.00000  Uiso   1.00
O401   O     0.11847   0.83784   0.31997   0.00000  Uiso   1.00
O402   O     0.21486   0.82883   0.18002   0.00000  Uiso   1.00
O403   O     0.21485   0.82885   0.31217   0.00000  Uiso   1.00
O404   O     0.11848   0.83781   0.18782   0.00000  Uiso   1.00
Zn405  Zn    0.10231   0.83933   0.25521   0.00000  Uiso   1.00
Zn406  Zn    0.23102   0.82734   0.24479   0.00000  Uiso   1.00
C407   C     0.51477   0.93128   0.24926   0.00000  Uiso   1.00
C408   C     0.54959   0.84897   0.40525   0.00000  Uiso   1.00
C409   C     0.49931   0.83384   0.11569   0.00000  Uiso   1.00
C410   C     0.50069   0.83282   0.38431   0.00000  Uiso   1.00
C411   C     0.54857   0.84976   0.09083   0.00000  Uiso   1.00
C412   C     0.45143   0.81691   0.40917   0.00000  Uiso   1.00
C413   C     0.54923   0.84973   0.04456   0.00000  Uiso   1.00
C414   C     0.45077   0.81694   0.45544   0.00000  Uiso   1.00
C415   C     0.49985   0.83350   0.02327   0.00000  Uiso   1.00
C416   C     0.50015   0.83317   0.47673   0.00000  Uiso   1.00
C417   C     0.45021   0.81748   0.04851   0.00000  Uiso   1.00
C418   C     0.48523   0.73539   0.25074   0.00000  Uiso   1.00
C419   C     0.54979   0.84918   0.45149   0.00000  Uiso   1.00
C420   C     0.59831   0.86561   0.01934   0.00000  Uiso   1.00
C421   C     0.40169   0.80105   0.48066   0.00000  Uiso   1.00
C422   C     0.34049   0.79241   0.19716   0.00000  Uiso   1.00
C423   C     0.64050   0.74203   0.18531   0.00000  Uiso   1.00
C424   C     0.65951   0.87426   0.30284   0.00000  Uiso   1.00
C425   C     0.35950   0.92463   0.31469   0.00000  Uiso   1.00
C426   C     0.59858   0.86536   0.47285   0.00000  Uiso   1.00
C427   C     0.40142   0.80131   0.02715   0.00000  Uiso   1.00
C428   C     0.52253   0.98573   0.25020   0.00000  Uiso   1.00
C429   C     0.47747   0.68094   0.24980   0.00000  Uiso   1.00
C430   C     0.50038   0.83335   0.33639   0.00000  Uiso   1.00
C431   C     0.49962   0.83332   0.16361   0.00000  Uiso   1.00
C432   C     0.45041   0.81770   0.09475   0.00000  Uiso   1.00
H433   H     0.41300   0.80434   0.11426   0.00000  Uiso   1.00
H434   H     0.43474   0.99782   0.24811   0.00000  Uiso   1.00
H435   H     0.63712   0.71692   0.21424   0.00000  Uiso   1.00
H436   H     0.59816   0.74938   0.17491   0.00000  Uiso   1.00
H437   H     0.66326   0.72050   0.15655   0.00000  Uiso   1.00
H438   H     0.34136   0.81861   0.16905   0.00000  Uiso   1.00
H439   H     0.38226   0.77902   0.20144   0.00000  Uiso   1.00
H440   H     0.40184   0.91729   0.32509   0.00000  Uiso   1.00
H441   H     0.36288   0.94974   0.28576   0.00000  Uiso   1.00
H442   H     0.33674   0.94616   0.34345   0.00000  Uiso   1.00
H443   H     0.61774   0.88765   0.29856   0.00000  Uiso   1.00
H444   H     0.58700   0.86233   0.38574   0.00000  Uiso   1.00
H445   H     0.65863   0.84806   0.33095   0.00000  Uiso   1.00
H446   H     0.58627   0.86243   0.10752   0.00000  Uiso   1.00
H447   H     0.41373   0.80424   0.39248   0.00000  Uiso   1.00
H448   H     0.63632   0.87818   0.03554   0.00000  Uiso   1.00
H449   H     0.36368   0.78849   0.46446   0.00000  Uiso   1.00
H450   H     0.63682   0.87770   0.45364   0.00000  Uiso   1.00
H451   H     0.36318   0.78897   0.04636   0.00000  Uiso   1.00
H452   H     0.56526   0.66885   0.25189   0.00000  Uiso   1.00
N453   N     0.65011   0.81932   0.23783   0.00000  Uiso   1.00
N454   N     0.34989   0.84735   0.26217   0.00000  Uiso   1.00
O455   O     0.46308   0.91286   0.25298   0.00000  Uiso   1.00
O456   O     0.53692   0.75381   0.24701   0.00000  Uiso   1.00
O457   O     0.55946   0.90387   0.24518   0.00000  Uiso   1.00
O458   O     0.44054   0.76279   0.25481   0.00000  Uiso   1.00
O459   O     0.45181   0.83784   0.31997   0.00000  Uiso   1.00
O460   O     0.54819   0.82883   0.18002   0.00000  Uiso   1.00
O461   O     0.54819   0.82885   0.31217   0.00000  Uiso   1.00
O462   O     0.45181   0.83781   0.18782   0.00000  Uiso   1.00
Zn463  Zn    0.43565   0.83933   0.25521   0.00000  Uiso   1.00
Zn464  Zn    0.56435   0.82734   0.24479   0.00000  Uiso   1.00
C465   C     0.84810   0.93128   0.24926   0.00000  Uiso   1.00
C466   C     0.88292   0.84897   0.40525   0.00000  Uiso   1.00
C467   C     0.83264   0.83384   0.11569   0.00000  Uiso   1.00
C468   C     0.83402   0.83282   0.38431   0.00000  Uiso   1.00
C469   C     0.88191   0.84976   0.09083   0.00000  Uiso   1.00
C470   C     0.78476   0.81691   0.40917   0.00000  Uiso   1.00
C471   C     0.88256   0.84973   0.04456   0.00000  Uiso   1.00
C472   C     0.78410   0.81694   0.45544   0.00000  Uiso   1.00
C473   C     0.83318   0.83350   0.02327   0.00000  Uiso   1.00
C474   C     0.83348   0.83317   0.47673   0.00000  Uiso   1.00
C475   C     0.78355   0.81748   0.04851   0.00000  Uiso   1.00
C476   C     0.81857   0.73539   0.25074   0.00000  Uiso   1.00
C477   C     0.88312   0.84918   0.45149   0.00000  Uiso   1.00
C478   C     0.93164   0.86561   0.01934   0.00000  Uiso   1.00
C479   C     0.73502   0.80105   0.48066   0.00000  Uiso   1.00
C480   C     0.67382   0.79241   0.19716   0.00000  Uiso   1.00
C481   C     0.97383   0.74203   0.18531   0.00000  Uiso   1.00
C482   C     0.99285   0.87426   0.30284   0.00000  Uiso   1.00
C483   C     0.69283   0.92463   0.31469   0.00000  Uiso   1.00
C484   C     0.93192   0.86536   0.47285   0.00000  Uiso   1.00
C485   C     0.73475   0.80131   0.02715   0.00000  Uiso   1.00
C486   C     0.85586   0.98573   0.25020   0.00000  Uiso   1.00
C487   C     0.81080   0.68094   0.24980   0.00000  Uiso   1.00
C488   C     0.83372   0.83335   0.33639   0.00000  Uiso   1.00
C489   C     0.83295   0.83332   0.16361   0.00000  Uiso   1.00
C490   C     0.78375   0.81770   0.09475   0.00000  Uiso   1.00
H491   H     0.74633   0.80434   0.11426   0.00000  Uiso   1.00
H492   H     0.76807   0.99782   0.24811   0.00000  Uiso   1.00
H493   H     0.97045   0.71692   0.21424   0.00000  Uiso   1.00
H494   H     0.93149   0.74938   0.17491   0.00000  Uiso   1.00
H495   H     0.99659   0.72050   0.15655   0.00000  Uiso   1.00
H496   H     0.67470   0.81861   0.16905   0.00000  Uiso   1.00
H497   H     0.71560   0.77902   0.20144   0.00000  Uiso   1.00
H498   H     0.73517   0.91729   0.32509   0.00000  Uiso   1.00
H499   H     0.69621   0.94974   0.28576   0.00000  Uiso   1.00
H500   H     0.67007   0.94616   0.34345   0.00000  Uiso   1.00
H501   H     0.95107   0.88765   0.29856   0.00000  Uiso   1.00
H502   H     0.92033   0.86233   0.38574   0.00000  Uiso   1.00
H503   H     0.99197   0.84806   0.33095   0.00000  Uiso   1.00
H504   H     0.91960   0.86243   0.10752   0.00000  Uiso   1.00
H505   H     0.74706   0.80424   0.39248   0.00000  Uiso   1.00
H506   H     0.96966   0.87818   0.03554   0.00000  Uiso   1.00
H507   H     0.69701   0.78849   0.46446   0.00000  Uiso   1.00
H508   H     0.97015   0.87770   0.45364   0.00000  Uiso   1.00
H509   H     0.69651   0.78897   0.04636   0.00000  Uiso   1.00
H510   H     0.89859   0.66885   0.25189   0.00000  Uiso   1.00
N511   N     0.98344   0.81932   0.23783   0.00000  Uiso   1.00
N512   N     0.68322   0.84735   0.26217   0.00000  Uiso   1.00
O513   O     0.79642   0.91286   0.25298   0.00000  Uiso   1.00
O514   O     0.87025   0.75381   0.24701   0.00000  Uiso   1.00
O515   O     0.89280   0.90387   0.24518   0.00000  Uiso   1.00
O516   O     0.77387   0.76279   0.25481   0.00000  Uiso   1.00
O517   O     0.78514   0.83784   0.31997   0.00000  Uiso   1.00
O518   O     0.88153   0.82883   0.18002   0.00000  Uiso   1.00
O519   O     0.88152   0.82885   0.31217   0.00000  Uiso   1.00
O520   O     0.78515   0.83781   0.18782   0.00000  Uiso   1.00
Zn521  Zn    0.76898   0.83933   0.25521   0.00000  Uiso   1.00
Zn522  Zn    0.89769   0.82734   0.24479   0.00000  Uiso   1.00
C523   C     0.18143   0.26461   0.74926   0.00000  Uiso   1.00
C524   C     0.21625   0.18230   0.90525   0.00000  Uiso   1.00
C525   C     0.16598   0.16718   0.61569   0.00000  Uiso   1.00
C526   C     0.16736   0.16616   0.88431   0.00000  Uiso   1.00
C527   C     0.21524   0.18309   0.59083   0.00000  Uiso   1.00
C528   C     0.11809   0.15024   0.90917   0.00000  Uiso   1.00
C529   C     0.21589   0.18306   0.54456   0.00000  Uiso   1.00
C530   C     0.11744   0.15027   0.95544   0.00000  Uiso   1.00
C531   C     0.16652   0.16683   0.52327   0.00000  Uiso   1.00
C532   C     0.16681   0.16650   0.97673   0.00000  Uiso   1.00
C533   C     0.11688   0.15082   0.54851   0.00000  Uiso   1.00
C534   C     0.15190   0.06872   0.75074   0.00000  Uiso   1.00
C535   C     0.21645   0.18251   0.95149   0.00000  Uiso   1.00
C536   C     0.26497   0.19895   0.51934   0.00000  Uiso   1.00
C537   C     0.06836   0.13439   0.98066   0.00000  Uiso   1.00
C538   C     0.00715   0.12574   0.69716   0.00000  Uiso   1.00
C539   C     0.30717   0.07537   0.68531   0.00000  Uiso   1.00
C540   C     0.32618   0.20759   0.80284   0.00000  Uiso   1.00
C541   C     0.02617   0.25797   0.81469   0.00000  Uiso   1.00
C542   C     0.26525   0.19869   0.97285   0.00000  Uiso   1.00
C543   C     0.06808   0.13464   0.52715   0.00000  Uiso   1.00
C544   C     0.18920   0.31906   0.75020   0.00000  Uiso   1.00
C545   C     0.14414   0.01427   0.74980   0.00000  Uiso   1.00
C546   C     0.16705   0.16668   0.83639   0.00000  Uiso   1.00
C547   C     0.16628   0.16665   0.66361   0.00000  Uiso   1.00
C548   C     0.11708   0.15103   0.59475   0.00000  Uiso   1.00
H549   H     0.07967   0.13767   0.61426   0.00000  Uiso   1.00
H550   H     0.10141   0.33115   0.74811   0.00000  Uiso   1.00
H551   H     0.30379   0.05026   0.71424   0.00000  Uiso   1.00
H552   H     0.26483   0.08271   0.67491   0.00000  Uiso   1.00
H553   H     0.32993   0.05384   0.65655   0.00000  Uiso   1.00
H554   H     0.00803   0.15194   0.66905   0.00000  Uiso   1.00
H555   H     0.04893   0.11235   0.70144   0.00000  Uiso   1.00
H556   H     0.06851   0.25062   0.82509   0.00000  Uiso   1.00
H557   H     0.02955   0.28308   0.78576   0.00000  Uiso   1.00
H558   H     0.00341   0.27950   0.84345   0.00000  Uiso   1.00
H559   H     0.28440   0.22098   0.79856   0.00000  Uiso   1.00
H560   H     0.25367   0.19566   0.88574   0.00000  Uiso   1.00
H561   H     0.32530   0.18139   0.83095   0.00000  Uiso   1.00
H562   H     0.25294   0.19577   0.60752   0.00000  Uiso   1.00
H563   H     0.08040   0.13757   0.89248   0.00000  Uiso   1.00
H564   H     0.30299   0.21151   0.53554   0.00000  Uiso   1.00
H565   H     0.03034   0.12182   0.96446   0.00000  Uiso   1.00
H566   H     0.30349   0.21103   0.95364   0.00000  Uiso   1.00
H567   H     0.02985   0.12230   0.54636   0.00000  Uiso   1.00
H568   H     0.23193   0.00218   0.75189   0.00000  Uiso   1.00
N569   N     0.31678   0.15265   0.73783   0.00000  Uiso   1.00
N570   N     0.01656   0.18068   0.76217   0.00000  Uiso   1.00
O571   O     0.12975   0.24619   0.75298   0.00000  Uiso   1.00
O572   O     0.20358   0.08714   0.74701   0.00000  Uiso   1.00
O573   O     0.22613   0.23721   0.74518   0.00000  Uiso   1.00
O574   O     0.10720   0.09613   0.75481   0.00000  Uiso   1.00
O575   O     0.11847   0.17117   0.81997   0.00000  Uiso   1.00
O576   O     0.21486   0.16216   0.68002   0.00000  Uiso   1.00
O577   O     0.21485   0.16219   0.81217   0.00000  Uiso   1.00
O578   O     0.11848   0.17115   0.68782   0.00000  Uiso   1.00
Zn579  Zn    0.10231   0.17266   0.75521   0.00000  Uiso   1.00
Zn580  Zn    0.23102   0.16067   0.74479   0.00000  Uiso   1.00
C581   C     0.51477   0.26461   0.74926   0.00000  Uiso   1.00
C582   C     0.54959   0.18230   0.90525   0.00000  Uiso   1.00
C583   C     0.49931   0.16718   0.61569   0.00000  Uiso   1.00
C584   C     0.50069   0.16616   0.88431   0.00000  Uiso   1.00
C585   C     0.54857   0.18309   0.59083   0.00000  Uiso   1.00
C586   C     0.45143   0.15024   0.90917   0.00000  Uiso   1.00
C587   C     0.54923   0.18306   0.54456   0.00000  Uiso   1.00
C588   C     0.45077   0.15027   0.95544   0.00000  Uiso   1.00
C589   C     0.49985   0.16683   0.52327   0.00000  Uiso   1.00
C590   C     0.50015   0.16650   0.97673   0.00000  Uiso   1.00
C591   C     0.45021   0.15082   0.54851   0.00000  Uiso   1.00
C592   C     0.48523   0.06872   0.75074   0.00000  Uiso   1.00
C593   C     0.54979   0.18251   0.95149   0.00000  Uiso   1.00
C594   C     0.59831   0.19895   0.51934   0.00000  Uiso   1.00
C595   C     0.40169   0.13439   0.98066   0.00000  Uiso   1.00
C596   C     0.34049   0.12574   0.69716   0.00000  Uiso   1.00
C597   C     0.64050   0.07537   0.68531   0.00000  Uiso   1.00
C598   C     0.65951   0.20759   0.80284   0.00000  Uiso   1.00
C599   C     0.35950   0.25797   0.81469   0.00000  Uiso   1.00
C600   C     0.59858   0.19869   0.97285   0.00000  Uiso   1.00
C601   C     0.40142   0.13464   0.52715   0.00000  Uiso   1.00
C602   C     0.52253   0.31906   0.75020   0.00000  Uiso   1.00
C603   C     0.47747   0.01427   0.74980   0.00000  Uiso   1.00
C604   C     0.50038   0.16668   0.83639   0.00000  Uiso   1.00
C605   C     0.49962   0.16665   0.66361   0.00000  Uiso   1.00
C606   C     0.45041   0.15103   0.59475   0.00000  Uiso   1.00
H607   H     0.41300   0.13767   0.61426   0.00000  Uiso   1.00
H608   H     0.43474   0.33115   0.74811   0.00000  Uiso   1.00
H609   H     0.63712   0.05026   0.71424   0.00000  Uiso   1.00
H610   H     0.59816   0.08271   0.67491   0.00000  Uiso   1.00
H611   H     0.66326   0.05384   0.65655   0.00000  Uiso   1.00
H612   H     0.34136   0.15194   0.66905   0.00000  Uiso   1.00
H613   H     0.38226   0.11235   0.70144   0.00000  Uiso   1.00
H614   H     0.40184   0.25062   0.82509   0.00000  Uiso   1.00
H615   H     0.36288   0.28308   0.78576   0.00000  Uiso   1.00
H616   H     0.33674   0.27950   0.84345   0.00000  Uiso   1.00
H617   H     0.61774   0.22098   0.79856   0.00000  Uiso   1.00
H618   H     0.58700   0.19566   0.88574   0.00000  Uiso   1.00
H619   H     0.65863   0.18139   0.83095   0.00000  Uiso   1.00
H620   H     0.58627   0.19577   0.60752   0.00000  Uiso   1.00
H621   H     0.41373   0.13757   0.89248   0.00000  Uiso   1.00
H622   H     0.63632   0.21151   0.53554   0.00000  Uiso   1.00
H623   H     0.36368   0.12182   0.96446   0.00000  Uiso   1.00
H624   H     0.63682   0.21103   0.95364   0.00000  Uiso   1.00
H625   H     0.36318   0.12230   0.54636   0.00000  Uiso   1.00
H626   H     0.56526   0.00218   0.75189   0.00000  Uiso   1.00
N627   N     0.65011   0.15265   0.73783   0.00000  Uiso   1.00
N628   N     0.34989   0.18068   0.76217   0.00000  Uiso   1.00
O629   O     0.46308   0.24619   0.75298   0.00000  Uiso   1.00
O630   O     0.53692   0.08714   0.74701   0.00000  Uiso   1.00
O631   O     0.55946   0.23721   0.74518   0.00000  Uiso   1.00
O632   O     0.44054   0.09613   0.75481   0.00000  Uiso   1.00
O633   O     0.45181   0.17117   0.81997   0.00000  Uiso   1.00
O634   O     0.54819   0.16216   0.68002   0.00000  Uiso   1.00
O635   O     0.54819   0.16219   0.81217   0.00000  Uiso   1.00
O636   O     0.45181   0.17115   0.68782   0.00000  Uiso   1.00
Zn637  Zn    0.43565   0.17266   0.75521   0.00000  Uiso   1.00
Zn638  Zn    0.56435   0.16067   0.74479   0.00000  Uiso   1.00
C639   C     0.84810   0.26461   0.74926   0.00000  Uiso   1.00
C640   C     0.88292   0.18230   0.90525   0.00000  Uiso   1.00
C641   C     0.83264   0.16718   0.61569   0.00000  Uiso   1.00
C642   C     0.83402   0.16616   0.88431   0.00000  Uiso   1.00
C643   C     0.88191   0.18309   0.59083   0.00000  Uiso   1.00
C644   C     0.78476   0.15024   0.90917   0.00000  Uiso   1.00
C645   C     0.88256   0.18306   0.54456   0.00000  Uiso   1.00
C646   C     0.78410   0.15027   0.95544   0.00000  Uiso   1.00
C647   C     0.83318   0.16683   0.52327   0.00000  Uiso   1.00
C648   C     0.83348   0.16650   0.97673   0.00000  Uiso   1.00
C649   C     0.78355   0.15082   0.54851   0.00000  Uiso   1.00
C650   C     0.81857   0.06872   0.75074   0.00000  Uiso   1.00
C651   C     0.88312   0.18251   0.95149   0.00000  Uiso   1.00
C652   C     0.93164   0.19895   0.51934   0.00000  Uiso   1.00
C653   C     0.73502   0.13439   0.98066   0.00000  Uiso   1.00
C654   C     0.67382   0.12574   0.69716   0.00000  Uiso   1.00
C655   C     0.97383   0.07537   0.68531   0.00000  Uiso   1.00
C656   C     0.99285   0.20759   0.80284   0.00000  Uiso   1.00
C657   C     0.69283   0.25797   0.81469   0.00000  Uiso   1.00
C658   C     0.93192   0.19869   0.97285   0.00000  Uiso   1.00
C659   C     0.73475   0.13464   0.52715   0.00000  Uiso   1.00
C660   C     0.85586   0.31906   0.75020   0.00000  Uiso   1.00
C661   C     0.81080   0.01427   0.74980   0.00000  Uiso   1.00
C662   C     0.83372   0.16668   0.83639   0.00000  Uiso   1.00
C663   C     0.83295   0.16665   0.66361   0.00000  Uiso   1.00
C664   C     0.78375   0.15103   0.59475   0.00000  Uiso   1.00
H665   H     0.74633   0.13767   0.61426   0.00000  Uiso   1.00
H666   H     0.76807   0.33115   0.74811   0.00000  Uiso   1.00
H667   H     0.97045   0.05026   0.71424   0.00000  Uiso   1.00
H668   H     0.93149   0.08271   0.67491   0.00000  Uiso   1.00
H669   H     0.99659   0.05384   0.65655   0.00000  Uiso   1.00
H670   H     0.67470   0.15194   0.66905   0.00000  Uiso   1.00
H671   H     0.71560   0.11235   0.70144   0.00000  Uiso   1.00
H672   H     0.73517   0.25062   0.82509   0.00000  Uiso   1.00
H673   H     0.69621   0.28308   0.78576   0.00000  Uiso   1.00
H674   H     0.67007   0.27950   0.84345   0.00000  Uiso   1.00
H675   H     0.95107   0.22098   0.79856   0.00000  Uiso   1.00
H676   H     0.92033   0.19566   0.88574   0.00000  Uiso   1.00
H677   H     0.99197   0.18139   0.83095   0.00000  Uiso   1.00
H678   H     0.91960   0.19577   0.60752   0.00000  Uiso   1.00
H679   H     0.74706   0.13757   0.89248   0.00000  Uiso   1.00
H680   H     0.96966   0.21151   0.53554   0.00000  Uiso   1.00
H681   H     0.69701   0.12182   0.96446   0.00000  Uiso   1.00
H682   H     0.97015   0.21103   0.95364   0.00000  Uiso   1.00
H683   H     0.69651   0.12230   0.54636   0.00000  Uiso   1.00
H684   H     0.89859   0.00218   0.75189   0.00000  Uiso   1.00
N685   N     0.98344   0.15265   0.73783   0.00000  Uiso   1.00
N686   N     0.68322   0.18068   0.76217   0.00000  Uiso   1.00
O687   O     0.79642   0.24619   0.75298   0.00000  Uiso   1.00
O688   O     0.87025   0.08714   0.74701   0.00000  Uiso   1.00
O689   O     0.89280   0.23721   0.74518   0.00000  Uiso   1.00
O690   O     0.77387   0.09613   0.75481   0.00000  Uiso   1.00
O691   O     0.78514   0.17117   0.81997   0.00000  Uiso   1.00
O692   O     0.88153   0.16216   0.68002   0.00000  Uiso   1.00
O693   O     0.88152   0.16219   0.81217   0.00000  Uiso   1.00
O694   O     0.78515   0.17115   0.68782   0.00000  Uiso   1.00
Zn695  Zn    0.76898   0.17266   0.75521   0.00000  Uiso   1.00
Zn696  Zn    0.89769   0.16067   0.74479   0.00000  Uiso   1.00
C697   C     0.18143   0.59794   0.74926   0.00000  Uiso   1.00
C698   C     0.21625   0.51563   0.90525   0.00000  Uiso   1.00
C699   C     0.16598   0.50051   0.61569   0.00000  Uiso   1.00
C700   C     0.16736   0.49949   0.88431   0.00000  Uiso   1.00
C701   C     0.21524   0.51643   0.59083   0.00000  Uiso   1.00
C702   C     0.11809   0.48357   0.90917   0.00000  Uiso   1.00
C703   C     0.21589   0.51639   0.54456   0.00000  Uiso   1.00
C704   C     0.11744   0.48361   0.95544   0.00000  Uiso   1.00
C705   C     0.16652   0.50016   0.52327   0.00000  Uiso   1.00
C706   C     0.16681   0.49984   0.97673   0.00000  Uiso   1.00
C707   C     0.11688   0.48415   0.54851   0.00000  Uiso   1.00
C708   C     0.15190   0.40206   0.75074   0.00000  Uiso   1.00
C709   C     0.21645   0.51585   0.95149   0.00000  Uiso   1.00
C710   C     0.26497   0.53228   0.51934   0.00000  Uiso   1.00
C711   C     0.06836   0.46772   0.98066   0.00000  Uiso   1.00
C712   C     0.00715   0.45908   0.69716   0.00000  Uiso   1.00
C713   C     0.30717   0.40870   0.68531   0.00000  Uiso   1.00
C714   C     0.32618   0.54092   0.80284   0.00000  Uiso   1.00
C715   C     0.02617   0.59130   0.81469   0.00000  Uiso   1.00
C716   C     0.26525   0.53203   0.97285   0.00000  Uiso   1.00
C717   C     0.06808   0.46797   0.52715   0.00000  Uiso   1.00
C718   C     0.18920   0.65239   0.75020   0.00000  Uiso   1.00
C719   C     0.14414   0.34761   0.74980   0.00000  Uiso   1.00
C720   C     0.16705   0.50002   0.83639   0.00000  Uiso   1.00
C721   C     0.16628   0.49998   0.66361   0.00000  Uiso   1.00
C722   C     0.11708   0.48437   0.59475   0.00000  Uiso   1.00
H723   H     0.07967   0.47101   0.61426   0.00000  Uiso   1.00
H724   H     0.10141   0.66449   0.74811   0.00000  Uiso   1.00
H725   H     0.30379   0.38359   0.71424   0.00000  Uiso   1.00
H726   H     0.26483   0.41604   0.67491   0.00000  Uiso   1.00
H727   H     0.32993   0.38717   0.65655   0.00000  Uiso   1.00
H728   H     0.00803   0.48528   0.66905   0.00000  Uiso   1.00
H729   H     0.04893   0.44569   0.70144   0.00000  Uiso   1.00
H730   H     0.06851   0.58396   0.82509   0.00000  Uiso   1.00
H731   H     0.02955   0.61641   0.78576   0.00000  Uiso   1.00
H732   H     0.00341   0.61283   0.84345   0.00000  Uiso   1.00
H733   H     0.28440   0.55431   0.79856   0.00000  Uiso   1.00
H734   H     0.25367   0.52899   0.88574   0.00000  Uiso   1.00
H735   H     0.32530   0.51472   0.83095   0.00000  Uiso   1.00
H736   H     0.25294   0.52910   0.60752   0.00000  Uiso   1.00
H737   H     0.08040   0.47090   0.89248   0.00000  Uiso   1.00
H738   H     0.30299   0.54484   0.53554   0.00000  Uiso   1.00
H739   H     0.03034   0.45516   0.96446   0.00000  Uiso   1.00
H740   H     0.30349   0.54437   0.95364   0.00000  Uiso   1.00
H741   H     0.02985   0.45563   0.54636   0.00000  Uiso   1.00
H742   H     0.23193   0.33551   0.75189   0.00000  Uiso   1.00
N743   N     0.31678   0.48598   0.73783   0.00000  Uiso   1.00
N744   N     0.01656   0.51402   0.76217   0.00000  Uiso   1.00
O745   O     0.12975   0.57952   0.75298   0.00000  Uiso   1.00
O746   O     0.20358   0.42048   0.74701   0.00000  Uiso   1.00
O747   O     0.22613   0.57054   0.74518   0.00000  Uiso   1.00
O748   O     0.10720   0.42946   0.75481   0.00000  Uiso   1.00
O749   O     0.11847   0.50450   0.81997   0.00000  Uiso   1.00
O750   O     0.21486   0.49550   0.68002   0.00000  Uiso   1.00
O751   O     0.21485   0.49552   0.81217   0.00000  Uiso   1.00
O752   O     0.11848   0.50448   0.68782   0.00000  Uiso   1.00
Zn753  Zn    0.10231   0.50600   0.75521   0.00000  Uiso   1.00
Zn754  Zn    0.23102   0.49400   0.74479   0.00000  Uiso   1.00
C755   C     0.51477   0.59794   0.74926   0.00000  Uiso   1.00
C756   C     0.54959   0.51563   0.90525   0.00000  Uiso   1.00
C757   C     0.49931   0.50051   0.61569   0.00000  Uiso   1.00
C758   C     0.50069   0.49949   0.88431   0.00000  Uiso   1.00
C759   C     0.54857   0.51643   0.59083   0.00000  Uiso   1.00
C760   C     0.45143   0.48357   0.90917   0.00000  Uiso   1.00
C761   C     0.54923   0.51639   0.54456   0.00000  Uiso   1.00
C762   C     0.45077   0.48361   0.95544   0.00000  Uiso   1.00
C763   C     0.49985   0.50016   0.52327   0.00000  Uiso   1.00
C764   C     0.50015   0.49984   0.97673   0.00000  Uiso   1.00
C765   C     0.45021   0.48415   0.54851   0.00000  Uiso   1.00
C766   C     0.48523   0.40206   0.75074   0.00000  Uiso   1.00
C767   C     0.54979   0.51585   0.95149   0.00000  Uiso   1.00
C768   C     0.59831   0.53228   0.51934   0.00000  Uiso   1.00
C769   C     0.40169   0.46772   0.98066   0.00000  Uiso   1.00
C770   C     0.34049   0.45908   0.69716   0.00000  Uiso   1.00
C771   C     0.64050   0.40870   0.68531   0.00000  Uiso   1.00
C772   C     0.65951   0.54092   0.80284   0.00000  Uiso   1.00
C773   C     0.35950   0.59130   0.81469   0.00000  Uiso   1.00
C774   C     0.59858   0.53203   0.97285   0.00000  Uiso   1.00
C775   C     0.40142   0.46797   0.52715   0.00000  Uiso   1.00
C776   C     0.52253   0.65239   0.75020   0.00000  Uiso   1.00
C777   C     0.47747   0.34761   0.74980   0.00000  Uiso   1.00
C778   C     0.50038   0.50002   0.83639   0.00000  Uiso   1.00
C779   C     0.49962   0.49998   0.66361   0.00000  Uiso   1.00
C780   C     0.45041   0.48437   0.59475   0.00000  Uiso   1.00
H781   H     0.41300   0.47101   0.61426   0.00000  Uiso   1.00
H782   H     0.43474   0.66449   0.74811   0.00000  Uiso   1.00
H783   H     0.63712   0.38359   0.71424   0.00000  Uiso   1.00
H784   H     0.59816   0.41604   0.67491   0.00000  Uiso   1.00
H785   H     0.66326   0.38717   0.65655   0.00000  Uiso   1.00
H786   H     0.34136   0.48528   0.66905   0.00000  Uiso   1.00
H787   H     0.38226   0.44569   0.70144   0.00000  Uiso   1.00
H788   H     0.40184   0.58396   0.82509   0.00000  Uiso   1.00
H789   H     0.36288   0.61641   0.78576   0.00000  Uiso   1.00
H790   H     0.33674   0.61283   0.84345   0.00000  Uiso   1.00
H791   H     0.61774   0.55431   0.79856   0.00000  Uiso   1.00
H792   H     0.58700   0.52899   0.88574   0.00000  Uiso   1.00
H793   H     0.65863   0.51472   0.83095   0.00000  Uiso   1.00
H794   H     0.58627   0.52910   0.60752   0.00000  Uiso   1.00
H795   H     0.41373   0.47090   0.89248   0.00000  Uiso   1.00
H796   H     0.63632   0.54484   0.53554   0.00000  Uiso   1.00
H797   H     0.36368   0.45516   0.96446   0.00000  Uiso   1.00
H798   H     0.63682   0.54437   0.95364   0.00000  Uiso   1.00
H799   H     0.36318   0.45563   0.54636   0.00000  Uiso   1.00
H800   H     0.56526   0.33551   0.75189   0.00000  Uiso   1.00
N801   N     0.65011   0.48598   0.73783   0.00000  Uiso   1.00
N802   N     0.34989   0.51402   0.76217   0.00000  Uiso   1.00
O803   O     0.46308   0.57952   0.75298   0.00000  Uiso   1.00
O804   O     0.53692   0.42048   0.74701   0.00000  Uiso   1.00
O805   O     0.55946   0.57054   0.74518   0.00000  Uiso   1.00
O806   O     0.44054   0.42946   0.75481   0.00000  Uiso   1.00
O807   O     0.45181   0.50450   0.81997   0.00000  Uiso   1.00
O808   O     0.54819   0.49550   0.68002   0.00000  Uiso   1.00
O809   O     0.54819   0.49552   0.81217   0.00000  Uiso   1.00
O810   O     0.45181   0.50448   0.68782   0.00000  Uiso   1.00
Zn811  Zn    0.43565   0.50600   0.75521   0.00000  Uiso   1.00
Zn812  Zn    0.56435   0.49400   0.74479   0.00000  Uiso   1.00
C813   C     0.84810   0.59794   0.74926   0.00000  Uiso   1.00
C814   C     0.88292   0.51563   0.90525   0.00000  Uiso   1.00
C815   C     0.83264   0.50051   0.61569   0.00000  Uiso   1.00
C816   C     0.83402   0.49949   0.88431   0.00000  Uiso   1.00
C817   C     0.88191   0.51643   0.59083   0.00000  Uiso   1.00
C818   C     0.78476   0.48357   0.90917   0.00000  Uiso   1.00
C819   C     0.88256   0.51639   0.54456   0.00000  Uiso   1.00
C820   C     0.78410   0.48361   0.95544   0.00000  Uiso   1.00
C821   C     0.83318   0.50016   0.52327   0.00000  Uiso   1.00
C822   C     0.83348   0.49984   0.97673   0.00000  Uiso   1.00
C823   C     0.78355   0.48415   0.54851   0.00000  Uiso   1.00
C824   C     0.81857   0.40206   0.75074   0.00000  Uiso   1.00
C825   C     0.88312   0.51585   0.95149   0.00000  Uiso   1.00
C826   C     0.93164   0.53228   0.51934   0.00000  Uiso   1.00
C827   C     0.73502   0.46772   0.98066   0.00000  Uiso   1.00
C828   C     0.67382   0.45908   0.69716   0.00000  Uiso   1.00
C829   C     0.97383   0.40870   0.68531   0.00000  Uiso   1.00
C830   C     0.99285   0.54092   0.80284   0.00000  Uiso   1.00
C831   C     0.69283   0.59130   0.81469   0.00000  Uiso   1.00
C832   C     0.93192   0.53203   0.97285   0.00000  Uiso   1.00
C833   C     0.73475   0.46797   0.52715   0.00000  Uiso   1.00
C834   C     0.85586   0.65239   0.75020   0.00000  Uiso   1.00
C835   C     0.81080   0.34761   0.74980   0.00000  Uiso   1.00
C836   C     0.83372   0.50002   0.83639   0.00000  Uiso   1.00
C837   C     0.83295   0.49998   0.66361   0.00000  Uiso   1.00
C838   C     0.78375   0.48437   0.59475   0.00000  Uiso   1.00
H839   H     0.74633   0.47101   0.61426   0.00000  Uiso   1.00
H840   H     0.76807   0.66449   0.74811   0.00000  Uiso   1.00
H841   H     0.97045   0.38359   0.71424   0.00000  Uiso   1.00
H842   H     0.93149   0.41604   0.67491   0.00000  Uiso   1.00
H843   H     0.99659   0.38717   0.65655   0.00000  Uiso   1.00
H844   H     0.67470   0.48528   0.66905   0.00000  Uiso   1.00
H845   H     0.71560   0.44569   0.70144   0.00000  Uiso   1.00
H846   H     0.73517   0.58396   0.82509   0.00000  Uiso   1.00
H847   H     0.69621   0.61641   0.78576   0.00000  Uiso   1.00
H848   H     0.67007   0.61283   0.84345   0.00000  Uiso   1.00
H849   H     0.95107   0.55431   0.79856   0.00000  Uiso   1.00
H850   H     0.92033   0.52899   0.88574   0.00000  Uiso   1.00
H851   H     0.99197   0.51472   0.83095   0.00000  Uiso   1.00
H852   H     0.91960   0.52910   0.60752   0.00000  Uiso   1.00
H853   H     0.74706   0.47090   0.89248   0.00000  Uiso   1.00
H854   H     0.96966   0.54484   0.53554   0.00000  Uiso   1.00
H855   H     0.69701   0.45516   0.96446   0.00000  Uiso   1.00
H856   H     0.97015   0.54437   0.95364   0.00000  Uiso   1.00
H857   H     0.69651   0.45563   0.54636   0.00000  Uiso   1.00
H858   H     0.89859   0.33551   0.75189   0.00000  Uiso   1.00
N859   N     0.98344   0.48598   0.73783   0.00000  Uiso   1.00
N860   N     0.68322   0.51402   0.76217   0.00000  Uiso   1.00
O861   O     0.79642   0.57952   0.75298   0.00000  Uiso   1.00
O862   O     0.87025   0.42048   0.74701   0.00000  Uiso   1.00
O863   O     0.89280   0.57054   0.74518   0.00000  Uiso   1.00
O864   O     0.77387   0.42946   0.75481   0.00000  Uiso   1.00
O865   O     0.78514   0.50450   0.81997   0.00000  Uiso   1.00
O866   O     0.88153   0.49550   0.68002   0.00000  Uiso   1.00
O867   O     0.88152   0.49552   0.81217   0.00000  Uiso   1.00
O868   O     0.78515   0.50448   0.68782   0.00000  Uiso   1.00
Zn869  Zn    0.76898   0.50600   0.75521   0.00000  Uiso   1.00
Zn870  Zn    0.89769   0.49400   0.74479   0.00000  Uiso   1.00
C871   C     0.18143   0.93128   0.74926   0.00000  Uiso   1.00
C872   C     0.21625   0.84897   0.90525   0.00000  Uiso   1.00
C873   C     0.16598   0.83384   0.61569   0.00000  Uiso   1.00
C874   C     0.16736   0.83282   0.88431   0.00000  Uiso   1.00
C875   C     0.21524   0.84976   0.59083   0.00000  Uiso   1.00
C876   C     0.11809   0.81691   0.90917   0.00000  Uiso   1.00
C877   C     0.21589   0.84973   0.54456   0.00000  Uiso   1.00
C878   C     0.11744   0.81694   0.95544   0.00000  Uiso   1.00
C879   C     0.16652   0.83350   0.52327   0.00000  Uiso   1.00
C880   C     0.16681   0.83317   0.97673   0.00000  Uiso   1.00
C881   C     0.11688   0.81748   0.54851   0.00000  Uiso   1.00
C882   C     0.15190   0.73539   0.75074   0.00000  Uiso   1.00
C883   C     0.21645   0.84918   0.95149   0.00000  Uiso   1.00
C884   C     0.26497   0.86561   0.51934   0.00000  Uiso   1.00
C885   C     0.06836   0.80105   0.98066   0.00000  Uiso   1.00
C886   C     0.00715   0.79241   0.69716   0.00000  Uiso   1.00
C887   C     0.30717   0.74203   0.68531   0.00000  Uiso   1.00
C888   C     0.32618   0.87426   0.80284   0.00000  Uiso   1.00
C889   C     0.02617   0.92463   0.81469   0.00000  Uiso   1.00
C890   C     0.26525   0.86536   0.97285   0.00000  Uiso   1.00
C891   C     0.06808   0.80131   0.52715   0.00000  Uiso   1.00
C892   C     0.18920   0.98573   0.75020   0.00000  Uiso   1.00
C893   C     0.14414   0.68094   0.74980   0.00000  Uiso   1.00
C894   C     0.16705   0.83335   0.83639   0.00000  Uiso   1.00
C895   C     0.16628   0.83332   0.66361   0.00000  Uiso   1.00
C896   C     0.11708   0.81770   0.59475   0.00000  Uiso   1.00
H897   H     0.07967   0.80434   0.61426   0.00000  Uiso   1.00
H898   H     0.10141   0.99782   0.74811   0.00000  Uiso   1.00
H899   H     0.30379   0.71692   0.71424   0.00000  Uiso   1.00
H900   H     0.26483   0.74938   0.67491   0.00000  Uiso   1.00
H901   H     0.32993   0.72050   0.65655   0.00000  Uiso   1.00
H902   H     0.00803   0.81861   0.66905   0.00000  Uiso   1.00
H903   H     0.04893   0.77902   0.70144   0.00000  Uiso   1.00
H904   H     0.06851   0.91729   0.82509   0.00000  Uiso   1.00
H905   H     0.02955   0.94974   0.78576   0.00000  Uiso   1.00
H906   H     0.00341   0.94616   0.84345   0.00000  Uiso   1.00
H907   H     0.28440   0.88765   0.79856   0.00000  Uiso   1.00
H908   H     0.25367   0.86233   0.88574   0.00000  Uiso   1.00
H909   H     0.32530   0.84806   0.83095   0.00000  Uiso   1.00
H910   H     0.25294   0.86243   0.60752   0.00000  Uiso   1.00
H911   H     0.08040   0.80424   0.89248   0.00000  Uiso   1.00
H912   H     0.30299   0.87818   0.53554   0.00000  Uiso   1.00
H913   H     0.03034   0.78849   0.96446   0.00000  Uiso   1.00
H914   H     0.30349   0.87770   0.95364   0.00000  Uiso   1.00
H915   H     0.02985   0.78897   0.54636   0.00000  Uiso   1.00
H916   H     0.23193   0.66885   0.75189   0.00000  Uiso   1.00
N917   N     0.31678   0.81932   0.73783   0.00000  Uiso   1.00
N918   N     0.01656   0.84735   0.76217   0.00000  Uiso   1.00
O919   O     0.12975   0.91286   0.75298   0.00000  Uiso   1.00
O920   O     0.20358   0.75381   0.74701   0.00000  Uiso   1.00
O921   O     0.22613   0.90387   0.74518   0.00000  Uiso   1.00
O922   O     0.10720   0.76279   0.75481   0.00000  Uiso   1.00
O923   O     0.11847   0.83784   0.81997   0.00000  Uiso   1.00
O924   O     0.21486   0.82883   0.68002   0.00000  Uiso   1.00
O925   O     0.21485   0.82885   0.81217   0.00000  Uiso   1.00
O926   O     0.11848   0.83781   0.68782   0.00000  Uiso   1.00
Zn927  Zn    0.10231   0.83933   0.75521   0.00000  Uiso   1.00
Zn928  Zn    0.23102   0.82734   0.74479   0.00000  Uiso   1.00
C929   C     0.51477   0.93128   0.74926   0.00000  Uiso   1.00
C930   C     0.54959   0.84897   0.90525   0.00000  Uiso   1.00
C931   C     0.49931   0.83384   0.61569   0.00000  Uiso   1.00
C932   C     0.50069   0.83282   0.88431   0.00000  Uiso   1.00
C933   C     0.54857   0.84976   0.59083   0.00000  Uiso   1.00
C934   C     0.45143   0.81691   0.90917   0.00000  Uiso   1.00
C935   C     0.54923   0.84973   0.54456   0.00000  Uiso   1.00
C936   C     0.45077   0.81694   0.95544   0.00000  Uiso   1.00
C937   C     0.49985   0.83350   0.52327   0.00000  Uiso   1.00
C938   C     0.50015   0.83317   0.97673   0.00000  Uiso   1.00
C939   C     0.45021   0.81748   0.54851   0.00000  Uiso   1.00
C940   C     0.48523   0.73539   0.75074   0.00000  Uiso   1.00
C941   C     0.54979   0.84918   0.95149   0.00000  Uiso   1.00
C942   C     0.59831   0.86561   0.51934   0.00000  Uiso   1.00
C943   C     0.40169   0.80105   0.98066   0.00000  Uiso   1.00
C944   C     0.34049   0.79241   0.69716   0.00000  Uiso   1.00
C945   C     0.64050   0.74203   0.68531   0.00000  Uiso   1.00
C946   C     0.65951   0.87426   0.80284   0.00000  Uiso   1.00
C947   C     0.35950   0.92463   0.81469   0.00000  Uiso   1.00
C948   C     0.59858   0.86536   0.97285   0.00000  Uiso   1.00
C949   C     0.40142   0.80131   0.52715   0.00000  Uiso   1.00
C950   C     0.52253   0.98573   0.75020   0.00000  Uiso   1.00
C951   C     0.47747   0.68094   0.74980   0.00000  Uiso   1.00
C952   C     0.50038   0.83335   0.83639   0.00000  Uiso   1.00
C953   C     0.49962   0.83332   0.66361   0.00000  Uiso   1.00
C954   C     0.45041   0.81770   0.59475   0.00000  Uiso   1.00
H955   H     0.41300   0.80434   0.61426   0.00000  Uiso   1.00
H956   H     0.43474   0.99782   0.74811   0.00000  Uiso   1.00
H957   H     0.63712   0.71692   0.71424   0.00000  Uiso   1.00
H958   H     0.59816   0.74938   0.67491   0.00000  Uiso   1.00
H959   H     0.66326   0.72050   0.65655   0.00000  Uiso   1.00
H960   H     0.34136   0.81861   0.66905   0.00000  Uiso   1.00
H961   H     0.38226   0.77902   0.70144   0.00000  Uiso   1.00
H962   H     0.40184   0.91729   0.82509   0.00000  Uiso   1.00
H963   H     0.36288   0.94974   0.78576   0.00000  Uiso   1.00
H964   H     0.33674   0.94616   0.84345   0.00000  Uiso   1.00
H965   H     0.61774   0.88765   0.79856   0.00000  Uiso   1.00
H966   H     0.58700   0.86233   0.88574   0.00000  Uiso   1.00
H967   H     0.65863   0.84806   0.83095   0.00000  Uiso   1.00
H968   H     0.58627   0.86243   0.60752   0.00000  Uiso   1.00
H969   H     0.41373   0.80424   0.89248   0.00000  Uiso   1.00
H970   H     0.63632   0.87818   0.53554   0.00000  Uiso   1.00
H971   H     0.36368   0.78849   0.96446   0.00000  Uiso   1.00
H972   H     0.63682   0.87770   0.95364   0.00000  Uiso   1.00
H973   H     0.36318   0.78897   0.54636   0.00000  Uiso   1.00
H974   H     0.56526   0.66885   0.75189   0.00000  Uiso   1.00
N975   N     0.65011   0.81932   0.73783   0.00000  Uiso   1.00
N976   N     0.34989   0.84735   0.76217   0.00000  Uiso   1.00
O977   O     0.46308   0.91286   0.75298   0.00000  Uiso   1.00
O978   O     0.53692   0.75381   0.74701   0.00000  Uiso   1.00
O979   O     0.55946   0.90387   0.74518   0.00000  Uiso   1.00
O980   O     0.44054   0.76279   0.75481   0.00000  Uiso   1.00
O981   O     0.45181   0.83784   0.81997   0.00000  Uiso   1.00
O982   O     0.54819   0.82883   0.68002   0.00000  Uiso   1.00
O983   O     0.54819   0.82885   0.81217   0.00000  Uiso   1.00
O984   O     0.45181   0.83781   0.68782   0.00000  Uiso   1.00
Zn985  Zn    0.43565   0.83933   0.75521   0.00000  Uiso   1.00
Zn986  Zn    0.56435   0.82734   0.74479   0.00000  Uiso   1.00
C987   C     0.84810   0.93128   0.74926   0.00000  Uiso   1.00
C988   C     0.88292   0.84897   0.90525   0.00000  Uiso   1.00
C989   C     0.83264   0.83384   0.61569   0.00000  Uiso   1.00
C990   C     0.83402   0.83282   0.88431   0.00000  Uiso   1.00
C991   C     0.88191   0.84976   0.59083   0.00000  Uiso   1.00
C992   C     0.78476   0.81691   0.90917   0.00000  Uiso   1.00
C993   C     0.88256   0.84973   0.54456   0.00000  Uiso   1.00
C994   C     0.78410   0.81694   0.95544   0.00000  Uiso   1.00
C995   C     0.83318   0.83350   0.52327   0.00000  Uiso   1.00
C996   C     0.83348   0.83317   0.97673   0.00000  Uiso   1.00
C997   C     0.78355   0.81748   0.54851   0.00000  Uiso   1.00
C998   C     0.81857   0.73539   0.75074   0.00000  Uiso   1.00
C999   C     0.88312   0.84918   0.95149   0.00000  Uiso   1.00
C1000  C     0.93164   0.86561   0.51934   0.00000  Uiso   1.00
C1001  C     0.73502   0.80105   0.98066   0.00000  Uiso   1.00
C1002  C     0.67382   0.79241   0.69716   0.00000  Uiso   1.00
C1003  C     0.97383   0.74203   0.68531   0.00000  Uiso   1.00
C1004  C     0.99285   0.87426   0.80284   0.00000  Uiso   1.00
C1005  C     0.69283   0.92463   0.81469   0.00000  Uiso   1.00
C1006  C     0.93192   0.86536   0.97285   0.00000  Uiso   1.00
C1007  C     0.73475   0.80131   0.52715   0.00000  Uiso   1.00
C1008  C     0.85586   0.98573   0.75020   0.00000  Uiso   1.00
C1009  C     0.81080   0.68094   0.74980   0.00000  Uiso   1.00
C1010  C     0.83372   0.83335   0.83639   0.00000  Uiso   1.00
C1011  C     0.83295   0.83332   0.66361   0.00000  Uiso   1.00
C1012  C     0.78375   0.81770   0.59475   0.00000  Uiso   1.00
H1013  H     0.74633   0.80434   0.61426   0.00000  Uiso   1.00
H1014  H     0.76807   0.99782   0.74811   0.00000  Uiso   1.00
H1015  H     0.97045   0.71692   0.71424   0.00000  Uiso   1.00
H1016  H     0.93149   0.74938   0.67491   0.00000  Uiso   1.00
H1017  H     0.99659   0.72050   0.65655   0.00000  Uiso   1.00
H1018  H     0.67470   0.81861   0.66905   0.00000  Uiso   1.00
H1019  H     0.71560   0.77902   0.70144   0.00000  Uiso   1.00
H1020  H     0.73517   0.91729   0.82509   0.00000  Uiso   1.00
H1021  H     0.69621   0.94974   0.78576   0.00000  Uiso   1.00
H1022  H     0.67007   0.94616   0.84345   0.00000  Uiso   1.00
H1023  H     0.95107   0.88765   0.79856   0.00000  Uiso   1.00
H1024  H     0.92033   0.86233   0.88574   0.00000  Uiso   1.00
H1025  H     0.99197   0.84806   0.83095   0.00000  Uiso   1.00
H1026  H     0.91960   0.86243   0.60752   0.00000  Uiso   1.00
H1027  H     0.74706   0.80424   0.89248   0.00000  Uiso   1.00
H1028  H     0.96966   0.87818   0.53554   0.00000  Uiso   1.00
H1029  H     0.69701   0.78849   0.96446   0.00000  Uiso   1.00
H1030  H     0.97015   0.87770   0.95364   0.00000  Uiso   1.00
H1031  H     0.69651   0.78897   0.54636   0.00000  Uiso   1.00
H1032  H     0.89859   0.66885   0.75189   0.00000  Uiso   1.00
N1033  N     0.98344   0.81932   0.73783   0.00000  Uiso   1.00
N1034  N     0.68322   0.84735   0.76217   0.00000  Uiso   1.00
O1035  O     0.79642   0.91286   0.75298   0.00000  Uiso   1.00
O1036  O     0.87025   0.75381   0.74701   0.00000  Uiso   1.00
O1037  O     0.89280   0.90387   0.74518   0.00000  Uiso   1.00
O1038  O     0.77387   0.76279   0.75481   0.00000  Uiso   1.00
O1039  O     0.78514   0.83784   0.81997   0.00000  Uiso   1.00
O1040  O     0.88153   0.82883   0.68002   0.00000  Uiso   1.00
O1041  O     0.88152   0.82885   0.81217   0.00000  Uiso   1.00
O1042  O     0.78515   0.83781   0.68782   0.00000  Uiso   1.00
Zn1043 Zn    0.76898   0.83933   0.75521   0.00000  Uiso   1.00
Zn1044 Zn    0.89769   0.82734   0.74479   0.00000  Uiso   1.00
loop_
_geom_bond_atom_site_label_1
_geom_bond_atom_site_label_2
_geom_bond_distance
_geom_bond_site_symmetry_2
_ccdc_geom_bond_type
C1     C22     1.403   .     S
C1     O51     1.296   .     A
C1     O49     1.296   .     A
C2     C4      1.395   .     A
C2     H38     1.081   .     S
C2     C13     1.383   .     A
C3     C26     1.395   .     A
C3     C5      1.398   .     A
C3     C25     1.435   .     S
C4     C24     1.435   .     S
C4     C6      1.398   .     A
C5     C7      1.383   .     A
C5     H40     1.085   .     S
C6     C8      1.383   .     A
C6     H41     1.085   .     S
C7     C9      1.411   .     A
C7     C14     1.400   .     A
C8     C10     1.411   .     A
C8     C15     1.400   .     A
C9     C11     1.412   .     A
C9     C532    1.391   1_554 S
C10    C13     1.412   .     A
C10    C531    1.391   .     S
C11    C26     1.383   .     A
C11    C21     1.400   .     A
C12    O50     1.296   .     A
C12    C23     1.403   .     S
C12    O52     1.296   .     A
C13    C20     1.400   .     A
C14    H42     1.084   .     S
C14    C542    1.389   1_554 S
C15    H43     1.084   .     S
C15    C543    1.389   .     S
C16    H33     1.085   .     S
C16    H32     1.109   .     S
C16    C133    1.523   1_455 S
C16    N163    1.449   1_455 S
C17    H29     1.109   .     S
C17    H30     1.104   .     S
C17    H31     1.111   .     S
C17    C74     1.523   .     S
C18    H39     1.109   .     S
C18    H37     1.085   .     S
C18    C77     1.523   .     S
C18    N106    1.449   .     S
C19    H35     1.109   .     S
C19    H36     1.111   .     S
C19    H34     1.104   .     S
C19    C134    1.523   1_455 S
C20    H44     1.084   .     S
C20    C536    1.389   .     S
C21    H45     1.084   .     S
C21    C537    1.389   1_554 S
C22    C197    1.327   .     S
C22    H220    1.086   .     S
C23    C370    1.327   1_545 S
C23    H376    1.086   1_545 S
C24    O53     1.301   .     A
C24    O55     1.306   .     A
C25    O56     1.306   .     A
C25    O54     1.301   .     A
C26    H27     1.081   .     S
H28    C197    1.086   .     S
H46    C370    1.086   1_545 S
N47    Zn58    2.052   .     S
N47    C74     1.449   .     S
N47    N106    1.279   .     S
N48    Zn57    2.052   .     S
N48    N163    1.279   1_455 S
N48    C134    1.449   1_455 S
O49    Zn57    1.975   .     S
O50    Zn58    1.975   .     S
O51    Zn58    1.976   .     S
O52    Zn57    1.976   .     S
O53    Zn57    2.006   .     S
O54    Zn58    2.006   .     S
O55    Zn58    2.021   .     S
O56    Zn57    2.021   .     S
C59    C80     1.403   .     S
C59    O109    1.296   .     A
C59    O107    1.296   .     A
C60    C62     1.395   .     A
C60    H96     1.081   .     S
C60    C71     1.383   .     A
C61    C84     1.395   .     A
C61    C63     1.398   .     A
C61    C83     1.435   .     S
C62    C82     1.435   .     S
C62    C64     1.398   .     A
C63    C65     1.383   .     A
C63    H98     1.085   .     S
C64    C66     1.383   .     A
C64    H99     1.085   .     S
C65    C67     1.411   .     A
C65    C72     1.400   .     A
C66    C68     1.411   .     A
C66    C73     1.400   .     A
C67    C69     1.412   .     A
C67    C590    1.391   1_554 S
C68    C71     1.412   .     A
C68    C589    1.391   .     S
C69    C84     1.383   .     A
C69    C79     1.400   .     A
C70    O108    1.296   .     A
C70    C81     1.403   .     S
C70    O110    1.296   .     A
C71    C78     1.400   .     A
C72    H100    1.084   .     S
C72    C600    1.389   1_554 S
C73    H101    1.084   .     S
C73    C601    1.389   .     S
C74    H91     1.085   .     S
C74    H90     1.109   .     S
C75    H87     1.109   .     S
C75    H88     1.104   .     S
C75    H89     1.111   .     S
C75    C132    1.523   .     S
C76    H97     1.109   .     S
C76    H95     1.085   .     S
C76    C135    1.523   .     S
C76    N164    1.449   .     S
C77    H93     1.109   .     S
C77    H94     1.111   .     S
C77    H92     1.104   .     S
C78    H102    1.084   .     S
C78    C594    1.389   .     S
C79    H103    1.084   .     S
C79    C595    1.389   1_554 S
C80    C255    1.327   .     S
C80    H278    1.086   .     S
C81    C428    1.327   1_545 S
C81    H434    1.086   1_545 S
C82    O111    1.301   .     A
C82    O113    1.306   .     A
C83    O114    1.306   .     A
C83    O112    1.301   .     A
C84    H85     1.081   .     S
H86    C255    1.086   .     S
H104   C428    1.086   1_545 S
N105   Zn116   2.052   .     S
N105   C132    1.449   .     S
N105   N164    1.279   .     S
N106   Zn115   2.052   .     S
O107   Zn115   1.975   .     S
O108   Zn116   1.975   .     S
O109   Zn116   1.976   .     S
O110   Zn115   1.976   .     S
O111   Zn115   2.006   .     S
O112   Zn116   2.006   .     S
O113   Zn116   2.021   .     S
O114   Zn115   2.021   .     S
C117   C138    1.403   .     S
C117   O167    1.296   .     A
C117   O165    1.296   .     A
C118   C120    1.395   .     A
C118   H154    1.081   .     S
C118   C129    1.383   .     A
C119   C142    1.395   .     A
C119   C121    1.398   .     A
C119   C141    1.435   .     S
C120   C140    1.435   .     S
C120   C122    1.398   .     A
C121   C123    1.383   .     A
C121   H156    1.085   .     S
C122   C124    1.383   .     A
C122   H157    1.085   .     S
C123   C125    1.411   .     A
C123   C130    1.400   .     A
C124   C126    1.411   .     A
C124   C131    1.400   .     A
C125   C127    1.412   .     A
C125   C648    1.391   1_554 S
C126   C129    1.412   .     A
C126   C647    1.391   .     S
C127   C142    1.383   .     A
C127   C137    1.400   .     A
C128   O166    1.296   .     A
C128   C139    1.403   .     S
C128   O168    1.296   .     A
C129   C136    1.400   .     A
C130   H158    1.084   .     S
C130   C658    1.389   1_554 S
C131   H159    1.084   .     S
C131   C659    1.389   .     S
C132   H149    1.085   .     S
C132   H148    1.109   .     S
C133   H145    1.109   .     S
C133   H146    1.104   .     S
C133   H147    1.111   .     S
C133   C16     1.523   1_655 S
C134   H155    1.109   .     S
C134   H153    1.085   .     S
C134   C19     1.523   1_655 S
C134   N48     1.449   1_655 S
C135   H151    1.109   .     S
C135   H152    1.111   .     S
C135   H150    1.104   .     S
C136   H160    1.084   .     S
C136   C652    1.389   .     S
C137   H161    1.084   .     S
C137   C653    1.389   1_554 S
C138   C313    1.327   .     S
C138   H336    1.086   .     S
C139   C486    1.327   1_545 S
C139   H492    1.086   1_545 S
C140   O169    1.301   .     A
C140   O171    1.306   .     A
C141   O172    1.306   .     A
C141   O170    1.301   .     A
C142   H143    1.081   .     S
H144   C313    1.086   .     S
H162   C486    1.086   1_545 S
N163   Zn174   2.052   .     S
N163   C16     1.449   1_655 S
N163   N48     1.279   1_655 S
N164   Zn173   2.052   .     S
O165   Zn173   1.975   .     S
O166   Zn174   1.975   .     S
O167   Zn174   1.976   .     S
O168   Zn173   1.976   .     S
O169   Zn173   2.006   .     S
O170   Zn174   2.006   .     S
O171   Zn174   2.021   .     S
O172   Zn173   2.021   .     S
C175   C196    1.403   .     S
C175   O225    1.296   .     A
C175   O223    1.296   .     A
C176   C178    1.395   .     A
C176   H212    1.081   .     S
C176   C187    1.383   .     A
C177   C200    1.395   .     A
C177   C179    1.398   .     A
C177   C199    1.435   .     S
C178   C198    1.435   .     S
C178   C180    1.398   .     A
C179   C181    1.383   .     A
C179   H214    1.085   .     S
C180   C182    1.383   .     A
C180   H215    1.085   .     S
C181   C183    1.411   .     A
C181   C188    1.400   .     A
C182   C184    1.411   .     A
C182   C189    1.400   .     A
C183   C185    1.412   .     A
C183   C706    1.391   1_554 S
C184   C187    1.412   .     A
C184   C705    1.391   .     S
C185   C200    1.383   .     A
C185   C195    1.400   .     A
C186   O224    1.296   .     A
C186   C197    1.403   .     S
C186   O226    1.296   .     A
C187   C194    1.400   .     A
C188   H216    1.084   .     S
C188   C716    1.389   1_554 S
C189   H217    1.084   .     S
C189   C717    1.389   .     S
C190   H207    1.085   .     S
C190   H206    1.109   .     S
C190   C307    1.523   1_455 S
C190   N337    1.449   1_455 S
C191   H203    1.109   .     S
C191   H204    1.104   .     S
C191   H205    1.111   .     S
C191   C248    1.523   .     S
C192   H213    1.109   .     S
C192   H211    1.085   .     S
C192   C251    1.523   .     S
C192   N280    1.449   .     S
C193   H209    1.109   .     S
C193   H210    1.111   .     S
C193   H208    1.104   .     S
C193   C308    1.523   1_455 S
C194   H218    1.084   .     S
C194   C710    1.389   .     S
C195   H219    1.084   .     S
C195   C711    1.389   1_554 S
C196   C371    1.327   .     S
C196   H394    1.086   .     S
C198   O227    1.301   .     A
C198   O229    1.306   .     A
C199   O230    1.306   .     A
C199   O228    1.301   .     A
C200   H201    1.081   .     S
H202   C371    1.086   .     S
N221   Zn232   2.052   .     S
N221   C248    1.449   .     S
N221   N280    1.279   .     S
N222   Zn231   2.052   .     S
N222   N337    1.279   1_455 S
N222   C308    1.449   1_455 S
O223   Zn231   1.975   .     S
O224   Zn232   1.975   .     S
O225   Zn232   1.976   .     S
O226   Zn231   1.976   .     S
O227   Zn231   2.006   .     S
O228   Zn232   2.006   .     S
O229   Zn232   2.021   .     S
O230   Zn231   2.021   .     S
C233   C254    1.403   .     S
C233   O283    1.296   .     A
C233   O281    1.296   .     A
C234   C236    1.395   .     A
C234   H270    1.081   .     S
C234   C245    1.383   .     A
C235   C258    1.395   .     A
C235   C237    1.398   .     A
C235   C257    1.435   .     S
C236   C256    1.435   .     S
C236   C238    1.398   .     A
C237   C239    1.383   .     A
C237   H272    1.085   .     S
C238   C240    1.383   .     A
C238   H273    1.085   .     S
C239   C241    1.411   .     A
C239   C246    1.400   .     A
C240   C242    1.411   .     A
C240   C247    1.400   .     A
C241   C243    1.412   .     A
C241   C764    1.391   1_554 S
C242   C245    1.412   .     A
C242   C763    1.391   .     S
C243   C258    1.383   .     A
C243   C253    1.400   .     A
C244   O282    1.296   .     A
C244   C255    1.403   .     S
C244   O284    1.296   .     A
C245   C252    1.400   .     A
C246   H274    1.084   .     S
C246   C774    1.389   1_554 S
C247   H275    1.084   .     S
C247   C775    1.389   .     S
C248   H265    1.085   .     S
C248   H264    1.109   .     S
C249   H261    1.109   .     S
C249   H262    1.104   .     S
C249   H263    1.111   .     S
C249   C306    1.523   .     S
C250   H271    1.109   .     S
C250   H269    1.085   .     S
C250   C309    1.523   .     S
C250   N338    1.449   .     S
C251   H267    1.109   .     S
C251   H268    1.111   .     S
C251   H266    1.104   .     S
C252   H276    1.084   .     S
C252   C768    1.389   .     S
C253   H277    1.084   .     S
C253   C769    1.389   1_554 S
C254   C429    1.327   .     S
C254   H452    1.086   .     S
C256   O285    1.301   .     A
C256   O287    1.306   .     A
C257   O288    1.306   .     A
C257   O286    1.301   .     A
C258   H259    1.081   .     S
H260   C429    1.086   .     S
N279   Zn290   2.052   .     S
N279   C306    1.449   .     S
N279   N338    1.279   .     S
N280   Zn289   2.052   .     S
O281   Zn289   1.975   .     S
O282   Zn290   1.975   .     S
O283   Zn290   1.976   .     S
O284   Zn289   1.976   .     S
O285   Zn289   2.006   .     S
O286   Zn290   2.006   .     S
O287   Zn290   2.021   .     S
O288   Zn289   2.021   .     S
C291   C312    1.403   .     S
C291   O341    1.296   .     A
C291   O339    1.296   .     A
C292   C294    1.395   .     A
C292   H328    1.081   .     S
C292   C303    1.383   .     A
C293   C316    1.395   .     A
C293   C295    1.398   .     A
C293   C315    1.435   .     S
C294   C314    1.435   .     S
C294   C296    1.398   .     A
C295   C297    1.383   .     A
C295   H330    1.085   .     S
C296   C298    1.383   .     A
C296   H331    1.085   .     S
C297   C299    1.411   .     A
C297   C304    1.400   .     A
C298   C300    1.411   .     A
C298   C305    1.400   .     A
C299   C301    1.412   .     A
C299   C822    1.391   1_554 S
C300   C303    1.412   .     A
C300   C821    1.391   .     S
C301   C316    1.383   .     A
C301   C311    1.400   .     A
C302   O340    1.296   .     A
C302   C313    1.403   .     S
C302   O342    1.296   .     A
C303   C310    1.400   .     A
C304   H332    1.084   .     S
C304   C832    1.389   1_554 S
C305   H333    1.084   .     S
C305   C833    1.389   .     S
C306   H323    1.085   .     S
C306   H322    1.109   .     S
C307   H319    1.109   .     S
C307   H320    1.104   .     S
C307   H321    1.111   .     S
C307   C190    1.523   1_655 S
C308   H329    1.109   .     S
C308   H327    1.085   .     S
C308   C193    1.523   1_655 S
C308   N222    1.449   1_655 S
C309   H325    1.109   .     S
C309   H326    1.111   .     S
C309   H324    1.104   .     S
C310   H334    1.084   .     S
C310   C826    1.389   .     S
C311   H335    1.084   .     S
C311   C827    1.389   1_554 S
C312   C487    1.327   .     S
C312   H510    1.086   .     S
C314   O343    1.301   .     A
C314   O345    1.306   .     A
C315   O346    1.306   .     A
C315   O344    1.301   .     A
C316   H317    1.081   .     S
H318   C487    1.086   .     S
N337   Zn348   2.052   .     S
N337   C190    1.449   1_655 S
N337   N222    1.279   1_655 S
N338   Zn347   2.052   .     S
O339   Zn347   1.975   .     S
O340   Zn348   1.975   .     S
O341   Zn348   1.976   .     S
O342   Zn347   1.976   .     S
O343   Zn347   2.006   .     S
O344   Zn348   2.006   .     S
O345   Zn348   2.021   .     S
O346   Zn347   2.021   .     S
C349   C370    1.403   .     S
C349   O399    1.296   .     A
C349   O397    1.296   .     A
C350   C352    1.395   .     A
C350   H386    1.081   .     S
C350   C361    1.383   .     A
C351   C374    1.395   .     A
C351   C353    1.398   .     A
C351   C373    1.435   .     S
C352   C372    1.435   .     S
C352   C354    1.398   .     A
C353   C355    1.383   .     A
C353   H388    1.085   .     S
C354   C356    1.383   .     A
C354   H389    1.085   .     S
C355   C357    1.411   .     A
C355   C362    1.400   .     A
C356   C358    1.411   .     A
C356   C363    1.400   .     A
C357   C359    1.412   .     A
C357   C880    1.391   1_554 S
C358   C361    1.412   .     A
C358   C879    1.391   .     S
C359   C374    1.383   .     A
C359   C369    1.400   .     A
C360   O398    1.296   .     A
C360   C371    1.403   .     S
C360   O400    1.296   .     A
C361   C368    1.400   .     A
C362   H390    1.084   .     S
C362   C890    1.389   1_554 S
C363   H391    1.084   .     S
C363   C891    1.389   .     S
C364   H381    1.085   .     S
C364   H380    1.109   .     S
C364   C481    1.523   1_455 S
C364   N511    1.449   1_455 S
C365   H377    1.109   .     S
C365   H378    1.104   .     S
C365   H379    1.111   .     S
C365   C422    1.523   .     S
C366   H387    1.109   .     S
C366   H385    1.085   .     S
C366   C425    1.523   .     S
C366   N454    1.449   .     S
C367   H383    1.109   .     S
C367   H384    1.111   .     S
C367   H382    1.104   .     S
C367   C482    1.523   1_455 S
C368   H392    1.084   .     S
C368   C884    1.389   .     S
C369   H393    1.084   .     S
C369   C885    1.389   1_554 S
C370   C23     1.327   1_565 S
C370   H46     1.086   1_565 S
C372   O401    1.301   .     A
C372   O403    1.306   .     A
C373   O404    1.306   .     A
C373   O402    1.301   .     A
C374   H375    1.081   .     S
H376   C23     1.086   1_565 S
N395   Zn406   2.052   .     S
N395   C422    1.449   .     S
N395   N454    1.279   .     S
N396   Zn405   2.052   .     S
N396   N511    1.279   1_455 S
N396   C482    1.449   1_455 S
O397   Zn405   1.975   .     S
O398   Zn406   1.975   .     S
O399   Zn406   1.976   .     S
O400   Zn405   1.976   .     S
O401   Zn405   2.006   .     S
O402   Zn406   2.006   .     S
O403   Zn406   2.021   .     S
O404   Zn405   2.021   .     S
C407   C428    1.403   .     S
C407   O457    1.296   .     A
C407   O455    1.296   .     A
C408   C410    1.395   .     A
C408   H444    1.081   .     S
C408   C419    1.383   .     A
C409   C432    1.395   .     A
C409   C411    1.398   .     A
C409   C431    1.435   .     S
C410   C430    1.435   .     S
C410   C412    1.398   .     A
C411   C413    1.383   .     A
C411   H446    1.085   .     S
C412   C414    1.383   .     A
C412   H447    1.085   .     S
C413   C415    1.411   .     A
C413   C420    1.400   .     A
C414   C416    1.411   .     A
C414   C421    1.400   .     A
C415   C417    1.412   .     A
C415   C938    1.391   1_554 S
C416   C419    1.412   .     A
C416   C937    1.391   .     S
C417   C432    1.383   .     A
C417   C427    1.400   .     A
C418   O456    1.296   .     A
C418   C429    1.403   .     S
C418   O458    1.296   .     A
C419   C426    1.400   .     A
C420   H448    1.084   .     S
C420   C948    1.389   1_554 S
C421   H449    1.084   .     S
C421   C949    1.389   .     S
C422   H439    1.085   .     S
C422   H438    1.109   .     S
C423   H435    1.109   .     S
C423   H436    1.104   .     S
C423   H437    1.111   .     S
C423   C480    1.523   .     S
C424   H445    1.109   .     S
C424   H443    1.085   .     S
C424   C483    1.523   .     S
C424   N512    1.449   .     S
C425   H441    1.109   .     S
C425   H442    1.111   .     S
C425   H440    1.104   .     S
C426   H450    1.084   .     S
C426   C942    1.389   .     S
C427   H451    1.084   .     S
C427   C943    1.389   1_554 S
C428   C81     1.327   1_565 S
C428   H104    1.086   1_565 S
C430   O459    1.301   .     A
C430   O461    1.306   .     A
C431   O462    1.306   .     A
C431   O460    1.301   .     A
C432   H433    1.081   .     S
H434   C81     1.086   1_565 S
N453   Zn464   2.052   .     S
N453   C480    1.449   .     S
N453   N512    1.279   .     S
N454   Zn463   2.052   .     S
O455   Zn463   1.975   .     S
O456   Zn464   1.975   .     S
O457   Zn464   1.976   .     S
O458   Zn463   1.976   .     S
O459   Zn463   2.006   .     S
O460   Zn464   2.006   .     S
O461   Zn464   2.021   .     S
O462   Zn463   2.021   .     S
C465   C486    1.403   .     S
C465   O515    1.296   .     A
C465   O513    1.296   .     A
C466   C468    1.395   .     A
C466   H502    1.081   .     S
C466   C477    1.383   .     A
C467   C490    1.395   .     A
C467   C469    1.398   .     A
C467   C489    1.435   .     S
C468   C488    1.435   .     S
C468   C470    1.398   .     A
C469   C471    1.383   .     A
C469   H504    1.085   .     S
C470   C472    1.383   .     A
C470   H505    1.085   .     S
C471   C473    1.411   .     A
C471   C478    1.400   .     A
C472   C474    1.411   .     A
C472   C479    1.400   .     A
C473   C475    1.412   .     A
C473   C996    1.391   1_554 S
C474   C477    1.412   .     A
C474   C995    1.391   .     S
C475   C490    1.383   .     A
C475   C485    1.400   .     A
C476   O514    1.296   .     A
C476   C487    1.403   .     S
C476   O516    1.296   .     A
C477   C484    1.400   .     A
C478   H506    1.084   .     S
C478   C1006   1.389   1_554 S
C479   H507    1.084   .     S
C479   C1007   1.389   .     S
C480   H497    1.085   .     S
C480   H496    1.109   .     S
C481   H493    1.109   .     S
C481   H494    1.104   .     S
C481   H495    1.111   .     S
C481   C364    1.523   1_655 S
C482   H503    1.109   .     S
C482   H501    1.085   .     S
C482   C367    1.523   1_655 S
C482   N396    1.449   1_655 S
C483   H499    1.109   .     S
C483   H500    1.111   .     S
C483   H498    1.104   .     S
C484   H508    1.084   .     S
C484   C1000   1.389   .     S
C485   H509    1.084   .     S
C485   C1001   1.389   1_554 S
C486   C139    1.327   1_565 S
C486   H162    1.086   1_565 S
C488   O517    1.301   .     A
C488   O519    1.306   .     A
C489   O520    1.306   .     A
C489   O518    1.301   .     A
C490   H491    1.081   .     S
H492   C139    1.086   1_565 S
N511   Zn522   2.052   .     S
N511   C364    1.449   1_655 S
N511   N396    1.279   1_655 S
N512   Zn521   2.052   .     S
O513   Zn521   1.975   .     S
O514   Zn522   1.975   .     S
O515   Zn522   1.976   .     S
O516   Zn521   1.976   .     S
O517   Zn521   2.006   .     S
O518   Zn522   2.006   .     S
O519   Zn522   2.021   .     S
O520   Zn521   2.021   .     S
C523   C544    1.403   .     S
C523   O573    1.296   .     A
C523   O571    1.296   .     A
C524   C526    1.395   .     A
C524   H560    1.081   .     S
C524   C535    1.383   .     A
C525   C548    1.395   .     A
C525   C527    1.398   .     A
C525   C547    1.435   .     S
C526   C546    1.435   .     S
C526   C528    1.398   .     A
C527   C529    1.383   .     A
C527   H562    1.085   .     S
C528   C530    1.383   .     A
C528   H563    1.085   .     S
C529   C531    1.411   .     A
C529   C536    1.400   .     A
C530   C532    1.411   .     A
C530   C537    1.400   .     A
C531   C533    1.412   .     A
C532   C535    1.412   .     A
C532   C9      1.391   1_556 S
C533   C548    1.383   .     A
C533   C543    1.400   .     A
C534   O572    1.296   .     A
C534   C545    1.403   .     S
C534   O574    1.296   .     A
C535   C542    1.400   .     A
C536   H564    1.084   .     S
C537   H565    1.084   .     S
C537   C21     1.389   1_556 S
C538   H555    1.085   .     S
C538   H554    1.109   .     S
C538   C655    1.523   1_455 S
C538   N685    1.449   1_455 S
C539   H551    1.109   .     S
C539   H552    1.104   .     S
C539   H553    1.111   .     S
C539   C596    1.523   .     S
C540   H561    1.109   .     S
C540   H559    1.085   .     S
C540   C599    1.523   .     S
C540   N628    1.449   .     S
C541   H557    1.109   .     S
C541   H558    1.111   .     S
C541   H556    1.104   .     S
C541   C656    1.523   1_455 S
C542   H566    1.084   .     S
C542   C14     1.389   1_556 S
C543   H567    1.084   .     S
C544   C719    1.327   .     S
C544   H742    1.086   .     S
C545   C892    1.327   1_545 S
C545   H898    1.086   1_545 S
C546   O575    1.301   .     A
C546   O577    1.306   .     A
C547   O578    1.306   .     A
C547   O576    1.301   .     A
C548   H549    1.081   .     S
H550   C719    1.086   .     S
H568   C892    1.086   1_545 S
N569   Zn580   2.052   .     S
N569   C596    1.449   .     S
N569   N628    1.279   .     S
N570   Zn579   2.052   .     S
N570   N685    1.279   1_455 S
N570   C656    1.449   1_455 S
O571   Zn579   1.975   .     S
O572   Zn580   1.975   .     S
O573   Zn580   1.976   .     S
O574   Zn579   1.976   .     S
O575   Zn579   2.006   .     S
O576   Zn580   2.006   .     S
O577   Zn580   2.021   .     S
O578   Zn579   2.021   .     S
C581   C602    1.403   .     S
C581   O631    1.296   .     A
C581   O629    1.296   .     A
C582   C584    1.395   .     A
C582   H618    1.081   .     S
C582   C593    1.383   .     A
C583   C606    1.395   .     A
C583   C585    1.398   .     A
C583   C605    1.435   .     S
C584   C604    1.435   .     S
C584   C586    1.398   .     A
C585   C587    1.383   .     A
C585   H620    1.085   .     S
C586   C588    1.383   .     A
C586   H621    1.085   .     S
C587   C589    1.411   .     A
C587   C594    1.400   .     A
C588   C590    1.411   .     A
C588   C595    1.400   .     A
C589   C591    1.412   .     A
C590   C593    1.412   .     A
C590   C67     1.391   1_556 S
C591   C606    1.383   .     A
C591   C601    1.400   .     A
C592   O630    1.296   .     A
C592   C603    1.403   .     S
C592   O632    1.296   .     A
C593   C600    1.400   .     A
C594   H622    1.084   .     S
C595   H623    1.084   .     S
C595   C79     1.389   1_556 S
C596   H613    1.085   .     S
C596   H612    1.109   .     S
C597   H609    1.109   .     S
C597   H610    1.104   .     S
C597   H611    1.111   .     S
C597   C654    1.523   .     S
C598   H619    1.109   .     S
C598   H617    1.085   .     S
C598   C657    1.523   .     S
C598   N686    1.449   .     S
C599   H615    1.109   .     S
C599   H616    1.111   .     S
C599   H614    1.104   .     S
C600   H624    1.084   .     S
C600   C72     1.389   1_556 S
C601   H625    1.084   .     S
C602   C777    1.327   .     S
C602   H800    1.086   .     S
C603   C950    1.327   1_545 S
C603   H956    1.086   1_545 S
C604   O633    1.301   .     A
C604   O635    1.306   .     A
C605   O636    1.306   .     A
C605   O634    1.301   .     A
C606   H607    1.081   .     S
H608   C777    1.086   .     S
H626   C950    1.086   1_545 S
N627   Zn638   2.052   .     S
N627   C654    1.449   .     S
N627   N686    1.279   .     S
N628   Zn637   2.052   .     S
O629   Zn637   1.975   .     S
O630   Zn638   1.975   .     S
O631   Zn638   1.976   .     S
O632   Zn637   1.976   .     S
O633   Zn637   2.006   .     S
O634   Zn638   2.006   .     S
O635   Zn638   2.021   .     S
O636   Zn637   2.021   .     S
C639   C660    1.403   .     S
C639   O689    1.296   .     A
C639   O687    1.296   .     A
C640   C642    1.395   .     A
C640   H676    1.081   .     S
C640   C651    1.383   .     A
C641   C664    1.395   .     A
C641   C643    1.398   .     A
C641   C663    1.435   .     S
C642   C662    1.435   .     S
C642   C644    1.398   .     A
C643   C645    1.383   .     A
C643   H678    1.085   .     S
C644   C646    1.383   .     A
C644   H679    1.085   .     S
C645   C647    1.411   .     A
C645   C652    1.400   .     A
C646   C648    1.411   .     A
C646   C653    1.400   .     A
C647   C649    1.412   .     A
C648   C651    1.412   .     A
C648   C125    1.391   1_556 S
C649   C664    1.383   .     A
C649   C659    1.400   .     A
C650   O688    1.296   .     A
C650   C661    1.403   .     S
C650   O690    1.296   .     A
C651   C658    1.400   .     A
C652   H680    1.084   .     S
C653   H681    1.084   .     S
C653   C137    1.389   1_556 S
C654   H671    1.085   .     S
C654   H670    1.109   .     S
C655   H667    1.109   .     S
C655   H668    1.104   .     S
C655   H669    1.111   .     S
C655   C538    1.523   1_655 S
C656   H677    1.109   .     S
C656   H675    1.085   .     S
C656   C541    1.523   1_655 S
C656   N570    1.449   1_655 S
C657   H673    1.109   .     S
C657   H674    1.111   .     S
C657   H672    1.104   .     S
C658   H682    1.084   .     S
C658   C130    1.389   1_556 S
C659   H683    1.084   .     S
C660   C835    1.327   .     S
C660   H858    1.086   .     S
C661   C1008   1.327   1_545 S
C661   H1014   1.086   1_545 S
C662   O691    1.301   .     A
C662   O693    1.306   .     A
C663   O694    1.306   .     A
C663   O692    1.301   .     A
C664   H665    1.081   .     S
H666   C835    1.086   .     S
H684   C1008   1.086   1_545 S
N685   Zn696   2.052   .     S
N685   C538    1.449   1_655 S
N685   N570    1.279   1_655 S
N686   Zn695   2.052   .     S
O687   Zn695   1.975   .     S
O688   Zn696   1.975   .     S
O689   Zn696   1.976   .     S
O690   Zn695   1.976   .     S
O691   Zn695   2.006   .     S
O692   Zn696   2.006   .     S
O693   Zn696   2.021   .     S
O694   Zn695   2.021   .     S
C697   C718    1.403   .     S
C697   O747    1.296   .     A
C697   O745    1.296   .     A
C698   C700    1.395   .     A
C698   H734    1.081   .     S
C698   C709    1.383   .     A
C699   C722    1.395   .     A
C699   C701    1.398   .     A
C699   C721    1.435   .     S
C700   C720    1.435   .     S
C700   C702    1.398   .     A
C701   C703    1.383   .     A
C701   H736    1.085   .     S
C702   C704    1.383   .     A
C702   H737    1.085   .     S
C703   C705    1.411   .     A
C703   C710    1.400   .     A
C704   C706    1.411   .     A
C704   C711    1.400   .     A
C705   C707    1.412   .     A
C706   C709    1.412   .     A
C706   C183    1.391   1_556 S
C707   C722    1.383   .     A
C707   C717    1.400   .     A
C708   O746    1.296   .     A
C708   C719    1.403   .     S
C708   O748    1.296   .     A
C709   C716    1.400   .     A
C710   H738    1.084   .     S
C711   H739    1.084   .     S
C711   C195    1.389   1_556 S
C712   H729    1.085   .     S
C712   H728    1.109   .     S
C712   C829    1.523   1_455 S
C712   N859    1.449   1_455 S
C713   H725    1.109   .     S
C713   H726    1.104   .     S
C713   H727    1.111   .     S
C713   C770    1.523   .     S
C714   H735    1.109   .     S
C714   H733    1.085   .     S
C714   C773    1.523   .     S
C714   N802    1.449   .     S
C715   H731    1.109   .     S
C715   H732    1.111   .     S
C715   H730    1.104   .     S
C715   C830    1.523   1_455 S
C716   H740    1.084   .     S
C716   C188    1.389   1_556 S
C717   H741    1.084   .     S
C718   C893    1.327   .     S
C718   H916    1.086   .     S
C720   O749    1.301   .     A
C720   O751    1.306   .     A
C721   O752    1.306   .     A
C721   O750    1.301   .     A
C722   H723    1.081   .     S
H724   C893    1.086   .     S
N743   Zn754   2.052   .     S
N743   C770    1.449   .     S
N743   N802    1.279   .     S
N744   Zn753   2.052   .     S
N744   N859    1.279   1_455 S
N744   C830    1.449   1_455 S
O745   Zn753   1.975   .     S
O746   Zn754   1.975   .     S
O747   Zn754   1.976   .     S
O748   Zn753   1.976   .     S
O749   Zn753   2.006   .     S
O750   Zn754   2.006   .     S
O751   Zn754   2.021   .     S
O752   Zn753   2.021   .     S
C755   C776    1.403   .     S
C755   O805    1.296   .     A
C755   O803    1.296   .     A
C756   C758    1.395   .     A
C756   H792    1.081   .     S
C756   C767    1.383   .     A
C757   C780    1.395   .     A
C757   C759    1.398   .     A
C757   C779    1.435   .     S
C758   C778    1.435   .     S
C758   C760    1.398   .     A
C759   C761    1.383   .     A
C759   H794    1.085   .     S
C760   C762    1.383   .     A
C760   H795    1.085   .     S
C761   C763    1.411   .     A
C761   C768    1.400   .     A
C762   C764    1.411   .     A
C762   C769    1.400   .     A
C763   C765    1.412   .     A
C764   C767    1.412   .     A
C764   C241    1.391   1_556 S
C765   C780    1.383   .     A
C765   C775    1.400   .     A
C766   O804    1.296   .     A
C766   C777    1.403   .     S
C766   O806    1.296   .     A
C767   C774    1.400   .     A
C768   H796    1.084   .     S
C769   H797    1.084   .     S
C769   C253    1.389   1_556 S
C770   H787    1.085   .     S
C770   H786    1.109   .     S
C771   H783    1.109   .     S
C771   H784    1.104   .     S
C771   H785    1.111   .     S
C771   C828    1.523   .     S
C772   H793    1.109   .     S
C772   H791    1.085   .     S
C772   C831    1.523   .     S
C772   N860    1.449   .     S
C773   H789    1.109   .     S
C773   H790    1.111   .     S
C773   H788    1.104   .     S
C774   H798    1.084   .     S
C774   C246    1.389   1_556 S
C775   H799    1.084   .     S
C776   C951    1.327   .     S
C776   H974    1.086   .     S
C778   O807    1.301   .     A
C778   O809    1.306   .     A
C779   O810    1.306   .     A
C779   O808    1.301   .     A
C780   H781    1.081   .     S
H782   C951    1.086   .     S
N801   Zn812   2.052   .     S
N801   C828    1.449   .     S
N801   N860    1.279   .     S
N802   Zn811   2.052   .     S
O803   Zn811   1.975   .     S
O804   Zn812   1.975   .     S
O805   Zn812   1.976   .     S
O806   Zn811   1.976   .     S
O807   Zn811   2.006   .     S
O808   Zn812   2.006   .     S
O809   Zn812   2.021   .     S
O810   Zn811   2.021   .     S
C813   C834    1.403   .     S
C813   O863    1.296   .     A
C813   O861    1.296   .     A
C814   C816    1.395   .     A
C814   H850    1.081   .     S
C814   C825    1.383   .     A
C815   C838    1.395   .     A
C815   C817    1.398   .     A
C815   C837    1.435   .     S
C816   C836    1.435   .     S
C816   C818    1.398   .     A
C817   C819    1.383   .     A
C817   H852    1.085   .     S
C818   C820    1.383   .     A
C818   H853    1.085   .     S
C819   C821    1.411   .     A
C819   C826    1.400   .     A
C820   C822    1.411   .     A
C820   C827    1.400   .     A
C821   C823    1.412   .     A
C822   C825    1.412   .     A
C822   C299    1.391   1_556 S
C823   C838    1.383   .     A
C823   C833    1.400   .     A
C824   O862    1.296   .     A
C824   C835    1.403   .     S
C824   O864    1.296   .     A
C825   C832    1.400   .     A
C826   H854    1.084   .     S
C827   H855    1.084   .     S
C827   C311    1.389   1_556 S
C828   H845    1.085   .     S
C828   H844    1.109   .     S
C829   H841    1.109   .     S
C829   H842    1.104   .     S
C829   H843    1.111   .     S
C829   C712    1.523   1_655 S
C830   H851    1.109   .     S
C830   H849    1.085   .     S
C830   C715    1.523   1_655 S
C830   N744    1.449   1_655 S
C831   H847    1.109   .     S
C831   H848    1.111   .     S
C831   H846    1.104   .     S
C832   H856    1.084   .     S
C832   C304    1.389   1_556 S
C833   H857    1.084   .     S
C834   C1009   1.327   .     S
C834   H1032   1.086   .     S
C836   O865    1.301   .     A
C836   O867    1.306   .     A
C837   O868    1.306   .     A
C837   O866    1.301   .     A
C838   H839    1.081   .     S
H840   C1009   1.086   .     S
N859   Zn870   2.052   .     S
N859   C712    1.449   1_655 S
N859   N744    1.279   1_655 S
N860   Zn869   2.052   .     S
O861   Zn869   1.975   .     S
O862   Zn870   1.975   .     S
O863   Zn870   1.976   .     S
O864   Zn869   1.976   .     S
O865   Zn869   2.006   .     S
O866   Zn870   2.006   .     S
O867   Zn870   2.021   .     S
O868   Zn869   2.021   .     S
C871   C892    1.403   .     S
C871   O921    1.296   .     A
C871   O919    1.296   .     A
C872   C874    1.395   .     A
C872   H908    1.081   .     S
C872   C883    1.383   .     A
C873   C896    1.395   .     A
C873   C875    1.398   .     A
C873   C895    1.435   .     S
C874   C894    1.435   .     S
C874   C876    1.398   .     A
C875   C877    1.383   .     A
C875   H910    1.085   .     S
C876   C878    1.383   .     A
C876   H911    1.085   .     S
C877   C879    1.411   .     A
C877   C884    1.400   .     A
C878   C880    1.411   .     A
C878   C885    1.400   .     A
C879   C881    1.412   .     A
C880   C883    1.412   .     A
C880   C357    1.391   1_556 S
C881   C896    1.383   .     A
C881   C891    1.400   .     A
C882   O920    1.296   .     A
C882   C893    1.403   .     S
C882   O922    1.296   .     A
C883   C890    1.400   .     A
C884   H912    1.084   .     S
C885   H913    1.084   .     S
C885   C369    1.389   1_556 S
C886   H903    1.085   .     S
C886   H902    1.109   .     S
C886   C1003   1.523   1_455 S
C886   N1033   1.449   1_455 S
C887   H899    1.109   .     S
C887   H900    1.104   .     S
C887   H901    1.111   .     S
C887   C944    1.523   .     S
C888   H909    1.109   .     S
C888   H907    1.085   .     S
C888   C947    1.523   .     S
C888   N976    1.449   .     S
C889   H905    1.109   .     S
C889   H906    1.111   .     S
C889   H904    1.104   .     S
C889   C1004   1.523   1_455 S
C890   H914    1.084   .     S
C890   C362    1.389   1_556 S
C891   H915    1.084   .     S
C892   C545    1.327   1_565 S
C892   H568    1.086   1_565 S
C894   O923    1.301   .     A
C894   O925    1.306   .     A
C895   O926    1.306   .     A
C895   O924    1.301   .     A
C896   H897    1.081   .     S
H898   C545    1.086   1_565 S
N917   Zn928   2.052   .     S
N917   C944    1.449   .     S
N917   N976    1.279   .     S
N918   Zn927   2.052   .     S
N918   N1033   1.279   1_455 S
N918   C1004   1.449   1_455 S
O919   Zn927   1.975   .     S
O920   Zn928   1.975   .     S
O921   Zn928   1.976   .     S
O922   Zn927   1.976   .     S
O923   Zn927   2.006   .     S
O924   Zn928   2.006   .     S
O925   Zn928   2.021   .     S
O926   Zn927   2.021   .     S
C929   C950    1.403   .     S
C929   O979    1.296   .     A
C929   O977    1.296   .     A
C930   C932    1.395   .     A
C930   H966    1.081   .     S
C930   C941    1.383   .     A
C931   C954    1.395   .     A
C931   C933    1.398   .     A
C931   C953    1.435   .     S
C932   C952    1.435   .     S
C932   C934    1.398   .     A
C933   C935    1.383   .     A
C933   H968    1.085   .     S
C934   C936    1.383   .     A
C934   H969    1.085   .     S
C935   C937    1.411   .     A
C935   C942    1.400   .     A
C936   C938    1.411   .     A
C936   C943    1.400   .     A
C937   C939    1.412   .     A
C938   C941    1.412   .     A
C938   C415    1.391   1_556 S
C939   C954    1.383   .     A
C939   C949    1.400   .     A
C940   O978    1.296   .     A
C940   C951    1.403   .     S
C940   O980    1.296   .     A
C941   C948    1.400   .     A
C942   H970    1.084   .     S
C943   H971    1.084   .     S
C943   C427    1.389   1_556 S
C944   H961    1.085   .     S
C944   H960    1.109   .     S
C945   H957    1.109   .     S
C945   H958    1.104   .     S
C945   H959    1.111   .     S
C945   C1002   1.523   .     S
C946   H967    1.109   .     S
C946   H965    1.085   .     S
C946   C1005   1.523   .     S
C946   N1034   1.449   .     S
C947   H963    1.109   .     S
C947   H964    1.111   .     S
C947   H962    1.104   .     S
C948   H972    1.084   .     S
C948   C420    1.389   1_556 S
C949   H973    1.084   .     S
C950   C603    1.327   1_565 S
C950   H626    1.086   1_565 S
C952   O981    1.301   .     A
C952   O983    1.306   .     A
C953   O984    1.306   .     A
C953   O982    1.301   .     A
C954   H955    1.081   .     S
H956   C603    1.086   1_565 S
N975   Zn986   2.052   .     S
N975   C1002   1.449   .     S
N975   N1034   1.279   .     S
N976   Zn985   2.052   .     S
O977   Zn985   1.975   .     S
O978   Zn986   1.975   .     S
O979   Zn986   1.976   .     S
O980   Zn985   1.976   .     S
O981   Zn985   2.006   .     S
O982   Zn986   2.006   .     S
O983   Zn986   2.021   .     S
O984   Zn985   2.021   .     S
C987   C1008   1.403   .     S
C987   O1037   1.296   .     A
C987   O1035   1.296   .     A
C988   C990    1.395   .     A
C988   H1024   1.081   .     S
C988   C999    1.383   .     A
C989   C1012   1.395   .     A
C989   C991    1.398   .     A
C989   C1011   1.435   .     S
C990   C1010   1.435   .     S
C990   C992    1.398   .     A
C991   C993    1.383   .     A
C991   H1026   1.085   .     S
C992   C994    1.383   .     A
C992   H1027   1.085   .     S
C993   C995    1.411   .     A
C993   C1000   1.400   .     A
C994   C996    1.411   .     A
C994   C1001   1.400   .     A
C995   C997    1.412   .     A
C996   C999    1.412   .     A
C996   C473    1.391   1_556 S
C997   C1012   1.383   .     A
C997   C1007   1.400   .     A
C998   O1036   1.296   .     A
C998   C1009   1.403   .     S
C998   O1038   1.296   .     A
C999   C1006   1.400   .     A
C1000  H1028   1.084   .     S
C1001  H1029   1.084   .     S
C1001  C485    1.389   1_556 S
C1002  H1019   1.085   .     S
C1002  H1018   1.109   .     S
C1003  H1015   1.109   .     S
C1003  H1016   1.104   .     S
C1003  H1017   1.111   .     S
C1003  C886    1.523   1_655 S
C1004  H1025   1.109   .     S
C1004  H1023   1.085   .     S
C1004  C889    1.523   1_655 S
C1004  N918    1.449   1_655 S
C1005  H1021   1.109   .     S
C1005  H1022   1.111   .     S
C1005  H1020   1.104   .     S
C1006  H1030   1.084   .     S
C1006  C478    1.389   1_556 S
C1007  H1031   1.084   .     S
C1008  C661    1.327   1_565 S
C1008  H684    1.086   1_565 S
C1010  O1039   1.301   .     A
C1010  O1041   1.306   .     A
C1011  O1042   1.306   .     A
C1011  O1040   1.301   .     A
C1012  H1013   1.081   .     S
H1014  C661    1.086   1_565 S
N1033  Zn1044  2.052   .     S
N1033  C886    1.449   1_655 S
N1033  N918    1.279   1_655 S
N1034  Zn1043  2.052   .     S
O1035  Zn1043  1.975   .     S
O1036  Zn1044  1.975   .     S
O1037  Zn1044  1.976   .     S
O1038  Zn1043  1.976   .     S
O1039  Zn1043  2.006   .     S
O1040  Zn1044  2.006   .     S
O1041  Zn1044  2.021   .     S
O1042  Zn1043  2.021   .     S
