data_str_m3_o1_o18_pcu_sym.236
_audit_creation_date              2020-01-03
_audit_creation_method            'Materials Studio'
_symmetry_space_group_name_H-M    'P1'
_symmetry_Int_Tables_number       1
_symmetry_cell_setting            triclinic
loop_
_symmetry_equiv_pos_as_xyz
  x,y,z
_cell_length_a                    29.8876
_cell_length_b                    31.8811
_cell_length_c                    30.9644
_cell_angle_alpha                 91.3126
_cell_angle_beta                  68.0483
_cell_angle_gamma                 89.9925
loop_
_atom_site_label
_atom_site_type_symbol
_atom_site_fract_x
_atom_site_fract_y
_atom_site_fract_z
_atom_site_U_iso_or_equiv
_atom_site_adp_type
_atom_site_occupancy
O1     O     0.12846   0.22775   0.25000   0.00000  Uiso   1.00
O2     O     0.20488   0.10558   0.24999   0.00000  Uiso   1.00
O3     O     0.20490   0.22774   0.25000   0.00000  Uiso   1.00
O4     O     0.12843   0.10559   0.25000   0.00000  Uiso   1.00
C5     C     0.16699   0.24645   0.24931   0.00000  Uiso   1.00
C6     C     0.16643   0.08687   0.25048   0.00000  Uiso   1.00
O7     O     0.10661   0.16667   0.31612   0.00000  Uiso   1.00
O8     O     0.22672   0.16666   0.18387   0.00000  Uiso   1.00
O9     O     0.18305   0.16666   0.31612   0.00000  Uiso   1.00
O10    O     0.15028   0.16667   0.18388   0.00000  Uiso   1.00
C11    C     0.13642   0.16575   0.33781   0.00000  Uiso   1.00
C12    C     0.19698   0.16599   0.16212   0.00000  Uiso   1.00
Zn13   Zn    0.11562   0.16667   0.25000   0.00000  Uiso   1.00
Zn14   Zn    0.21771   0.16666   0.25000   0.00000  Uiso   1.00
C15    C     0.11853   0.15752   0.38750   0.00000  Uiso   1.00
C16    C     0.21617   0.16358   0.11132   0.00000  Uiso   1.00
C17    C     0.06796   0.11809   0.45341   0.00000  Uiso   1.00
C18    C     0.27965   0.17475   0.03666   0.00000  Uiso   1.00
C19    C     0.07777   0.13306   0.40887   0.00000  Uiso   1.00
C20    C     0.26419   0.17313   0.08495   0.00000  Uiso   1.00
C21    C     0.14860   0.16744   0.41107   0.00000  Uiso   1.00
C22    C     0.18514   0.15190   0.08911   0.00000  Uiso   1.00
C23    C     0.14328   0.14818   0.45277   0.00000  Uiso   1.00
C24    C     0.20010   0.15222   0.04067   0.00000  Uiso   1.00
C25    C     0.10135   0.12407   0.47529   0.00000  Uiso   1.00
C26    C     0.24703   0.16712   0.01426   0.00000  Uiso   1.00
C27    C     0.17892   0.15253   0.47228   0.00000  Uiso   1.00
C28    C     0.16799   0.14079   0.01854   0.00000  Uiso   1.00
C29    C     0.12628   0.11671   0.04071   0.00000  Uiso   1.00
C30    C     0.22569   0.16699   0.44626   0.00000  Uiso   1.00
C31    C     0.09430   0.10656   0.01872   0.00000  Uiso   1.00
C32    C     0.25980   0.17386   0.46638   0.00000  Uiso   1.00
H33    H     0.14820   0.14497   0.11031   0.00000  Uiso   1.00
H34    H     0.17722   0.18940   0.39514   0.00000  Uiso   1.00
H35    H     0.28925   0.18084   0.10167   0.00000  Uiso   1.00
H36    H     0.05471   0.12402   0.39050   0.00000  Uiso   1.00
H37    H     0.03498   0.10086   0.46959   0.00000  Uiso   1.00
H38    H     0.31686   0.18273   0.01748   0.00000  Uiso   1.00
H39    H     0.12002   0.10249   0.07377   0.00000  Uiso   1.00
H40    H     0.23727   0.17211   0.40938   0.00000  Uiso   1.00
C41    C     0.20527   0.31164   0.21551   0.00000  Uiso   1.00
C42    C     0.12810   0.02163   0.28384   0.00000  Uiso   1.00
C43    C     0.20444   0.02143   0.21665   0.00000  Uiso   1.00
C44    C     0.12901   0.31189   0.28277   0.00000  Uiso   1.00
H45    H     0.23292   0.03837   0.19058   0.00000  Uiso   1.00
H46    H     0.10049   0.29504   0.30883   0.00000  Uiso   1.00
C47    C     0.16619   0.04270   0.25067   0.00000  Uiso   1.00
C48    C     0.16727   0.29061   0.24887   0.00000  Uiso   1.00
C49    C     0.31851   0.13589   0.22658   0.00000  Uiso   1.00
C50    C     0.01505   0.19797   0.27261   0.00000  Uiso   1.00
C51    C     0.03303   0.13616   0.22625   0.00000  Uiso   1.00
C52    C     0.30025   0.19711   0.27379   0.00000  Uiso   1.00
N53    N     0.04759   0.16668   0.25001   0.00000  Uiso   1.00
N54    N     0.28574   0.16666   0.24999   0.00000  Uiso   1.00
N55    N     0.05618   0.07738   0.04033   0.00000  Uiso   1.00
O56    O     0.04911   0.04602   0.01606   0.00000  Uiso   1.00
O57    O     0.03576   0.07677   0.08548   0.00000  Uiso   1.00
N58    N     0.30610   0.18965   0.43768   0.00000  Uiso   1.00
O59    O     0.32543   0.17677   0.39447   0.00000  Uiso   1.00
O60    O     0.32304   0.22321   0.45060   0.00000  Uiso   1.00
Cl61   Cl    0.25287   0.28525   0.17097   0.00000  Uiso   1.00
Cl62   Cl    0.08004   0.04778   0.32803   0.00000  Uiso   1.00
N63    N     0.30441   0.10253   0.20294   0.00000  Uiso   1.00
O64    O     0.30709   0.06389   0.21445   0.00000  Uiso   1.00
O65    O     0.29597   0.11001   0.16562   0.00000  Uiso   1.00
N66    N     0.03008   0.23345   0.29272   0.00000  Uiso   1.00
O67    O     0.02632   0.27096   0.27863   0.00000  Uiso   1.00
O68    O     0.04301   0.22911   0.32800   0.00000  Uiso   1.00
Cl69   Cl    0.07482   0.09858   0.19131   0.00000  Uiso   1.00
Cl70   Cl    0.25832   0.23440   0.30914   0.00000  Uiso   1.00
O71    O     0.46179   0.22775   0.25000   0.00000  Uiso   1.00
O72    O     0.53821   0.10558   0.24999   0.00000  Uiso   1.00
O73    O     0.53823   0.22774   0.25000   0.00000  Uiso   1.00
O74    O     0.46177   0.10559   0.25000   0.00000  Uiso   1.00
C75    C     0.50032   0.24645   0.24931   0.00000  Uiso   1.00
C76    C     0.49976   0.08687   0.25048   0.00000  Uiso   1.00
O77    O     0.43994   0.16667   0.31612   0.00000  Uiso   1.00
O78    O     0.56006   0.16666   0.18387   0.00000  Uiso   1.00
O79    O     0.51639   0.16666   0.31612   0.00000  Uiso   1.00
O80    O     0.48361   0.16667   0.18388   0.00000  Uiso   1.00
C81    C     0.46975   0.16575   0.33781   0.00000  Uiso   1.00
C82    C     0.53031   0.16599   0.16212   0.00000  Uiso   1.00
Zn83   Zn    0.44896   0.16667   0.25000   0.00000  Uiso   1.00
Zn84   Zn    0.55104   0.16666   0.25000   0.00000  Uiso   1.00
C85    C     0.45187   0.15752   0.38750   0.00000  Uiso   1.00
C86    C     0.54950   0.16358   0.11132   0.00000  Uiso   1.00
C87    C     0.40129   0.11809   0.45341   0.00000  Uiso   1.00
C88    C     0.61299   0.17475   0.03666   0.00000  Uiso   1.00
C89    C     0.41111   0.13306   0.40887   0.00000  Uiso   1.00
C90    C     0.59753   0.17313   0.08495   0.00000  Uiso   1.00
C91    C     0.48194   0.16744   0.41107   0.00000  Uiso   1.00
C92    C     0.51848   0.15190   0.08911   0.00000  Uiso   1.00
C93    C     0.47661   0.14818   0.45277   0.00000  Uiso   1.00
C94    C     0.53343   0.15222   0.04067   0.00000  Uiso   1.00
C95    C     0.43469   0.12407   0.47529   0.00000  Uiso   1.00
C96    C     0.58036   0.16712   0.01426   0.00000  Uiso   1.00
C97    C     0.51225   0.15253   0.47228   0.00000  Uiso   1.00
C98    C     0.50133   0.14079   0.01854   0.00000  Uiso   1.00
C99    C     0.45961   0.11671   0.04071   0.00000  Uiso   1.00
C100   C     0.55903   0.16699   0.44626   0.00000  Uiso   1.00
C101   C     0.42763   0.10656   0.01872   0.00000  Uiso   1.00
C102   C     0.59313   0.17386   0.46638   0.00000  Uiso   1.00
H103   H     0.48153   0.14497   0.11031   0.00000  Uiso   1.00
H104   H     0.51056   0.18940   0.39514   0.00000  Uiso   1.00
H105   H     0.62258   0.18084   0.10167   0.00000  Uiso   1.00
H106   H     0.38804   0.12402   0.39050   0.00000  Uiso   1.00
H107   H     0.36831   0.10086   0.46959   0.00000  Uiso   1.00
H108   H     0.65020   0.18273   0.01748   0.00000  Uiso   1.00
H109   H     0.45335   0.10249   0.07377   0.00000  Uiso   1.00
H110   H     0.57061   0.17211   0.40938   0.00000  Uiso   1.00
C111   C     0.53860   0.31164   0.21551   0.00000  Uiso   1.00
C112   C     0.46144   0.02163   0.28384   0.00000  Uiso   1.00
C113   C     0.53777   0.02143   0.21665   0.00000  Uiso   1.00
C114   C     0.46235   0.31189   0.28277   0.00000  Uiso   1.00
H115   H     0.56626   0.03837   0.19058   0.00000  Uiso   1.00
H116   H     0.43382   0.29504   0.30883   0.00000  Uiso   1.00
C117   C     0.49952   0.04270   0.25067   0.00000  Uiso   1.00
C118   C     0.50061   0.29061   0.24887   0.00000  Uiso   1.00
C119   C     0.65185   0.13589   0.22658   0.00000  Uiso   1.00
C120   C     0.34838   0.19797   0.27261   0.00000  Uiso   1.00
C121   C     0.36637   0.13616   0.22625   0.00000  Uiso   1.00
C122   C     0.63358   0.19711   0.27379   0.00000  Uiso   1.00
N123   N     0.38093   0.16668   0.25001   0.00000  Uiso   1.00
N124   N     0.61907   0.16666   0.24999   0.00000  Uiso   1.00
N125   N     0.38951   0.07738   0.04033   0.00000  Uiso   1.00
O126   O     0.38244   0.04602   0.01606   0.00000  Uiso   1.00
O127   O     0.36909   0.07677   0.08548   0.00000  Uiso   1.00
N128   N     0.63944   0.18965   0.43768   0.00000  Uiso   1.00
O129   O     0.65876   0.17677   0.39447   0.00000  Uiso   1.00
O130   O     0.65637   0.22321   0.45060   0.00000  Uiso   1.00
Cl131  Cl    0.58620   0.28525   0.17097   0.00000  Uiso   1.00
Cl132  Cl    0.41338   0.04778   0.32803   0.00000  Uiso   1.00
N133   N     0.63774   0.10253   0.20294   0.00000  Uiso   1.00
O134   O     0.64042   0.06389   0.21445   0.00000  Uiso   1.00
O135   O     0.62931   0.11001   0.16562   0.00000  Uiso   1.00
N136   N     0.36341   0.23345   0.29272   0.00000  Uiso   1.00
O137   O     0.35966   0.27096   0.27863   0.00000  Uiso   1.00
O138   O     0.37634   0.22911   0.32800   0.00000  Uiso   1.00
Cl139  Cl    0.40816   0.09858   0.19131   0.00000  Uiso   1.00
Cl140  Cl    0.59166   0.23440   0.30914   0.00000  Uiso   1.00
O141   O     0.79512   0.22775   0.25000   0.00000  Uiso   1.00
O142   O     0.87154   0.10558   0.24999   0.00000  Uiso   1.00
O143   O     0.87157   0.22774   0.25000   0.00000  Uiso   1.00
O144   O     0.79510   0.10559   0.25000   0.00000  Uiso   1.00
C145   C     0.83366   0.24645   0.24931   0.00000  Uiso   1.00
C146   C     0.83309   0.08687   0.25048   0.00000  Uiso   1.00
O147   O     0.77328   0.16667   0.31612   0.00000  Uiso   1.00
O148   O     0.89339   0.16666   0.18387   0.00000  Uiso   1.00
O149   O     0.84972   0.16666   0.31612   0.00000  Uiso   1.00
O150   O     0.81695   0.16667   0.18388   0.00000  Uiso   1.00
C151   C     0.80308   0.16575   0.33781   0.00000  Uiso   1.00
C152   C     0.86364   0.16599   0.16212   0.00000  Uiso   1.00
Zn153  Zn    0.78229   0.16667   0.25000   0.00000  Uiso   1.00
Zn154  Zn    0.88438   0.16666   0.25000   0.00000  Uiso   1.00
C155   C     0.78520   0.15752   0.38750   0.00000  Uiso   1.00
C156   C     0.88284   0.16358   0.11132   0.00000  Uiso   1.00
C157   C     0.73463   0.11809   0.45341   0.00000  Uiso   1.00
C158   C     0.94632   0.17475   0.03666   0.00000  Uiso   1.00
C159   C     0.74444   0.13306   0.40887   0.00000  Uiso   1.00
C160   C     0.93086   0.17313   0.08495   0.00000  Uiso   1.00
C161   C     0.81527   0.16744   0.41107   0.00000  Uiso   1.00
C162   C     0.85181   0.15190   0.08911   0.00000  Uiso   1.00
C163   C     0.80994   0.14818   0.45277   0.00000  Uiso   1.00
C164   C     0.86677   0.15222   0.04067   0.00000  Uiso   1.00
C165   C     0.76802   0.12407   0.47529   0.00000  Uiso   1.00
C166   C     0.91370   0.16712   0.01426   0.00000  Uiso   1.00
C167   C     0.84559   0.15253   0.47228   0.00000  Uiso   1.00
C168   C     0.83466   0.14079   0.01854   0.00000  Uiso   1.00
C169   C     0.79294   0.11671   0.04071   0.00000  Uiso   1.00
C170   C     0.89236   0.16699   0.44626   0.00000  Uiso   1.00
C171   C     0.76096   0.10656   0.01872   0.00000  Uiso   1.00
C172   C     0.92647   0.17386   0.46638   0.00000  Uiso   1.00
H173   H     0.81487   0.14497   0.11031   0.00000  Uiso   1.00
H174   H     0.84389   0.18940   0.39514   0.00000  Uiso   1.00
H175   H     0.95592   0.18084   0.10167   0.00000  Uiso   1.00
H176   H     0.72137   0.12402   0.39050   0.00000  Uiso   1.00
H177   H     0.70165   0.10086   0.46959   0.00000  Uiso   1.00
H178   H     0.98353   0.18273   0.01748   0.00000  Uiso   1.00
H179   H     0.78669   0.10249   0.07377   0.00000  Uiso   1.00
H180   H     0.90394   0.17211   0.40938   0.00000  Uiso   1.00
C181   C     0.87193   0.31164   0.21551   0.00000  Uiso   1.00
C182   C     0.79477   0.02163   0.28384   0.00000  Uiso   1.00
C183   C     0.87111   0.02143   0.21665   0.00000  Uiso   1.00
C184   C     0.79568   0.31189   0.28277   0.00000  Uiso   1.00
H185   H     0.89959   0.03837   0.19058   0.00000  Uiso   1.00
H186   H     0.76715   0.29504   0.30883   0.00000  Uiso   1.00
C187   C     0.83286   0.04270   0.25067   0.00000  Uiso   1.00
C188   C     0.83394   0.29061   0.24887   0.00000  Uiso   1.00
C189   C     0.98518   0.13589   0.22658   0.00000  Uiso   1.00
C190   C     0.68171   0.19797   0.27261   0.00000  Uiso   1.00
C191   C     0.69970   0.13616   0.22625   0.00000  Uiso   1.00
C192   C     0.96692   0.19711   0.27379   0.00000  Uiso   1.00
N193   N     0.71426   0.16668   0.25001   0.00000  Uiso   1.00
N194   N     0.95241   0.16666   0.24999   0.00000  Uiso   1.00
N195   N     0.72285   0.07738   0.04033   0.00000  Uiso   1.00
O196   O     0.71578   0.04602   0.01606   0.00000  Uiso   1.00
O197   O     0.70242   0.07677   0.08548   0.00000  Uiso   1.00
N198   N     0.97277   0.18965   0.43768   0.00000  Uiso   1.00
O199   O     0.99210   0.17677   0.39447   0.00000  Uiso   1.00
O200   O     0.98971   0.22321   0.45060   0.00000  Uiso   1.00
Cl201  Cl    0.91953   0.28525   0.17097   0.00000  Uiso   1.00
Cl202  Cl    0.74671   0.04778   0.32803   0.00000  Uiso   1.00
N203   N     0.97107   0.10253   0.20294   0.00000  Uiso   1.00
O204   O     0.97375   0.06389   0.21445   0.00000  Uiso   1.00
O205   O     0.96264   0.11001   0.16562   0.00000  Uiso   1.00
N206   N     0.69675   0.23345   0.29272   0.00000  Uiso   1.00
O207   O     0.69299   0.27096   0.27863   0.00000  Uiso   1.00
O208   O     0.70967   0.22911   0.32800   0.00000  Uiso   1.00
Cl209  Cl    0.74149   0.09858   0.19131   0.00000  Uiso   1.00
Cl210  Cl    0.92499   0.23440   0.30914   0.00000  Uiso   1.00
O211   O     0.12846   0.56108   0.25000   0.00000  Uiso   1.00
O212   O     0.20488   0.43892   0.24999   0.00000  Uiso   1.00
O213   O     0.20490   0.56107   0.25000   0.00000  Uiso   1.00
O214   O     0.12843   0.43893   0.25000   0.00000  Uiso   1.00
C215   C     0.16699   0.57979   0.24931   0.00000  Uiso   1.00
C216   C     0.16643   0.42020   0.25048   0.00000  Uiso   1.00
O217   O     0.10661   0.50001   0.31612   0.00000  Uiso   1.00
O218   O     0.22672   0.49999   0.18387   0.00000  Uiso   1.00
O219   O     0.18305   0.50000   0.31612   0.00000  Uiso   1.00
O220   O     0.15028   0.50000   0.18388   0.00000  Uiso   1.00
C221   C     0.13642   0.49909   0.33781   0.00000  Uiso   1.00
C222   C     0.19698   0.49932   0.16212   0.00000  Uiso   1.00
Zn223  Zn    0.11562   0.50001   0.25000   0.00000  Uiso   1.00
Zn224  Zn    0.21771   0.49999   0.25000   0.00000  Uiso   1.00
C225   C     0.11853   0.49085   0.38750   0.00000  Uiso   1.00
C226   C     0.21617   0.49691   0.11132   0.00000  Uiso   1.00
C227   C     0.06796   0.45142   0.45341   0.00000  Uiso   1.00
C228   C     0.27965   0.50808   0.03666   0.00000  Uiso   1.00
C229   C     0.07777   0.46639   0.40887   0.00000  Uiso   1.00
C230   C     0.26419   0.50646   0.08495   0.00000  Uiso   1.00
C231   C     0.14860   0.50077   0.41107   0.00000  Uiso   1.00
C232   C     0.18514   0.48524   0.08911   0.00000  Uiso   1.00
C233   C     0.14328   0.48151   0.45277   0.00000  Uiso   1.00
C234   C     0.20010   0.48555   0.04067   0.00000  Uiso   1.00
C235   C     0.10135   0.45740   0.47529   0.00000  Uiso   1.00
C236   C     0.24703   0.50046   0.01426   0.00000  Uiso   1.00
C237   C     0.17892   0.48586   0.47228   0.00000  Uiso   1.00
C238   C     0.16799   0.47412   0.01854   0.00000  Uiso   1.00
C239   C     0.12628   0.45004   0.04071   0.00000  Uiso   1.00
C240   C     0.22569   0.50033   0.44626   0.00000  Uiso   1.00
C241   C     0.09430   0.43989   0.01872   0.00000  Uiso   1.00
C242   C     0.25980   0.50719   0.46638   0.00000  Uiso   1.00
H243   H     0.14820   0.47831   0.11031   0.00000  Uiso   1.00
H244   H     0.17722   0.52273   0.39514   0.00000  Uiso   1.00
H245   H     0.28925   0.51417   0.10167   0.00000  Uiso   1.00
H246   H     0.05471   0.45735   0.39050   0.00000  Uiso   1.00
H247   H     0.03498   0.43419   0.46959   0.00000  Uiso   1.00
H248   H     0.31686   0.51607   0.01748   0.00000  Uiso   1.00
H249   H     0.12002   0.43582   0.07377   0.00000  Uiso   1.00
H250   H     0.23727   0.50544   0.40938   0.00000  Uiso   1.00
C251   C     0.20527   0.64497   0.21551   0.00000  Uiso   1.00
C252   C     0.12810   0.35496   0.28384   0.00000  Uiso   1.00
C253   C     0.20444   0.35476   0.21665   0.00000  Uiso   1.00
C254   C     0.12901   0.64523   0.28277   0.00000  Uiso   1.00
H255   H     0.23292   0.37170   0.19058   0.00000  Uiso   1.00
H256   H     0.10049   0.62837   0.30883   0.00000  Uiso   1.00
C257   C     0.16619   0.37604   0.25067   0.00000  Uiso   1.00
C258   C     0.16727   0.62394   0.24887   0.00000  Uiso   1.00
C259   C     0.31851   0.46922   0.22658   0.00000  Uiso   1.00
C260   C     0.01505   0.53130   0.27261   0.00000  Uiso   1.00
C261   C     0.03303   0.46950   0.22625   0.00000  Uiso   1.00
C262   C     0.30025   0.53044   0.27379   0.00000  Uiso   1.00
N263   N     0.04759   0.50001   0.25001   0.00000  Uiso   1.00
N264   N     0.28574   0.49999   0.24999   0.00000  Uiso   1.00
N265   N     0.05618   0.41072   0.04033   0.00000  Uiso   1.00
O266   O     0.04911   0.37935   0.01606   0.00000  Uiso   1.00
O267   O     0.03576   0.41010   0.08548   0.00000  Uiso   1.00
N268   N     0.30610   0.52299   0.43768   0.00000  Uiso   1.00
O269   O     0.32543   0.51011   0.39447   0.00000  Uiso   1.00
O270   O     0.32304   0.55655   0.45060   0.00000  Uiso   1.00
Cl271  Cl    0.25287   0.61858   0.17097   0.00000  Uiso   1.00
Cl272  Cl    0.08004   0.38112   0.32803   0.00000  Uiso   1.00
N273   N     0.30441   0.43586   0.20294   0.00000  Uiso   1.00
O274   O     0.30709   0.39722   0.21445   0.00000  Uiso   1.00
O275   O     0.29597   0.44334   0.16562   0.00000  Uiso   1.00
N276   N     0.03008   0.56678   0.29272   0.00000  Uiso   1.00
O277   O     0.02632   0.60429   0.27863   0.00000  Uiso   1.00
O278   O     0.04301   0.56245   0.32800   0.00000  Uiso   1.00
Cl279  Cl    0.07482   0.43191   0.19131   0.00000  Uiso   1.00
Cl280  Cl    0.25832   0.56773   0.30914   0.00000  Uiso   1.00
O281   O     0.46179   0.56108   0.25000   0.00000  Uiso   1.00
O282   O     0.53821   0.43892   0.24999   0.00000  Uiso   1.00
O283   O     0.53823   0.56107   0.25000   0.00000  Uiso   1.00
O284   O     0.46177   0.43893   0.25000   0.00000  Uiso   1.00
C285   C     0.50032   0.57979   0.24931   0.00000  Uiso   1.00
C286   C     0.49976   0.42020   0.25048   0.00000  Uiso   1.00
O287   O     0.43994   0.50001   0.31612   0.00000  Uiso   1.00
O288   O     0.56006   0.49999   0.18387   0.00000  Uiso   1.00
O289   O     0.51639   0.50000   0.31612   0.00000  Uiso   1.00
O290   O     0.48361   0.50000   0.18388   0.00000  Uiso   1.00
C291   C     0.46975   0.49909   0.33781   0.00000  Uiso   1.00
C292   C     0.53031   0.49932   0.16212   0.00000  Uiso   1.00
Zn293  Zn    0.44896   0.50001   0.25000   0.00000  Uiso   1.00
Zn294  Zn    0.55104   0.49999   0.25000   0.00000  Uiso   1.00
C295   C     0.45187   0.49085   0.38750   0.00000  Uiso   1.00
C296   C     0.54950   0.49691   0.11132   0.00000  Uiso   1.00
C297   C     0.40129   0.45142   0.45341   0.00000  Uiso   1.00
C298   C     0.61299   0.50808   0.03666   0.00000  Uiso   1.00
C299   C     0.41111   0.46639   0.40887   0.00000  Uiso   1.00
C300   C     0.59753   0.50646   0.08495   0.00000  Uiso   1.00
C301   C     0.48194   0.50077   0.41107   0.00000  Uiso   1.00
C302   C     0.51848   0.48524   0.08911   0.00000  Uiso   1.00
C303   C     0.47661   0.48151   0.45277   0.00000  Uiso   1.00
C304   C     0.53343   0.48555   0.04067   0.00000  Uiso   1.00
C305   C     0.43469   0.45740   0.47529   0.00000  Uiso   1.00
C306   C     0.58036   0.50046   0.01426   0.00000  Uiso   1.00
C307   C     0.51225   0.48586   0.47228   0.00000  Uiso   1.00
C308   C     0.50133   0.47412   0.01854   0.00000  Uiso   1.00
C309   C     0.45961   0.45004   0.04071   0.00000  Uiso   1.00
C310   C     0.55903   0.50033   0.44626   0.00000  Uiso   1.00
C311   C     0.42763   0.43989   0.01872   0.00000  Uiso   1.00
C312   C     0.59313   0.50719   0.46638   0.00000  Uiso   1.00
H313   H     0.48153   0.47831   0.11031   0.00000  Uiso   1.00
H314   H     0.51056   0.52273   0.39514   0.00000  Uiso   1.00
H315   H     0.62258   0.51417   0.10167   0.00000  Uiso   1.00
H316   H     0.38804   0.45735   0.39050   0.00000  Uiso   1.00
H317   H     0.36831   0.43419   0.46959   0.00000  Uiso   1.00
H318   H     0.65020   0.51607   0.01748   0.00000  Uiso   1.00
H319   H     0.45335   0.43582   0.07377   0.00000  Uiso   1.00
H320   H     0.57061   0.50544   0.40938   0.00000  Uiso   1.00
C321   C     0.53860   0.64497   0.21551   0.00000  Uiso   1.00
C322   C     0.46144   0.35496   0.28384   0.00000  Uiso   1.00
C323   C     0.53777   0.35476   0.21665   0.00000  Uiso   1.00
C324   C     0.46235   0.64523   0.28277   0.00000  Uiso   1.00
H325   H     0.56626   0.37170   0.19058   0.00000  Uiso   1.00
H326   H     0.43382   0.62837   0.30883   0.00000  Uiso   1.00
C327   C     0.49952   0.37604   0.25067   0.00000  Uiso   1.00
C328   C     0.50061   0.62394   0.24887   0.00000  Uiso   1.00
C329   C     0.65185   0.46922   0.22658   0.00000  Uiso   1.00
C330   C     0.34838   0.53130   0.27261   0.00000  Uiso   1.00
C331   C     0.36637   0.46950   0.22625   0.00000  Uiso   1.00
C332   C     0.63358   0.53044   0.27379   0.00000  Uiso   1.00
N333   N     0.38093   0.50001   0.25001   0.00000  Uiso   1.00
N334   N     0.61907   0.49999   0.24999   0.00000  Uiso   1.00
N335   N     0.38951   0.41072   0.04033   0.00000  Uiso   1.00
O336   O     0.38244   0.37935   0.01606   0.00000  Uiso   1.00
O337   O     0.36909   0.41010   0.08548   0.00000  Uiso   1.00
N338   N     0.63944   0.52299   0.43768   0.00000  Uiso   1.00
O339   O     0.65876   0.51011   0.39447   0.00000  Uiso   1.00
O340   O     0.65637   0.55655   0.45060   0.00000  Uiso   1.00
Cl341  Cl    0.58620   0.61858   0.17097   0.00000  Uiso   1.00
Cl342  Cl    0.41338   0.38112   0.32803   0.00000  Uiso   1.00
N343   N     0.63774   0.43586   0.20294   0.00000  Uiso   1.00
O344   O     0.64042   0.39722   0.21445   0.00000  Uiso   1.00
O345   O     0.62931   0.44334   0.16562   0.00000  Uiso   1.00
N346   N     0.36341   0.56678   0.29272   0.00000  Uiso   1.00
O347   O     0.35966   0.60429   0.27863   0.00000  Uiso   1.00
O348   O     0.37634   0.56245   0.32800   0.00000  Uiso   1.00
Cl349  Cl    0.40816   0.43191   0.19131   0.00000  Uiso   1.00
Cl350  Cl    0.59166   0.56773   0.30914   0.00000  Uiso   1.00
O351   O     0.79512   0.56108   0.25000   0.00000  Uiso   1.00
O352   O     0.87154   0.43892   0.24999   0.00000  Uiso   1.00
O353   O     0.87157   0.56107   0.25000   0.00000  Uiso   1.00
O354   O     0.79510   0.43893   0.25000   0.00000  Uiso   1.00
C355   C     0.83366   0.57979   0.24931   0.00000  Uiso   1.00
C356   C     0.83309   0.42020   0.25048   0.00000  Uiso   1.00
O357   O     0.77328   0.50001   0.31612   0.00000  Uiso   1.00
O358   O     0.89339   0.49999   0.18387   0.00000  Uiso   1.00
O359   O     0.84972   0.50000   0.31612   0.00000  Uiso   1.00
O360   O     0.81695   0.50000   0.18388   0.00000  Uiso   1.00
C361   C     0.80308   0.49909   0.33781   0.00000  Uiso   1.00
C362   C     0.86364   0.49932   0.16212   0.00000  Uiso   1.00
Zn363  Zn    0.78229   0.50001   0.25000   0.00000  Uiso   1.00
Zn364  Zn    0.88438   0.49999   0.25000   0.00000  Uiso   1.00
C365   C     0.78520   0.49085   0.38750   0.00000  Uiso   1.00
C366   C     0.88284   0.49691   0.11132   0.00000  Uiso   1.00
C367   C     0.73463   0.45142   0.45341   0.00000  Uiso   1.00
C368   C     0.94632   0.50808   0.03666   0.00000  Uiso   1.00
C369   C     0.74444   0.46639   0.40887   0.00000  Uiso   1.00
C370   C     0.93086   0.50646   0.08495   0.00000  Uiso   1.00
C371   C     0.81527   0.50077   0.41107   0.00000  Uiso   1.00
C372   C     0.85181   0.48524   0.08911   0.00000  Uiso   1.00
C373   C     0.80994   0.48151   0.45277   0.00000  Uiso   1.00
C374   C     0.86677   0.48555   0.04067   0.00000  Uiso   1.00
C375   C     0.76802   0.45740   0.47529   0.00000  Uiso   1.00
C376   C     0.91370   0.50046   0.01426   0.00000  Uiso   1.00
C377   C     0.84559   0.48586   0.47228   0.00000  Uiso   1.00
C378   C     0.83466   0.47412   0.01854   0.00000  Uiso   1.00
C379   C     0.79294   0.45004   0.04071   0.00000  Uiso   1.00
C380   C     0.89236   0.50033   0.44626   0.00000  Uiso   1.00
C381   C     0.76096   0.43989   0.01872   0.00000  Uiso   1.00
C382   C     0.92647   0.50719   0.46638   0.00000  Uiso   1.00
H383   H     0.81487   0.47831   0.11031   0.00000  Uiso   1.00
H384   H     0.84389   0.52273   0.39514   0.00000  Uiso   1.00
H385   H     0.95592   0.51417   0.10167   0.00000  Uiso   1.00
H386   H     0.72137   0.45735   0.39050   0.00000  Uiso   1.00
H387   H     0.70165   0.43419   0.46959   0.00000  Uiso   1.00
H388   H     0.98353   0.51607   0.01748   0.00000  Uiso   1.00
H389   H     0.78669   0.43582   0.07377   0.00000  Uiso   1.00
H390   H     0.90394   0.50544   0.40938   0.00000  Uiso   1.00
C391   C     0.87193   0.64497   0.21551   0.00000  Uiso   1.00
C392   C     0.79477   0.35496   0.28384   0.00000  Uiso   1.00
C393   C     0.87111   0.35476   0.21665   0.00000  Uiso   1.00
C394   C     0.79568   0.64523   0.28277   0.00000  Uiso   1.00
H395   H     0.89959   0.37170   0.19058   0.00000  Uiso   1.00
H396   H     0.76715   0.62837   0.30883   0.00000  Uiso   1.00
C397   C     0.83286   0.37604   0.25067   0.00000  Uiso   1.00
C398   C     0.83394   0.62394   0.24887   0.00000  Uiso   1.00
C399   C     0.98518   0.46922   0.22658   0.00000  Uiso   1.00
C400   C     0.68171   0.53130   0.27261   0.00000  Uiso   1.00
C401   C     0.69970   0.46950   0.22625   0.00000  Uiso   1.00
C402   C     0.96692   0.53044   0.27379   0.00000  Uiso   1.00
N403   N     0.71426   0.50001   0.25001   0.00000  Uiso   1.00
N404   N     0.95241   0.49999   0.24999   0.00000  Uiso   1.00
N405   N     0.72285   0.41072   0.04033   0.00000  Uiso   1.00
O406   O     0.71578   0.37935   0.01606   0.00000  Uiso   1.00
O407   O     0.70242   0.41010   0.08548   0.00000  Uiso   1.00
N408   N     0.97277   0.52299   0.43768   0.00000  Uiso   1.00
O409   O     0.99210   0.51011   0.39447   0.00000  Uiso   1.00
O410   O     0.98971   0.55655   0.45060   0.00000  Uiso   1.00
Cl411  Cl    0.91953   0.61858   0.17097   0.00000  Uiso   1.00
Cl412  Cl    0.74671   0.38112   0.32803   0.00000  Uiso   1.00
N413   N     0.97107   0.43586   0.20294   0.00000  Uiso   1.00
O414   O     0.97375   0.39722   0.21445   0.00000  Uiso   1.00
O415   O     0.96264   0.44334   0.16562   0.00000  Uiso   1.00
N416   N     0.69675   0.56678   0.29272   0.00000  Uiso   1.00
O417   O     0.69299   0.60429   0.27863   0.00000  Uiso   1.00
O418   O     0.70967   0.56245   0.32800   0.00000  Uiso   1.00
Cl419  Cl    0.74149   0.43191   0.19131   0.00000  Uiso   1.00
Cl420  Cl    0.92499   0.56773   0.30914   0.00000  Uiso   1.00
O421   O     0.12846   0.89442   0.25000   0.00000  Uiso   1.00
O422   O     0.20488   0.77225   0.24999   0.00000  Uiso   1.00
O423   O     0.20490   0.89441   0.25000   0.00000  Uiso   1.00
O424   O     0.12843   0.77226   0.25000   0.00000  Uiso   1.00
C425   C     0.16699   0.91312   0.24931   0.00000  Uiso   1.00
C426   C     0.16643   0.75353   0.25048   0.00000  Uiso   1.00
O427   O     0.10661   0.83334   0.31612   0.00000  Uiso   1.00
O428   O     0.22672   0.83333   0.18387   0.00000  Uiso   1.00
O429   O     0.18305   0.83333   0.31612   0.00000  Uiso   1.00
O430   O     0.15028   0.83334   0.18388   0.00000  Uiso   1.00
C431   C     0.13642   0.83242   0.33781   0.00000  Uiso   1.00
C432   C     0.19698   0.83266   0.16212   0.00000  Uiso   1.00
Zn433  Zn    0.11562   0.83334   0.25000   0.00000  Uiso   1.00
Zn434  Zn    0.21771   0.83333   0.25000   0.00000  Uiso   1.00
C435   C     0.11853   0.82418   0.38750   0.00000  Uiso   1.00
C436   C     0.21617   0.83024   0.11132   0.00000  Uiso   1.00
C437   C     0.06796   0.78476   0.45341   0.00000  Uiso   1.00
C438   C     0.27965   0.84142   0.03666   0.00000  Uiso   1.00
C439   C     0.07777   0.79973   0.40887   0.00000  Uiso   1.00
C440   C     0.26419   0.83980   0.08495   0.00000  Uiso   1.00
C441   C     0.14860   0.83411   0.41107   0.00000  Uiso   1.00
C442   C     0.18514   0.81857   0.08911   0.00000  Uiso   1.00
C443   C     0.14328   0.81485   0.45277   0.00000  Uiso   1.00
C444   C     0.20010   0.81889   0.04067   0.00000  Uiso   1.00
C445   C     0.10135   0.79074   0.47529   0.00000  Uiso   1.00
C446   C     0.24703   0.83379   0.01426   0.00000  Uiso   1.00
C447   C     0.17892   0.81919   0.47228   0.00000  Uiso   1.00
C448   C     0.16799   0.80746   0.01854   0.00000  Uiso   1.00
C449   C     0.12628   0.78338   0.04071   0.00000  Uiso   1.00
C450   C     0.22569   0.83366   0.44626   0.00000  Uiso   1.00
C451   C     0.09430   0.77323   0.01872   0.00000  Uiso   1.00
C452   C     0.25980   0.84052   0.46638   0.00000  Uiso   1.00
H453   H     0.14820   0.81164   0.11031   0.00000  Uiso   1.00
H454   H     0.17722   0.85606   0.39514   0.00000  Uiso   1.00
H455   H     0.28925   0.84750   0.10167   0.00000  Uiso   1.00
H456   H     0.05471   0.79069   0.39050   0.00000  Uiso   1.00
H457   H     0.03498   0.76753   0.46959   0.00000  Uiso   1.00
H458   H     0.31686   0.84940   0.01748   0.00000  Uiso   1.00
H459   H     0.12002   0.76915   0.07377   0.00000  Uiso   1.00
H460   H     0.23727   0.83878   0.40938   0.00000  Uiso   1.00
C461   C     0.20527   0.97830   0.21551   0.00000  Uiso   1.00
C462   C     0.12810   0.68829   0.28384   0.00000  Uiso   1.00
C463   C     0.20444   0.68810   0.21665   0.00000  Uiso   1.00
C464   C     0.12901   0.97856   0.28277   0.00000  Uiso   1.00
H465   H     0.23292   0.70503   0.19058   0.00000  Uiso   1.00
H466   H     0.10049   0.96170   0.30883   0.00000  Uiso   1.00
C467   C     0.16619   0.70937   0.25067   0.00000  Uiso   1.00
C468   C     0.16727   0.95727   0.24887   0.00000  Uiso   1.00
C469   C     0.31851   0.80255   0.22658   0.00000  Uiso   1.00
C470   C     0.01505   0.86463   0.27261   0.00000  Uiso   1.00
C471   C     0.03303   0.80283   0.22625   0.00000  Uiso   1.00
C472   C     0.30025   0.86378   0.27379   0.00000  Uiso   1.00
N473   N     0.04759   0.83334   0.25001   0.00000  Uiso   1.00
N474   N     0.28574   0.83332   0.24999   0.00000  Uiso   1.00
N475   N     0.05618   0.74405   0.04033   0.00000  Uiso   1.00
O476   O     0.04911   0.71268   0.01606   0.00000  Uiso   1.00
O477   O     0.03576   0.74344   0.08548   0.00000  Uiso   1.00
N478   N     0.30610   0.85632   0.43768   0.00000  Uiso   1.00
O479   O     0.32543   0.84344   0.39447   0.00000  Uiso   1.00
O480   O     0.32304   0.88988   0.45060   0.00000  Uiso   1.00
Cl481  Cl    0.25287   0.95191   0.17097   0.00000  Uiso   1.00
Cl482  Cl    0.08004   0.71445   0.32803   0.00000  Uiso   1.00
N483   N     0.30441   0.76920   0.20294   0.00000  Uiso   1.00
O484   O     0.30709   0.73055   0.21445   0.00000  Uiso   1.00
O485   O     0.29597   0.77667   0.16562   0.00000  Uiso   1.00
N486   N     0.03008   0.90011   0.29272   0.00000  Uiso   1.00
O487   O     0.02632   0.93762   0.27863   0.00000  Uiso   1.00
O488   O     0.04301   0.89578   0.32800   0.00000  Uiso   1.00
Cl489  Cl    0.07482   0.76525   0.19131   0.00000  Uiso   1.00
Cl490  Cl    0.25832   0.90107   0.30914   0.00000  Uiso   1.00
O491   O     0.46179   0.89442   0.25000   0.00000  Uiso   1.00
O492   O     0.53821   0.77225   0.24999   0.00000  Uiso   1.00
O493   O     0.53823   0.89441   0.25000   0.00000  Uiso   1.00
O494   O     0.46177   0.77226   0.25000   0.00000  Uiso   1.00
C495   C     0.50032   0.91312   0.24931   0.00000  Uiso   1.00
C496   C     0.49976   0.75353   0.25048   0.00000  Uiso   1.00
O497   O     0.43994   0.83334   0.31612   0.00000  Uiso   1.00
O498   O     0.56006   0.83333   0.18387   0.00000  Uiso   1.00
O499   O     0.51639   0.83333   0.31612   0.00000  Uiso   1.00
O500   O     0.48361   0.83334   0.18388   0.00000  Uiso   1.00
C501   C     0.46975   0.83242   0.33781   0.00000  Uiso   1.00
C502   C     0.53031   0.83266   0.16212   0.00000  Uiso   1.00
Zn503  Zn    0.44896   0.83334   0.25000   0.00000  Uiso   1.00
Zn504  Zn    0.55104   0.83333   0.25000   0.00000  Uiso   1.00
C505   C     0.45187   0.82418   0.38750   0.00000  Uiso   1.00
C506   C     0.54950   0.83024   0.11132   0.00000  Uiso   1.00
C507   C     0.40129   0.78476   0.45341   0.00000  Uiso   1.00
C508   C     0.61299   0.84142   0.03666   0.00000  Uiso   1.00
C509   C     0.41111   0.79973   0.40887   0.00000  Uiso   1.00
C510   C     0.59753   0.83980   0.08495   0.00000  Uiso   1.00
C511   C     0.48194   0.83411   0.41107   0.00000  Uiso   1.00
C512   C     0.51848   0.81857   0.08911   0.00000  Uiso   1.00
C513   C     0.47661   0.81485   0.45277   0.00000  Uiso   1.00
C514   C     0.53343   0.81889   0.04067   0.00000  Uiso   1.00
C515   C     0.43469   0.79074   0.47529   0.00000  Uiso   1.00
C516   C     0.58036   0.83379   0.01426   0.00000  Uiso   1.00
C517   C     0.51225   0.81919   0.47228   0.00000  Uiso   1.00
C518   C     0.50133   0.80746   0.01854   0.00000  Uiso   1.00
C519   C     0.45961   0.78338   0.04071   0.00000  Uiso   1.00
C520   C     0.55903   0.83366   0.44626   0.00000  Uiso   1.00
C521   C     0.42763   0.77323   0.01872   0.00000  Uiso   1.00
C522   C     0.59313   0.84052   0.46638   0.00000  Uiso   1.00
H523   H     0.48153   0.81164   0.11031   0.00000  Uiso   1.00
H524   H     0.51056   0.85606   0.39514   0.00000  Uiso   1.00
H525   H     0.62258   0.84750   0.10167   0.00000  Uiso   1.00
H526   H     0.38804   0.79069   0.39050   0.00000  Uiso   1.00
H527   H     0.36831   0.76753   0.46959   0.00000  Uiso   1.00
H528   H     0.65020   0.84940   0.01748   0.00000  Uiso   1.00
H529   H     0.45335   0.76915   0.07377   0.00000  Uiso   1.00
H530   H     0.57061   0.83878   0.40938   0.00000  Uiso   1.00
C531   C     0.53860   0.97830   0.21551   0.00000  Uiso   1.00
C532   C     0.46144   0.68829   0.28384   0.00000  Uiso   1.00
C533   C     0.53777   0.68810   0.21665   0.00000  Uiso   1.00
C534   C     0.46235   0.97856   0.28277   0.00000  Uiso   1.00
H535   H     0.56626   0.70503   0.19058   0.00000  Uiso   1.00
H536   H     0.43382   0.96170   0.30883   0.00000  Uiso   1.00
C537   C     0.49952   0.70937   0.25067   0.00000  Uiso   1.00
C538   C     0.50061   0.95727   0.24887   0.00000  Uiso   1.00
C539   C     0.65185   0.80255   0.22658   0.00000  Uiso   1.00
C540   C     0.34838   0.86463   0.27261   0.00000  Uiso   1.00
C541   C     0.36637   0.80283   0.22625   0.00000  Uiso   1.00
C542   C     0.63358   0.86378   0.27379   0.00000  Uiso   1.00
N543   N     0.38093   0.83334   0.25001   0.00000  Uiso   1.00
N544   N     0.61907   0.83332   0.24999   0.00000  Uiso   1.00
N545   N     0.38951   0.74405   0.04033   0.00000  Uiso   1.00
O546   O     0.38244   0.71268   0.01606   0.00000  Uiso   1.00
O547   O     0.36909   0.74344   0.08548   0.00000  Uiso   1.00
N548   N     0.63944   0.85632   0.43768   0.00000  Uiso   1.00
O549   O     0.65876   0.84344   0.39447   0.00000  Uiso   1.00
O550   O     0.65637   0.88988   0.45060   0.00000  Uiso   1.00
Cl551  Cl    0.58620   0.95191   0.17097   0.00000  Uiso   1.00
Cl552  Cl    0.41338   0.71445   0.32803   0.00000  Uiso   1.00
N553   N     0.63774   0.76920   0.20294   0.00000  Uiso   1.00
O554   O     0.64042   0.73055   0.21445   0.00000  Uiso   1.00
O555   O     0.62931   0.77667   0.16562   0.00000  Uiso   1.00
N556   N     0.36341   0.90011   0.29272   0.00000  Uiso   1.00
O557   O     0.35966   0.93762   0.27863   0.00000  Uiso   1.00
O558   O     0.37634   0.89578   0.32800   0.00000  Uiso   1.00
Cl559  Cl    0.40816   0.76525   0.19131   0.00000  Uiso   1.00
Cl560  Cl    0.59166   0.90107   0.30914   0.00000  Uiso   1.00
O561   O     0.79512   0.89442   0.25000   0.00000  Uiso   1.00
O562   O     0.87154   0.77225   0.24999   0.00000  Uiso   1.00
O563   O     0.87157   0.89441   0.25000   0.00000  Uiso   1.00
O564   O     0.79510   0.77226   0.25000   0.00000  Uiso   1.00
C565   C     0.83366   0.91312   0.24931   0.00000  Uiso   1.00
C566   C     0.83309   0.75353   0.25048   0.00000  Uiso   1.00
O567   O     0.77328   0.83334   0.31612   0.00000  Uiso   1.00
O568   O     0.89339   0.83333   0.18387   0.00000  Uiso   1.00
O569   O     0.84972   0.83333   0.31612   0.00000  Uiso   1.00
O570   O     0.81695   0.83334   0.18388   0.00000  Uiso   1.00
C571   C     0.80308   0.83242   0.33781   0.00000  Uiso   1.00
C572   C     0.86364   0.83266   0.16212   0.00000  Uiso   1.00
Zn573  Zn    0.78229   0.83334   0.25000   0.00000  Uiso   1.00
Zn574  Zn    0.88438   0.83333   0.25000   0.00000  Uiso   1.00
C575   C     0.78520   0.82418   0.38750   0.00000  Uiso   1.00
C576   C     0.88284   0.83024   0.11132   0.00000  Uiso   1.00
C577   C     0.73463   0.78476   0.45341   0.00000  Uiso   1.00
C578   C     0.94632   0.84142   0.03666   0.00000  Uiso   1.00
C579   C     0.74444   0.79973   0.40887   0.00000  Uiso   1.00
C580   C     0.93086   0.83980   0.08495   0.00000  Uiso   1.00
C581   C     0.81527   0.83411   0.41107   0.00000  Uiso   1.00
C582   C     0.85181   0.81857   0.08911   0.00000  Uiso   1.00
C583   C     0.80994   0.81485   0.45277   0.00000  Uiso   1.00
C584   C     0.86677   0.81889   0.04067   0.00000  Uiso   1.00
C585   C     0.76802   0.79074   0.47529   0.00000  Uiso   1.00
C586   C     0.91370   0.83379   0.01426   0.00000  Uiso   1.00
C587   C     0.84559   0.81919   0.47228   0.00000  Uiso   1.00
C588   C     0.83466   0.80746   0.01854   0.00000  Uiso   1.00
C589   C     0.79294   0.78338   0.04071   0.00000  Uiso   1.00
C590   C     0.89236   0.83366   0.44626   0.00000  Uiso   1.00
C591   C     0.76096   0.77323   0.01872   0.00000  Uiso   1.00
C592   C     0.92647   0.84052   0.46638   0.00000  Uiso   1.00
H593   H     0.81487   0.81164   0.11031   0.00000  Uiso   1.00
H594   H     0.84389   0.85606   0.39514   0.00000  Uiso   1.00
H595   H     0.95592   0.84750   0.10167   0.00000  Uiso   1.00
H596   H     0.72137   0.79069   0.39050   0.00000  Uiso   1.00
H597   H     0.70165   0.76753   0.46959   0.00000  Uiso   1.00
H598   H     0.98353   0.84940   0.01748   0.00000  Uiso   1.00
H599   H     0.78669   0.76915   0.07377   0.00000  Uiso   1.00
H600   H     0.90394   0.83878   0.40938   0.00000  Uiso   1.00
C601   C     0.87193   0.97830   0.21551   0.00000  Uiso   1.00
C602   C     0.79477   0.68829   0.28384   0.00000  Uiso   1.00
C603   C     0.87111   0.68810   0.21665   0.00000  Uiso   1.00
C604   C     0.79568   0.97856   0.28277   0.00000  Uiso   1.00
H605   H     0.89959   0.70503   0.19058   0.00000  Uiso   1.00
H606   H     0.76715   0.96170   0.30883   0.00000  Uiso   1.00
C607   C     0.83286   0.70937   0.25067   0.00000  Uiso   1.00
C608   C     0.83394   0.95727   0.24887   0.00000  Uiso   1.00
C609   C     0.98518   0.80255   0.22658   0.00000  Uiso   1.00
C610   C     0.68171   0.86463   0.27261   0.00000  Uiso   1.00
C611   C     0.69970   0.80283   0.22625   0.00000  Uiso   1.00
C612   C     0.96692   0.86378   0.27379   0.00000  Uiso   1.00
N613   N     0.71426   0.83334   0.25001   0.00000  Uiso   1.00
N614   N     0.95241   0.83332   0.24999   0.00000  Uiso   1.00
N615   N     0.72285   0.74405   0.04033   0.00000  Uiso   1.00
O616   O     0.71578   0.71268   0.01606   0.00000  Uiso   1.00
O617   O     0.70242   0.74344   0.08548   0.00000  Uiso   1.00
N618   N     0.97277   0.85632   0.43768   0.00000  Uiso   1.00
O619   O     0.99210   0.84344   0.39447   0.00000  Uiso   1.00
O620   O     0.98971   0.88988   0.45060   0.00000  Uiso   1.00
Cl621  Cl    0.91953   0.95191   0.17097   0.00000  Uiso   1.00
Cl622  Cl    0.74671   0.71445   0.32803   0.00000  Uiso   1.00
N623   N     0.97107   0.76920   0.20294   0.00000  Uiso   1.00
O624   O     0.97375   0.73055   0.21445   0.00000  Uiso   1.00
O625   O     0.96264   0.77667   0.16562   0.00000  Uiso   1.00
N626   N     0.69675   0.90011   0.29272   0.00000  Uiso   1.00
O627   O     0.69299   0.93762   0.27863   0.00000  Uiso   1.00
O628   O     0.70967   0.89578   0.32800   0.00000  Uiso   1.00
Cl629  Cl    0.74149   0.76525   0.19131   0.00000  Uiso   1.00
Cl630  Cl    0.92499   0.90107   0.30914   0.00000  Uiso   1.00
O631   O     0.12846   0.22775   0.75000   0.00000  Uiso   1.00
O632   O     0.20488   0.10558   0.74999   0.00000  Uiso   1.00
O633   O     0.20490   0.22774   0.75000   0.00000  Uiso   1.00
O634   O     0.12843   0.10559   0.75000   0.00000  Uiso   1.00
C635   C     0.16699   0.24645   0.74931   0.00000  Uiso   1.00
C636   C     0.16643   0.08687   0.75048   0.00000  Uiso   1.00
O637   O     0.10661   0.16667   0.81612   0.00000  Uiso   1.00
O638   O     0.22672   0.16666   0.68387   0.00000  Uiso   1.00
O639   O     0.18305   0.16666   0.81612   0.00000  Uiso   1.00
O640   O     0.15028   0.16667   0.68388   0.00000  Uiso   1.00
C641   C     0.13642   0.16575   0.83781   0.00000  Uiso   1.00
C642   C     0.19698   0.16599   0.66212   0.00000  Uiso   1.00
Zn643  Zn    0.11562   0.16667   0.75000   0.00000  Uiso   1.00
Zn644  Zn    0.21771   0.16666   0.75000   0.00000  Uiso   1.00
C645   C     0.11853   0.15752   0.88750   0.00000  Uiso   1.00
C646   C     0.21617   0.16358   0.61132   0.00000  Uiso   1.00
C647   C     0.06796   0.11809   0.95341   0.00000  Uiso   1.00
C648   C     0.27965   0.17475   0.53666   0.00000  Uiso   1.00
C649   C     0.07777   0.13306   0.90887   0.00000  Uiso   1.00
C650   C     0.26419   0.17313   0.58495   0.00000  Uiso   1.00
C651   C     0.14860   0.16744   0.91107   0.00000  Uiso   1.00
C652   C     0.18514   0.15190   0.58911   0.00000  Uiso   1.00
C653   C     0.14328   0.14818   0.95277   0.00000  Uiso   1.00
C654   C     0.20010   0.15222   0.54067   0.00000  Uiso   1.00
C655   C     0.10135   0.12407   0.97529   0.00000  Uiso   1.00
C656   C     0.24703   0.16712   0.51426   0.00000  Uiso   1.00
C657   C     0.17892   0.15253   0.97228   0.00000  Uiso   1.00
C658   C     0.16799   0.14079   0.51854   0.00000  Uiso   1.00
C659   C     0.12628   0.11671   0.54071   0.00000  Uiso   1.00
C660   C     0.22569   0.16699   0.94626   0.00000  Uiso   1.00
C661   C     0.09430   0.10656   0.51872   0.00000  Uiso   1.00
C662   C     0.25980   0.17386   0.96638   0.00000  Uiso   1.00
H663   H     0.14820   0.14497   0.61031   0.00000  Uiso   1.00
H664   H     0.17722   0.18940   0.89514   0.00000  Uiso   1.00
H665   H     0.28925   0.18084   0.60167   0.00000  Uiso   1.00
H666   H     0.05471   0.12402   0.89050   0.00000  Uiso   1.00
H667   H     0.03498   0.10086   0.96959   0.00000  Uiso   1.00
H668   H     0.31686   0.18273   0.51748   0.00000  Uiso   1.00
H669   H     0.12002   0.10249   0.57377   0.00000  Uiso   1.00
H670   H     0.23727   0.17211   0.90938   0.00000  Uiso   1.00
C671   C     0.20527   0.31164   0.71551   0.00000  Uiso   1.00
C672   C     0.12810   0.02163   0.78384   0.00000  Uiso   1.00
C673   C     0.20444   0.02143   0.71665   0.00000  Uiso   1.00
C674   C     0.12901   0.31189   0.78277   0.00000  Uiso   1.00
H675   H     0.23292   0.03837   0.69058   0.00000  Uiso   1.00
H676   H     0.10049   0.29504   0.80883   0.00000  Uiso   1.00
C677   C     0.16619   0.04270   0.75067   0.00000  Uiso   1.00
C678   C     0.16727   0.29061   0.74887   0.00000  Uiso   1.00
C679   C     0.31851   0.13589   0.72658   0.00000  Uiso   1.00
C680   C     0.01505   0.19797   0.77261   0.00000  Uiso   1.00
C681   C     0.03303   0.13616   0.72625   0.00000  Uiso   1.00
C682   C     0.30025   0.19711   0.77379   0.00000  Uiso   1.00
N683   N     0.04759   0.16668   0.75001   0.00000  Uiso   1.00
N684   N     0.28574   0.16666   0.74999   0.00000  Uiso   1.00
N685   N     0.05618   0.07738   0.54033   0.00000  Uiso   1.00
O686   O     0.04911   0.04602   0.51606   0.00000  Uiso   1.00
O687   O     0.03576   0.07677   0.58548   0.00000  Uiso   1.00
N688   N     0.30610   0.18965   0.93768   0.00000  Uiso   1.00
O689   O     0.32543   0.17677   0.89447   0.00000  Uiso   1.00
O690   O     0.32304   0.22321   0.95060   0.00000  Uiso   1.00
Cl691  Cl    0.25287   0.28525   0.67097   0.00000  Uiso   1.00
Cl692  Cl    0.08004   0.04778   0.82803   0.00000  Uiso   1.00
N693   N     0.30441   0.10253   0.70294   0.00000  Uiso   1.00
O694   O     0.30709   0.06389   0.71445   0.00000  Uiso   1.00
O695   O     0.29597   0.11001   0.66562   0.00000  Uiso   1.00
N696   N     0.03008   0.23345   0.79272   0.00000  Uiso   1.00
O697   O     0.02632   0.27096   0.77863   0.00000  Uiso   1.00
O698   O     0.04301   0.22911   0.82800   0.00000  Uiso   1.00
Cl699  Cl    0.07482   0.09858   0.69131   0.00000  Uiso   1.00
Cl700  Cl    0.25832   0.23440   0.80914   0.00000  Uiso   1.00
O701   O     0.46179   0.22775   0.75000   0.00000  Uiso   1.00
O702   O     0.53821   0.10558   0.74999   0.00000  Uiso   1.00
O703   O     0.53823   0.22774   0.75000   0.00000  Uiso   1.00
O704   O     0.46177   0.10559   0.75000   0.00000  Uiso   1.00
C705   C     0.50032   0.24645   0.74931   0.00000  Uiso   1.00
C706   C     0.49976   0.08687   0.75048   0.00000  Uiso   1.00
O707   O     0.43994   0.16667   0.81612   0.00000  Uiso   1.00
O708   O     0.56006   0.16666   0.68387   0.00000  Uiso   1.00
O709   O     0.51639   0.16666   0.81612   0.00000  Uiso   1.00
O710   O     0.48361   0.16667   0.68388   0.00000  Uiso   1.00
C711   C     0.46975   0.16575   0.83781   0.00000  Uiso   1.00
C712   C     0.53031   0.16599   0.66212   0.00000  Uiso   1.00
Zn713  Zn    0.44896   0.16667   0.75000   0.00000  Uiso   1.00
Zn714  Zn    0.55104   0.16666   0.75000   0.00000  Uiso   1.00
C715   C     0.45187   0.15752   0.88750   0.00000  Uiso   1.00
C716   C     0.54950   0.16358   0.61132   0.00000  Uiso   1.00
C717   C     0.40129   0.11809   0.95341   0.00000  Uiso   1.00
C718   C     0.61299   0.17475   0.53666   0.00000  Uiso   1.00
C719   C     0.41111   0.13306   0.90887   0.00000  Uiso   1.00
C720   C     0.59753   0.17313   0.58495   0.00000  Uiso   1.00
C721   C     0.48194   0.16744   0.91107   0.00000  Uiso   1.00
C722   C     0.51848   0.15190   0.58911   0.00000  Uiso   1.00
C723   C     0.47661   0.14818   0.95277   0.00000  Uiso   1.00
C724   C     0.53343   0.15222   0.54067   0.00000  Uiso   1.00
C725   C     0.43469   0.12407   0.97529   0.00000  Uiso   1.00
C726   C     0.58036   0.16712   0.51426   0.00000  Uiso   1.00
C727   C     0.51225   0.15253   0.97228   0.00000  Uiso   1.00
C728   C     0.50133   0.14079   0.51854   0.00000  Uiso   1.00
C729   C     0.45961   0.11671   0.54071   0.00000  Uiso   1.00
C730   C     0.55903   0.16699   0.94626   0.00000  Uiso   1.00
C731   C     0.42763   0.10656   0.51872   0.00000  Uiso   1.00
C732   C     0.59313   0.17386   0.96638   0.00000  Uiso   1.00
H733   H     0.48153   0.14497   0.61031   0.00000  Uiso   1.00
H734   H     0.51056   0.18940   0.89514   0.00000  Uiso   1.00
H735   H     0.62258   0.18084   0.60167   0.00000  Uiso   1.00
H736   H     0.38804   0.12402   0.89050   0.00000  Uiso   1.00
H737   H     0.36831   0.10086   0.96959   0.00000  Uiso   1.00
H738   H     0.65020   0.18273   0.51748   0.00000  Uiso   1.00
H739   H     0.45335   0.10249   0.57377   0.00000  Uiso   1.00
H740   H     0.57061   0.17211   0.90938   0.00000  Uiso   1.00
C741   C     0.53860   0.31164   0.71551   0.00000  Uiso   1.00
C742   C     0.46144   0.02163   0.78384   0.00000  Uiso   1.00
C743   C     0.53777   0.02143   0.71665   0.00000  Uiso   1.00
C744   C     0.46235   0.31189   0.78277   0.00000  Uiso   1.00
H745   H     0.56626   0.03837   0.69058   0.00000  Uiso   1.00
H746   H     0.43382   0.29504   0.80883   0.00000  Uiso   1.00
C747   C     0.49952   0.04270   0.75067   0.00000  Uiso   1.00
C748   C     0.50061   0.29061   0.74887   0.00000  Uiso   1.00
C749   C     0.65185   0.13589   0.72658   0.00000  Uiso   1.00
C750   C     0.34838   0.19797   0.77261   0.00000  Uiso   1.00
C751   C     0.36637   0.13616   0.72625   0.00000  Uiso   1.00
C752   C     0.63358   0.19711   0.77379   0.00000  Uiso   1.00
N753   N     0.38093   0.16668   0.75001   0.00000  Uiso   1.00
N754   N     0.61907   0.16666   0.74999   0.00000  Uiso   1.00
N755   N     0.38951   0.07738   0.54033   0.00000  Uiso   1.00
O756   O     0.38244   0.04602   0.51606   0.00000  Uiso   1.00
O757   O     0.36909   0.07677   0.58548   0.00000  Uiso   1.00
N758   N     0.63944   0.18965   0.93768   0.00000  Uiso   1.00
O759   O     0.65876   0.17677   0.89447   0.00000  Uiso   1.00
O760   O     0.65637   0.22321   0.95060   0.00000  Uiso   1.00
Cl761  Cl    0.58620   0.28525   0.67097   0.00000  Uiso   1.00
Cl762  Cl    0.41338   0.04778   0.82803   0.00000  Uiso   1.00
N763   N     0.63774   0.10253   0.70294   0.00000  Uiso   1.00
O764   O     0.64042   0.06389   0.71445   0.00000  Uiso   1.00
O765   O     0.62931   0.11001   0.66562   0.00000  Uiso   1.00
N766   N     0.36341   0.23345   0.79272   0.00000  Uiso   1.00
O767   O     0.35966   0.27096   0.77863   0.00000  Uiso   1.00
O768   O     0.37634   0.22911   0.82800   0.00000  Uiso   1.00
Cl769  Cl    0.40816   0.09858   0.69131   0.00000  Uiso   1.00
Cl770  Cl    0.59166   0.23440   0.80914   0.00000  Uiso   1.00
O771   O     0.79512   0.22775   0.75000   0.00000  Uiso   1.00
O772   O     0.87154   0.10558   0.74999   0.00000  Uiso   1.00
O773   O     0.87157   0.22774   0.75000   0.00000  Uiso   1.00
O774   O     0.79510   0.10559   0.75000   0.00000  Uiso   1.00
C775   C     0.83366   0.24645   0.74931   0.00000  Uiso   1.00
C776   C     0.83309   0.08687   0.75048   0.00000  Uiso   1.00
O777   O     0.77328   0.16667   0.81612   0.00000  Uiso   1.00
O778   O     0.89339   0.16666   0.68387   0.00000  Uiso   1.00
O779   O     0.84972   0.16666   0.81612   0.00000  Uiso   1.00
O780   O     0.81695   0.16667   0.68388   0.00000  Uiso   1.00
C781   C     0.80308   0.16575   0.83781   0.00000  Uiso   1.00
C782   C     0.86364   0.16599   0.66212   0.00000  Uiso   1.00
Zn783  Zn    0.78229   0.16667   0.75000   0.00000  Uiso   1.00
Zn784  Zn    0.88438   0.16666   0.75000   0.00000  Uiso   1.00
C785   C     0.78520   0.15752   0.88750   0.00000  Uiso   1.00
C786   C     0.88284   0.16358   0.61132   0.00000  Uiso   1.00
C787   C     0.73463   0.11809   0.95341   0.00000  Uiso   1.00
C788   C     0.94632   0.17475   0.53666   0.00000  Uiso   1.00
C789   C     0.74444   0.13306   0.90887   0.00000  Uiso   1.00
C790   C     0.93086   0.17313   0.58495   0.00000  Uiso   1.00
C791   C     0.81527   0.16744   0.91107   0.00000  Uiso   1.00
C792   C     0.85181   0.15190   0.58911   0.00000  Uiso   1.00
C793   C     0.80994   0.14818   0.95277   0.00000  Uiso   1.00
C794   C     0.86677   0.15222   0.54067   0.00000  Uiso   1.00
C795   C     0.76802   0.12407   0.97529   0.00000  Uiso   1.00
C796   C     0.91370   0.16712   0.51426   0.00000  Uiso   1.00
C797   C     0.84559   0.15253   0.97228   0.00000  Uiso   1.00
C798   C     0.83466   0.14079   0.51854   0.00000  Uiso   1.00
C799   C     0.79294   0.11671   0.54071   0.00000  Uiso   1.00
C800   C     0.89236   0.16699   0.94626   0.00000  Uiso   1.00
C801   C     0.76096   0.10656   0.51872   0.00000  Uiso   1.00
C802   C     0.92647   0.17386   0.96638   0.00000  Uiso   1.00
H803   H     0.81487   0.14497   0.61031   0.00000  Uiso   1.00
H804   H     0.84389   0.18940   0.89514   0.00000  Uiso   1.00
H805   H     0.95592   0.18084   0.60167   0.00000  Uiso   1.00
H806   H     0.72137   0.12402   0.89050   0.00000  Uiso   1.00
H807   H     0.70165   0.10086   0.96959   0.00000  Uiso   1.00
H808   H     0.98353   0.18273   0.51748   0.00000  Uiso   1.00
H809   H     0.78669   0.10249   0.57377   0.00000  Uiso   1.00
H810   H     0.90394   0.17211   0.90938   0.00000  Uiso   1.00
C811   C     0.87193   0.31164   0.71551   0.00000  Uiso   1.00
C812   C     0.79477   0.02163   0.78384   0.00000  Uiso   1.00
C813   C     0.87111   0.02143   0.71665   0.00000  Uiso   1.00
C814   C     0.79568   0.31189   0.78277   0.00000  Uiso   1.00
H815   H     0.89959   0.03837   0.69058   0.00000  Uiso   1.00
H816   H     0.76715   0.29504   0.80883   0.00000  Uiso   1.00
C817   C     0.83286   0.04270   0.75067   0.00000  Uiso   1.00
C818   C     0.83394   0.29061   0.74887   0.00000  Uiso   1.00
C819   C     0.98518   0.13589   0.72658   0.00000  Uiso   1.00
C820   C     0.68171   0.19797   0.77261   0.00000  Uiso   1.00
C821   C     0.69970   0.13616   0.72625   0.00000  Uiso   1.00
C822   C     0.96692   0.19711   0.77379   0.00000  Uiso   1.00
N823   N     0.71426   0.16668   0.75001   0.00000  Uiso   1.00
N824   N     0.95241   0.16666   0.74999   0.00000  Uiso   1.00
N825   N     0.72285   0.07738   0.54033   0.00000  Uiso   1.00
O826   O     0.71578   0.04602   0.51606   0.00000  Uiso   1.00
O827   O     0.70242   0.07677   0.58548   0.00000  Uiso   1.00
N828   N     0.97277   0.18965   0.93768   0.00000  Uiso   1.00
O829   O     0.99210   0.17677   0.89447   0.00000  Uiso   1.00
O830   O     0.98971   0.22321   0.95060   0.00000  Uiso   1.00
Cl831  Cl    0.91953   0.28525   0.67097   0.00000  Uiso   1.00
Cl832  Cl    0.74671   0.04778   0.82803   0.00000  Uiso   1.00
N833   N     0.97107   0.10253   0.70294   0.00000  Uiso   1.00
O834   O     0.97375   0.06389   0.71445   0.00000  Uiso   1.00
O835   O     0.96264   0.11001   0.66562   0.00000  Uiso   1.00
N836   N     0.69675   0.23345   0.79272   0.00000  Uiso   1.00
O837   O     0.69299   0.27096   0.77863   0.00000  Uiso   1.00
O838   O     0.70967   0.22911   0.82800   0.00000  Uiso   1.00
Cl839  Cl    0.74149   0.09858   0.69131   0.00000  Uiso   1.00
Cl840  Cl    0.92499   0.23440   0.80914   0.00000  Uiso   1.00
O841   O     0.12846   0.56108   0.75000   0.00000  Uiso   1.00
O842   O     0.20488   0.43892   0.74999   0.00000  Uiso   1.00
O843   O     0.20490   0.56107   0.75000   0.00000  Uiso   1.00
O844   O     0.12843   0.43893   0.75000   0.00000  Uiso   1.00
C845   C     0.16699   0.57979   0.74931   0.00000  Uiso   1.00
C846   C     0.16643   0.42020   0.75048   0.00000  Uiso   1.00
O847   O     0.10661   0.50001   0.81612   0.00000  Uiso   1.00
O848   O     0.22672   0.49999   0.68387   0.00000  Uiso   1.00
O849   O     0.18305   0.50000   0.81612   0.00000  Uiso   1.00
O850   O     0.15028   0.50000   0.68388   0.00000  Uiso   1.00
C851   C     0.13642   0.49909   0.83781   0.00000  Uiso   1.00
C852   C     0.19698   0.49932   0.66212   0.00000  Uiso   1.00
Zn853  Zn    0.11562   0.50001   0.75000   0.00000  Uiso   1.00
Zn854  Zn    0.21771   0.49999   0.75000   0.00000  Uiso   1.00
C855   C     0.11853   0.49085   0.88750   0.00000  Uiso   1.00
C856   C     0.21617   0.49691   0.61132   0.00000  Uiso   1.00
C857   C     0.06796   0.45142   0.95341   0.00000  Uiso   1.00
C858   C     0.27965   0.50808   0.53666   0.00000  Uiso   1.00
C859   C     0.07777   0.46639   0.90887   0.00000  Uiso   1.00
C860   C     0.26419   0.50646   0.58495   0.00000  Uiso   1.00
C861   C     0.14860   0.50077   0.91107   0.00000  Uiso   1.00
C862   C     0.18514   0.48524   0.58911   0.00000  Uiso   1.00
C863   C     0.14328   0.48151   0.95277   0.00000  Uiso   1.00
C864   C     0.20010   0.48555   0.54067   0.00000  Uiso   1.00
C865   C     0.10135   0.45740   0.97529   0.00000  Uiso   1.00
C866   C     0.24703   0.50046   0.51426   0.00000  Uiso   1.00
C867   C     0.17892   0.48586   0.97228   0.00000  Uiso   1.00
C868   C     0.16799   0.47412   0.51854   0.00000  Uiso   1.00
C869   C     0.12628   0.45004   0.54071   0.00000  Uiso   1.00
C870   C     0.22569   0.50033   0.94626   0.00000  Uiso   1.00
C871   C     0.09430   0.43989   0.51872   0.00000  Uiso   1.00
C872   C     0.25980   0.50719   0.96638   0.00000  Uiso   1.00
H873   H     0.14820   0.47831   0.61031   0.00000  Uiso   1.00
H874   H     0.17722   0.52273   0.89514   0.00000  Uiso   1.00
H875   H     0.28925   0.51417   0.60167   0.00000  Uiso   1.00
H876   H     0.05471   0.45735   0.89050   0.00000  Uiso   1.00
H877   H     0.03498   0.43419   0.96959   0.00000  Uiso   1.00
H878   H     0.31686   0.51607   0.51748   0.00000  Uiso   1.00
H879   H     0.12002   0.43582   0.57377   0.00000  Uiso   1.00
H880   H     0.23727   0.50544   0.90938   0.00000  Uiso   1.00
C881   C     0.20527   0.64497   0.71551   0.00000  Uiso   1.00
C882   C     0.12810   0.35496   0.78384   0.00000  Uiso   1.00
C883   C     0.20444   0.35476   0.71665   0.00000  Uiso   1.00
C884   C     0.12901   0.64523   0.78277   0.00000  Uiso   1.00
H885   H     0.23292   0.37170   0.69058   0.00000  Uiso   1.00
H886   H     0.10049   0.62837   0.80883   0.00000  Uiso   1.00
C887   C     0.16619   0.37604   0.75067   0.00000  Uiso   1.00
C888   C     0.16727   0.62394   0.74887   0.00000  Uiso   1.00
C889   C     0.31851   0.46922   0.72658   0.00000  Uiso   1.00
C890   C     0.01505   0.53130   0.77261   0.00000  Uiso   1.00
C891   C     0.03303   0.46950   0.72625   0.00000  Uiso   1.00
C892   C     0.30025   0.53044   0.77379   0.00000  Uiso   1.00
N893   N     0.04759   0.50001   0.75001   0.00000  Uiso   1.00
N894   N     0.28574   0.49999   0.74999   0.00000  Uiso   1.00
N895   N     0.05618   0.41072   0.54033   0.00000  Uiso   1.00
O896   O     0.04911   0.37935   0.51606   0.00000  Uiso   1.00
O897   O     0.03576   0.41010   0.58548   0.00000  Uiso   1.00
N898   N     0.30610   0.52299   0.93768   0.00000  Uiso   1.00
O899   O     0.32543   0.51011   0.89447   0.00000  Uiso   1.00
O900   O     0.32304   0.55655   0.95060   0.00000  Uiso   1.00
Cl901  Cl    0.25287   0.61858   0.67097   0.00000  Uiso   1.00
Cl902  Cl    0.08004   0.38112   0.82803   0.00000  Uiso   1.00
N903   N     0.30441   0.43586   0.70294   0.00000  Uiso   1.00
O904   O     0.30709   0.39722   0.71445   0.00000  Uiso   1.00
O905   O     0.29597   0.44334   0.66562   0.00000  Uiso   1.00
N906   N     0.03008   0.56678   0.79272   0.00000  Uiso   1.00
O907   O     0.02632   0.60429   0.77863   0.00000  Uiso   1.00
O908   O     0.04301   0.56245   0.82800   0.00000  Uiso   1.00
Cl909  Cl    0.07482   0.43191   0.69131   0.00000  Uiso   1.00
Cl910  Cl    0.25832   0.56773   0.80914   0.00000  Uiso   1.00
O911   O     0.46179   0.56108   0.75000   0.00000  Uiso   1.00
O912   O     0.53821   0.43892   0.74999   0.00000  Uiso   1.00
O913   O     0.53823   0.56107   0.75000   0.00000  Uiso   1.00
O914   O     0.46177   0.43893   0.75000   0.00000  Uiso   1.00
C915   C     0.50032   0.57979   0.74931   0.00000  Uiso   1.00
C916   C     0.49976   0.42020   0.75048   0.00000  Uiso   1.00
O917   O     0.43994   0.50001   0.81612   0.00000  Uiso   1.00
O918   O     0.56006   0.49999   0.68387   0.00000  Uiso   1.00
O919   O     0.51639   0.50000   0.81612   0.00000  Uiso   1.00
O920   O     0.48361   0.50000   0.68388   0.00000  Uiso   1.00
C921   C     0.46975   0.49909   0.83781   0.00000  Uiso   1.00
C922   C     0.53031   0.49932   0.66212   0.00000  Uiso   1.00
Zn923  Zn    0.44896   0.50001   0.75000   0.00000  Uiso   1.00
Zn924  Zn    0.55104   0.49999   0.75000   0.00000  Uiso   1.00
C925   C     0.45187   0.49085   0.88750   0.00000  Uiso   1.00
C926   C     0.54950   0.49691   0.61132   0.00000  Uiso   1.00
C927   C     0.40129   0.45142   0.95341   0.00000  Uiso   1.00
C928   C     0.61299   0.50808   0.53666   0.00000  Uiso   1.00
C929   C     0.41111   0.46639   0.90887   0.00000  Uiso   1.00
C930   C     0.59753   0.50646   0.58495   0.00000  Uiso   1.00
C931   C     0.48194   0.50077   0.91107   0.00000  Uiso   1.00
C932   C     0.51848   0.48524   0.58911   0.00000  Uiso   1.00
C933   C     0.47661   0.48151   0.95277   0.00000  Uiso   1.00
C934   C     0.53343   0.48555   0.54067   0.00000  Uiso   1.00
C935   C     0.43469   0.45740   0.97529   0.00000  Uiso   1.00
C936   C     0.58036   0.50046   0.51426   0.00000  Uiso   1.00
C937   C     0.51225   0.48586   0.97228   0.00000  Uiso   1.00
C938   C     0.50133   0.47412   0.51854   0.00000  Uiso   1.00
C939   C     0.45961   0.45004   0.54071   0.00000  Uiso   1.00
C940   C     0.55903   0.50033   0.94626   0.00000  Uiso   1.00
C941   C     0.42763   0.43989   0.51872   0.00000  Uiso   1.00
C942   C     0.59313   0.50719   0.96638   0.00000  Uiso   1.00
H943   H     0.48153   0.47831   0.61031   0.00000  Uiso   1.00
H944   H     0.51056   0.52273   0.89514   0.00000  Uiso   1.00
H945   H     0.62258   0.51417   0.60167   0.00000  Uiso   1.00
H946   H     0.38804   0.45735   0.89050   0.00000  Uiso   1.00
H947   H     0.36831   0.43419   0.96959   0.00000  Uiso   1.00
H948   H     0.65020   0.51607   0.51748   0.00000  Uiso   1.00
H949   H     0.45335   0.43582   0.57377   0.00000  Uiso   1.00
H950   H     0.57061   0.50544   0.90938   0.00000  Uiso   1.00
C951   C     0.53860   0.64497   0.71551   0.00000  Uiso   1.00
C952   C     0.46144   0.35496   0.78384   0.00000  Uiso   1.00
C953   C     0.53777   0.35476   0.71665   0.00000  Uiso   1.00
C954   C     0.46235   0.64523   0.78277   0.00000  Uiso   1.00
H955   H     0.56626   0.37170   0.69058   0.00000  Uiso   1.00
H956   H     0.43382   0.62837   0.80883   0.00000  Uiso   1.00
C957   C     0.49952   0.37604   0.75067   0.00000  Uiso   1.00
C958   C     0.50061   0.62394   0.74887   0.00000  Uiso   1.00
C959   C     0.65185   0.46922   0.72658   0.00000  Uiso   1.00
C960   C     0.34838   0.53130   0.77261   0.00000  Uiso   1.00
C961   C     0.36637   0.46950   0.72625   0.00000  Uiso   1.00
C962   C     0.63358   0.53044   0.77379   0.00000  Uiso   1.00
N963   N     0.38093   0.50001   0.75001   0.00000  Uiso   1.00
N964   N     0.61907   0.49999   0.74999   0.00000  Uiso   1.00
N965   N     0.38951   0.41072   0.54033   0.00000  Uiso   1.00
O966   O     0.38244   0.37935   0.51606   0.00000  Uiso   1.00
O967   O     0.36909   0.41010   0.58548   0.00000  Uiso   1.00
N968   N     0.63944   0.52299   0.93768   0.00000  Uiso   1.00
O969   O     0.65876   0.51011   0.89447   0.00000  Uiso   1.00
O970   O     0.65637   0.55655   0.95060   0.00000  Uiso   1.00
Cl971  Cl    0.58620   0.61858   0.67097   0.00000  Uiso   1.00
Cl972  Cl    0.41338   0.38112   0.82803   0.00000  Uiso   1.00
N973   N     0.63774   0.43586   0.70294   0.00000  Uiso   1.00
O974   O     0.64042   0.39722   0.71445   0.00000  Uiso   1.00
O975   O     0.62931   0.44334   0.66562   0.00000  Uiso   1.00
N976   N     0.36341   0.56678   0.79272   0.00000  Uiso   1.00
O977   O     0.35966   0.60429   0.77863   0.00000  Uiso   1.00
O978   O     0.37634   0.56245   0.82800   0.00000  Uiso   1.00
Cl979  Cl    0.40816   0.43191   0.69131   0.00000  Uiso   1.00
Cl980  Cl    0.59166   0.56773   0.80914   0.00000  Uiso   1.00
O981   O     0.79512   0.56108   0.75000   0.00000  Uiso   1.00
O982   O     0.87154   0.43892   0.74999   0.00000  Uiso   1.00
O983   O     0.87157   0.56107   0.75000   0.00000  Uiso   1.00
O984   O     0.79510   0.43893   0.75000   0.00000  Uiso   1.00
C985   C     0.83366   0.57979   0.74931   0.00000  Uiso   1.00
C986   C     0.83309   0.42020   0.75048   0.00000  Uiso   1.00
O987   O     0.77328   0.50001   0.81612   0.00000  Uiso   1.00
O988   O     0.89339   0.49999   0.68387   0.00000  Uiso   1.00
O989   O     0.84972   0.50000   0.81612   0.00000  Uiso   1.00
O990   O     0.81695   0.50000   0.68388   0.00000  Uiso   1.00
C991   C     0.80308   0.49909   0.83781   0.00000  Uiso   1.00
C992   C     0.86364   0.49932   0.66212   0.00000  Uiso   1.00
Zn993  Zn    0.78229   0.50001   0.75000   0.00000  Uiso   1.00
Zn994  Zn    0.88438   0.49999   0.75000   0.00000  Uiso   1.00
C995   C     0.78520   0.49085   0.88750   0.00000  Uiso   1.00
C996   C     0.88284   0.49691   0.61132   0.00000  Uiso   1.00
C997   C     0.73463   0.45142   0.95341   0.00000  Uiso   1.00
C998   C     0.94632   0.50808   0.53666   0.00000  Uiso   1.00
C999   C     0.74444   0.46639   0.90887   0.00000  Uiso   1.00
C1000  C     0.93086   0.50646   0.58495   0.00000  Uiso   1.00
C1001  C     0.81527   0.50077   0.91107   0.00000  Uiso   1.00
C1002  C     0.85181   0.48524   0.58911   0.00000  Uiso   1.00
C1003  C     0.80994   0.48151   0.95277   0.00000  Uiso   1.00
C1004  C     0.86677   0.48555   0.54067   0.00000  Uiso   1.00
C1005  C     0.76802   0.45740   0.97529   0.00000  Uiso   1.00
C1006  C     0.91370   0.50046   0.51426   0.00000  Uiso   1.00
C1007  C     0.84559   0.48586   0.97228   0.00000  Uiso   1.00
C1008  C     0.83466   0.47412   0.51854   0.00000  Uiso   1.00
C1009  C     0.79294   0.45004   0.54071   0.00000  Uiso   1.00
C1010  C     0.89236   0.50033   0.94626   0.00000  Uiso   1.00
C1011  C     0.76096   0.43989   0.51872   0.00000  Uiso   1.00
C1012  C     0.92647   0.50719   0.96638   0.00000  Uiso   1.00
H1013  H     0.81487   0.47831   0.61031   0.00000  Uiso   1.00
H1014  H     0.84389   0.52273   0.89514   0.00000  Uiso   1.00
H1015  H     0.95592   0.51417   0.60167   0.00000  Uiso   1.00
H1016  H     0.72137   0.45735   0.89050   0.00000  Uiso   1.00
H1017  H     0.70165   0.43419   0.96959   0.00000  Uiso   1.00
H1018  H     0.98353   0.51607   0.51748   0.00000  Uiso   1.00
H1019  H     0.78669   0.43582   0.57377   0.00000  Uiso   1.00
H1020  H     0.90394   0.50544   0.90938   0.00000  Uiso   1.00
C1021  C     0.87193   0.64497   0.71551   0.00000  Uiso   1.00
C1022  C     0.79477   0.35496   0.78384   0.00000  Uiso   1.00
C1023  C     0.87111   0.35476   0.71665   0.00000  Uiso   1.00
C1024  C     0.79568   0.64523   0.78277   0.00000  Uiso   1.00
H1025  H     0.89959   0.37170   0.69058   0.00000  Uiso   1.00
H1026  H     0.76715   0.62837   0.80883   0.00000  Uiso   1.00
C1027  C     0.83286   0.37604   0.75067   0.00000  Uiso   1.00
C1028  C     0.83394   0.62394   0.74887   0.00000  Uiso   1.00
C1029  C     0.98518   0.46922   0.72658   0.00000  Uiso   1.00
C1030  C     0.68171   0.53130   0.77261   0.00000  Uiso   1.00
C1031  C     0.69970   0.46950   0.72625   0.00000  Uiso   1.00
C1032  C     0.96692   0.53044   0.77379   0.00000  Uiso   1.00
N1033  N     0.71426   0.50001   0.75001   0.00000  Uiso   1.00
N1034  N     0.95241   0.49999   0.74999   0.00000  Uiso   1.00
N1035  N     0.72285   0.41072   0.54033   0.00000  Uiso   1.00
O1036  O     0.71578   0.37935   0.51606   0.00000  Uiso   1.00
O1037  O     0.70242   0.41010   0.58548   0.00000  Uiso   1.00
N1038  N     0.97277   0.52299   0.93768   0.00000  Uiso   1.00
O1039  O     0.99210   0.51011   0.89447   0.00000  Uiso   1.00
O1040  O     0.98971   0.55655   0.95060   0.00000  Uiso   1.00
Cl1041 Cl    0.91953   0.61858   0.67097   0.00000  Uiso   1.00
Cl1042 Cl    0.74671   0.38112   0.82803   0.00000  Uiso   1.00
N1043  N     0.97107   0.43586   0.70294   0.00000  Uiso   1.00
O1044  O     0.97375   0.39722   0.71445   0.00000  Uiso   1.00
O1045  O     0.96264   0.44334   0.66562   0.00000  Uiso   1.00
N1046  N     0.69675   0.56678   0.79272   0.00000  Uiso   1.00
O1047  O     0.69299   0.60429   0.77863   0.00000  Uiso   1.00
O1048  O     0.70967   0.56245   0.82800   0.00000  Uiso   1.00
Cl1049 Cl    0.74149   0.43191   0.69131   0.00000  Uiso   1.00
Cl1050 Cl    0.92499   0.56773   0.80914   0.00000  Uiso   1.00
O1051  O     0.12846   0.89442   0.75000   0.00000  Uiso   1.00
O1052  O     0.20488   0.77225   0.74999   0.00000  Uiso   1.00
O1053  O     0.20490   0.89441   0.75000   0.00000  Uiso   1.00
O1054  O     0.12843   0.77226   0.75000   0.00000  Uiso   1.00
C1055  C     0.16699   0.91312   0.74931   0.00000  Uiso   1.00
C1056  C     0.16643   0.75353   0.75048   0.00000  Uiso   1.00
O1057  O     0.10661   0.83334   0.81612   0.00000  Uiso   1.00
O1058  O     0.22672   0.83333   0.68387   0.00000  Uiso   1.00
O1059  O     0.18305   0.83333   0.81612   0.00000  Uiso   1.00
O1060  O     0.15028   0.83334   0.68388   0.00000  Uiso   1.00
C1061  C     0.13642   0.83242   0.83781   0.00000  Uiso   1.00
C1062  C     0.19698   0.83266   0.66212   0.00000  Uiso   1.00
Zn1063 Zn    0.11562   0.83334   0.75000   0.00000  Uiso   1.00
Zn1064 Zn    0.21771   0.83333   0.75000   0.00000  Uiso   1.00
C1065  C     0.11853   0.82418   0.88750   0.00000  Uiso   1.00
C1066  C     0.21617   0.83024   0.61132   0.00000  Uiso   1.00
C1067  C     0.06796   0.78476   0.95341   0.00000  Uiso   1.00
C1068  C     0.27965   0.84142   0.53666   0.00000  Uiso   1.00
C1069  C     0.07777   0.79973   0.90887   0.00000  Uiso   1.00
C1070  C     0.26419   0.83980   0.58495   0.00000  Uiso   1.00
C1071  C     0.14860   0.83411   0.91107   0.00000  Uiso   1.00
C1072  C     0.18514   0.81857   0.58911   0.00000  Uiso   1.00
C1073  C     0.14328   0.81485   0.95277   0.00000  Uiso   1.00
C1074  C     0.20010   0.81889   0.54067   0.00000  Uiso   1.00
C1075  C     0.10135   0.79074   0.97529   0.00000  Uiso   1.00
C1076  C     0.24703   0.83379   0.51426   0.00000  Uiso   1.00
C1077  C     0.17892   0.81919   0.97228   0.00000  Uiso   1.00
C1078  C     0.16799   0.80746   0.51854   0.00000  Uiso   1.00
C1079  C     0.12628   0.78338   0.54071   0.00000  Uiso   1.00
C1080  C     0.22569   0.83366   0.94626   0.00000  Uiso   1.00
C1081  C     0.09430   0.77323   0.51872   0.00000  Uiso   1.00
C1082  C     0.25980   0.84052   0.96638   0.00000  Uiso   1.00
H1083  H     0.14820   0.81164   0.61031   0.00000  Uiso   1.00
H1084  H     0.17722   0.85606   0.89514   0.00000  Uiso   1.00
H1085  H     0.28925   0.84750   0.60167   0.00000  Uiso   1.00
H1086  H     0.05471   0.79069   0.89050   0.00000  Uiso   1.00
H1087  H     0.03498   0.76753   0.96959   0.00000  Uiso   1.00
H1088  H     0.31686   0.84940   0.51748   0.00000  Uiso   1.00
H1089  H     0.12002   0.76915   0.57377   0.00000  Uiso   1.00
H1090  H     0.23727   0.83878   0.90938   0.00000  Uiso   1.00
C1091  C     0.20527   0.97830   0.71551   0.00000  Uiso   1.00
C1092  C     0.12810   0.68829   0.78384   0.00000  Uiso   1.00
C1093  C     0.20444   0.68810   0.71665   0.00000  Uiso   1.00
C1094  C     0.12901   0.97856   0.78277   0.00000  Uiso   1.00
H1095  H     0.23292   0.70503   0.69058   0.00000  Uiso   1.00
H1096  H     0.10049   0.96170   0.80883   0.00000  Uiso   1.00
C1097  C     0.16619   0.70937   0.75067   0.00000  Uiso   1.00
C1098  C     0.16727   0.95727   0.74887   0.00000  Uiso   1.00
C1099  C     0.31851   0.80255   0.72658   0.00000  Uiso   1.00
C1100  C     0.01505   0.86463   0.77261   0.00000  Uiso   1.00
C1101  C     0.03303   0.80283   0.72625   0.00000  Uiso   1.00
C1102  C     0.30025   0.86378   0.77379   0.00000  Uiso   1.00
N1103  N     0.04759   0.83334   0.75001   0.00000  Uiso   1.00
N1104  N     0.28574   0.83332   0.74999   0.00000  Uiso   1.00
N1105  N     0.05618   0.74405   0.54033   0.00000  Uiso   1.00
O1106  O     0.04911   0.71268   0.51606   0.00000  Uiso   1.00
O1107  O     0.03576   0.74344   0.58548   0.00000  Uiso   1.00
N1108  N     0.30610   0.85632   0.93768   0.00000  Uiso   1.00
O1109  O     0.32543   0.84344   0.89447   0.00000  Uiso   1.00
O1110  O     0.32304   0.88988   0.95060   0.00000  Uiso   1.00
Cl1111 Cl    0.25287   0.95191   0.67097   0.00000  Uiso   1.00
Cl1112 Cl    0.08004   0.71445   0.82803   0.00000  Uiso   1.00
N1113  N     0.30441   0.76920   0.70294   0.00000  Uiso   1.00
O1114  O     0.30709   0.73055   0.71445   0.00000  Uiso   1.00
O1115  O     0.29597   0.77667   0.66562   0.00000  Uiso   1.00
N1116  N     0.03008   0.90011   0.79272   0.00000  Uiso   1.00
O1117  O     0.02632   0.93762   0.77863   0.00000  Uiso   1.00
O1118  O     0.04301   0.89578   0.82800   0.00000  Uiso   1.00
Cl1119 Cl    0.07482   0.76525   0.69131   0.00000  Uiso   1.00
Cl1120 Cl    0.25832   0.90107   0.80914   0.00000  Uiso   1.00
O1121  O     0.46179   0.89442   0.75000   0.00000  Uiso   1.00
O1122  O     0.53821   0.77225   0.74999   0.00000  Uiso   1.00
O1123  O     0.53823   0.89441   0.75000   0.00000  Uiso   1.00
O1124  O     0.46177   0.77226   0.75000   0.00000  Uiso   1.00
C1125  C     0.50032   0.91312   0.74931   0.00000  Uiso   1.00
C1126  C     0.49976   0.75353   0.75048   0.00000  Uiso   1.00
O1127  O     0.43994   0.83334   0.81612   0.00000  Uiso   1.00
O1128  O     0.56006   0.83333   0.68387   0.00000  Uiso   1.00
O1129  O     0.51639   0.83333   0.81612   0.00000  Uiso   1.00
O1130  O     0.48361   0.83334   0.68388   0.00000  Uiso   1.00
C1131  C     0.46975   0.83242   0.83781   0.00000  Uiso   1.00
C1132  C     0.53031   0.83266   0.66212   0.00000  Uiso   1.00
Zn1133 Zn    0.44896   0.83334   0.75000   0.00000  Uiso   1.00
Zn1134 Zn    0.55104   0.83333   0.75000   0.00000  Uiso   1.00
C1135  C     0.45187   0.82418   0.88750   0.00000  Uiso   1.00
C1136  C     0.54950   0.83024   0.61132   0.00000  Uiso   1.00
C1137  C     0.40129   0.78476   0.95341   0.00000  Uiso   1.00
C1138  C     0.61299   0.84142   0.53666   0.00000  Uiso   1.00
C1139  C     0.41111   0.79973   0.90887   0.00000  Uiso   1.00
C1140  C     0.59753   0.83980   0.58495   0.00000  Uiso   1.00
C1141  C     0.48194   0.83411   0.91107   0.00000  Uiso   1.00
C1142  C     0.51848   0.81857   0.58911   0.00000  Uiso   1.00
C1143  C     0.47661   0.81485   0.95277   0.00000  Uiso   1.00
C1144  C     0.53343   0.81889   0.54067   0.00000  Uiso   1.00
C1145  C     0.43469   0.79074   0.97529   0.00000  Uiso   1.00
C1146  C     0.58036   0.83379   0.51426   0.00000  Uiso   1.00
C1147  C     0.51225   0.81919   0.97228   0.00000  Uiso   1.00
C1148  C     0.50133   0.80746   0.51854   0.00000  Uiso   1.00
C1149  C     0.45961   0.78338   0.54071   0.00000  Uiso   1.00
C1150  C     0.55903   0.83366   0.94626   0.00000  Uiso   1.00
C1151  C     0.42763   0.77323   0.51872   0.00000  Uiso   1.00
C1152  C     0.59313   0.84052   0.96638   0.00000  Uiso   1.00
H1153  H     0.48153   0.81164   0.61031   0.00000  Uiso   1.00
H1154  H     0.51056   0.85606   0.89514   0.00000  Uiso   1.00
H1155  H     0.62258   0.84750   0.60167   0.00000  Uiso   1.00
H1156  H     0.38804   0.79069   0.89050   0.00000  Uiso   1.00
H1157  H     0.36831   0.76753   0.96959   0.00000  Uiso   1.00
H1158  H     0.65020   0.84940   0.51748   0.00000  Uiso   1.00
H1159  H     0.45335   0.76915   0.57377   0.00000  Uiso   1.00
H1160  H     0.57061   0.83878   0.90938   0.00000  Uiso   1.00
C1161  C     0.53860   0.97830   0.71551   0.00000  Uiso   1.00
C1162  C     0.46144   0.68829   0.78384   0.00000  Uiso   1.00
C1163  C     0.53777   0.68810   0.71665   0.00000  Uiso   1.00
C1164  C     0.46235   0.97856   0.78277   0.00000  Uiso   1.00
H1165  H     0.56626   0.70503   0.69058   0.00000  Uiso   1.00
H1166  H     0.43382   0.96170   0.80883   0.00000  Uiso   1.00
C1167  C     0.49952   0.70937   0.75067   0.00000  Uiso   1.00
C1168  C     0.50061   0.95727   0.74887   0.00000  Uiso   1.00
C1169  C     0.65185   0.80255   0.72658   0.00000  Uiso   1.00
C1170  C     0.34838   0.86463   0.77261   0.00000  Uiso   1.00
C1171  C     0.36637   0.80283   0.72625   0.00000  Uiso   1.00
C1172  C     0.63358   0.86378   0.77379   0.00000  Uiso   1.00
N1173  N     0.38093   0.83334   0.75001   0.00000  Uiso   1.00
N1174  N     0.61907   0.83332   0.74999   0.00000  Uiso   1.00
N1175  N     0.38951   0.74405   0.54033   0.00000  Uiso   1.00
O1176  O     0.38244   0.71268   0.51606   0.00000  Uiso   1.00
O1177  O     0.36909   0.74344   0.58548   0.00000  Uiso   1.00
N1178  N     0.63944   0.85632   0.93768   0.00000  Uiso   1.00
O1179  O     0.65876   0.84344   0.89447   0.00000  Uiso   1.00
O1180  O     0.65637   0.88988   0.95060   0.00000  Uiso   1.00
Cl1181 Cl    0.58620   0.95191   0.67097   0.00000  Uiso   1.00
Cl1182 Cl    0.41338   0.71445   0.82803   0.00000  Uiso   1.00
N1183  N     0.63774   0.76920   0.70294   0.00000  Uiso   1.00
O1184  O     0.64042   0.73055   0.71445   0.00000  Uiso   1.00
O1185  O     0.62931   0.77667   0.66562   0.00000  Uiso   1.00
N1186  N     0.36341   0.90011   0.79272   0.00000  Uiso   1.00
O1187  O     0.35966   0.93762   0.77863   0.00000  Uiso   1.00
O1188  O     0.37634   0.89578   0.82800   0.00000  Uiso   1.00
Cl1189 Cl    0.40816   0.76525   0.69131   0.00000  Uiso   1.00
Cl1190 Cl    0.59166   0.90107   0.80914   0.00000  Uiso   1.00
O1191  O     0.79512   0.89442   0.75000   0.00000  Uiso   1.00
O1192  O     0.87154   0.77225   0.74999   0.00000  Uiso   1.00
O1193  O     0.87157   0.89441   0.75000   0.00000  Uiso   1.00
O1194  O     0.79510   0.77226   0.75000   0.00000  Uiso   1.00
C1195  C     0.83366   0.91312   0.74931   0.00000  Uiso   1.00
C1196  C     0.83309   0.75353   0.75048   0.00000  Uiso   1.00
O1197  O     0.77328   0.83334   0.81612   0.00000  Uiso   1.00
O1198  O     0.89339   0.83333   0.68387   0.00000  Uiso   1.00
O1199  O     0.84972   0.83333   0.81612   0.00000  Uiso   1.00
O1200  O     0.81695   0.83334   0.68388   0.00000  Uiso   1.00
C1201  C     0.80308   0.83242   0.83781   0.00000  Uiso   1.00
C1202  C     0.86364   0.83266   0.66212   0.00000  Uiso   1.00
Zn1203 Zn    0.78229   0.83334   0.75000   0.00000  Uiso   1.00
Zn1204 Zn    0.88438   0.83333   0.75000   0.00000  Uiso   1.00
C1205  C     0.78520   0.82418   0.88750   0.00000  Uiso   1.00
C1206  C     0.88284   0.83024   0.61132   0.00000  Uiso   1.00
C1207  C     0.73463   0.78476   0.95341   0.00000  Uiso   1.00
C1208  C     0.94632   0.84142   0.53666   0.00000  Uiso   1.00
C1209  C     0.74444   0.79973   0.90887   0.00000  Uiso   1.00
C1210  C     0.93086   0.83980   0.58495   0.00000  Uiso   1.00
C1211  C     0.81527   0.83411   0.91107   0.00000  Uiso   1.00
C1212  C     0.85181   0.81857   0.58911   0.00000  Uiso   1.00
C1213  C     0.80994   0.81485   0.95277   0.00000  Uiso   1.00
C1214  C     0.86677   0.81889   0.54067   0.00000  Uiso   1.00
C1215  C     0.76802   0.79074   0.97529   0.00000  Uiso   1.00
C1216  C     0.91370   0.83379   0.51426   0.00000  Uiso   1.00
C1217  C     0.84559   0.81919   0.97228   0.00000  Uiso   1.00
C1218  C     0.83466   0.80746   0.51854   0.00000  Uiso   1.00
C1219  C     0.79294   0.78338   0.54071   0.00000  Uiso   1.00
C1220  C     0.89236   0.83366   0.94626   0.00000  Uiso   1.00
C1221  C     0.76096   0.77323   0.51872   0.00000  Uiso   1.00
C1222  C     0.92647   0.84052   0.96638   0.00000  Uiso   1.00
H1223  H     0.81487   0.81164   0.61031   0.00000  Uiso   1.00
H1224  H     0.84389   0.85606   0.89514   0.00000  Uiso   1.00
H1225  H     0.95592   0.84750   0.60167   0.00000  Uiso   1.00
H1226  H     0.72137   0.79069   0.89050   0.00000  Uiso   1.00
H1227  H     0.70165   0.76753   0.96959   0.00000  Uiso   1.00
H1228  H     0.98353   0.84940   0.51748   0.00000  Uiso   1.00
H1229  H     0.78669   0.76915   0.57377   0.00000  Uiso   1.00
H1230  H     0.90394   0.83878   0.90938   0.00000  Uiso   1.00
C1231  C     0.87193   0.97830   0.71551   0.00000  Uiso   1.00
C1232  C     0.79477   0.68829   0.78384   0.00000  Uiso   1.00
C1233  C     0.87111   0.68810   0.71665   0.00000  Uiso   1.00
C1234  C     0.79568   0.97856   0.78277   0.00000  Uiso   1.00
H1235  H     0.89959   0.70503   0.69058   0.00000  Uiso   1.00
H1236  H     0.76715   0.96170   0.80883   0.00000  Uiso   1.00
C1237  C     0.83286   0.70937   0.75067   0.00000  Uiso   1.00
C1238  C     0.83394   0.95727   0.74887   0.00000  Uiso   1.00
C1239  C     0.98518   0.80255   0.72658   0.00000  Uiso   1.00
C1240  C     0.68171   0.86463   0.77261   0.00000  Uiso   1.00
C1241  C     0.69970   0.80283   0.72625   0.00000  Uiso   1.00
C1242  C     0.96692   0.86378   0.77379   0.00000  Uiso   1.00
N1243  N     0.71426   0.83334   0.75001   0.00000  Uiso   1.00
N1244  N     0.95241   0.83332   0.74999   0.00000  Uiso   1.00
N1245  N     0.72285   0.74405   0.54033   0.00000  Uiso   1.00
O1246  O     0.71578   0.71268   0.51606   0.00000  Uiso   1.00
O1247  O     0.70242   0.74344   0.58548   0.00000  Uiso   1.00
N1248  N     0.97277   0.85632   0.93768   0.00000  Uiso   1.00
O1249  O     0.99210   0.84344   0.89447   0.00000  Uiso   1.00
O1250  O     0.98971   0.88988   0.95060   0.00000  Uiso   1.00
Cl1251 Cl    0.91953   0.95191   0.67097   0.00000  Uiso   1.00
Cl1252 Cl    0.74671   0.71445   0.82803   0.00000  Uiso   1.00
N1253  N     0.97107   0.76920   0.70294   0.00000  Uiso   1.00
O1254  O     0.97375   0.73055   0.71445   0.00000  Uiso   1.00
O1255  O     0.96264   0.77667   0.66562   0.00000  Uiso   1.00
N1256  N     0.69675   0.90011   0.79272   0.00000  Uiso   1.00
O1257  O     0.69299   0.93762   0.77863   0.00000  Uiso   1.00
O1258  O     0.70967   0.89578   0.82800   0.00000  Uiso   1.00
Cl1259 Cl    0.74149   0.76525   0.69131   0.00000  Uiso   1.00
Cl1260 Cl    0.92499   0.90107   0.80914   0.00000  Uiso   1.00
loop_
_geom_bond_atom_site_label_1
_geom_bond_atom_site_label_2
_geom_bond_distance
_geom_bond_site_symmetry_2
_ccdc_geom_bond_type
O1     C5      1.290   .     A
O1     Zn13    1.985   .     S
O2     C6      1.290   .     A
O2     Zn14    1.985   .     S
O3     C5      1.288   .     A
O3     Zn14    1.985   .     S
O4     C6      1.288   .     A
O4     Zn13    1.985   .     S
C5     C48     1.408   .     S
C6     C47     1.408   .     S
O7     C11     1.301   .     A
O7     Zn13    1.963   .     S
O8     C12     1.301   .     A
O8     Zn14    1.963   .     S
O9     Zn14    1.918   .     S
O9     C11     1.302   .     A
O10    C12     1.303   .     A
O10    Zn13    1.918   .     S
C11    C15     1.458   .     S
C12    C16     1.459   .     S
Zn13   N53     2.033   .     S
Zn14   N54     2.033   .     S
C15    C21     1.386   .     A
C15    C19     1.397   .     A
C16    C20     1.398   .     A
C16    C22     1.392   .     A
C17    C25     1.411   .     A
C17    H37     1.081   .     S
C17    C19     1.394   .     A
C18    C26     1.410   .     A
C18    H38     1.081   .     S
C18    C20     1.393   .     A
C19    H36     1.080   .     S
C20    H35     1.083   .     S
C21    C23     1.397   .     A
C21    H34     1.080   .     S
C22    C24     1.396   .     A
C22    H33     1.079   .     S
C23    C25     1.421   .     A
C23    C27     1.413   .     A
C24    C28     1.416   .     A
C24    C26     1.422   .     A
C25    C661    1.410   .     S
C26    C662    1.407   1_554 S
C27    C30     1.411   .     A
C27    C658    1.405   .     S
C28    C29     1.414   .     A
C28    C657    1.405   1_554 S
C29    H39     1.080   .     S
C29    C31     1.399   .     A
C30    H40     1.079   .     S
C30    C32     1.394   .     A
C31    N55     1.439   .     S
C31    C655    1.410   1_554 S
C32    N58     1.435   .     S
C32    C656    1.407   .     S
C41    Cl61    1.764   .     S
C41    C48     1.400   .     A
C41    C253    1.375   .     S
C42    Cl62    1.763   .     S
C42    C47     1.400   .     A
C42    C464    1.373   1_545 S
C43    H45     1.084   .     S
C43    C47     1.394   .     A
C43    C461    1.375   1_545 S
C44    H46     1.083   .     S
C44    C48     1.393   .     A
C44    C252    1.373   .     S
C49    N63     1.428   .     S
C49    N54     1.372   .     A
C49    C121    1.426   .     S
C50    N53     1.375   .     A
C50    N66     1.430   .     S
C50    C192    1.426   1_455 S
C51    N53     1.372   .     A
C51    Cl69    1.760   .     S
C51    C189    1.426   1_455 S
C52    N54     1.371   .     A
C52    Cl70    1.760   .     S
C52    C120    1.426   .     S
N55    O56     1.301   .     A
N55    O57     1.300   .     A
N58    O60     1.301   .     A
N58    O59     1.300   .     A
N63    O65     1.299   .     A
N63    O64     1.301   .     A
N66    O67     1.301   .     A
N66    O68     1.298   .     A
O71    C75     1.290   .     A
O71    Zn83    1.985   .     S
O72    C76     1.290   .     A
O72    Zn84    1.985   .     S
O73    C75     1.288   .     A
O73    Zn84    1.985   .     S
O74    C76     1.288   .     A
O74    Zn83    1.985   .     S
C75    C118    1.408   .     S
C76    C117    1.408   .     S
O77    C81     1.301   .     A
O77    Zn83    1.963   .     S
O78    C82     1.301   .     A
O78    Zn84    1.963   .     S
O79    Zn84    1.918   .     S
O79    C81     1.302   .     A
O80    C82     1.303   .     A
O80    Zn83    1.918   .     S
C81    C85     1.458   .     S
C82    C86     1.459   .     S
Zn83   N123    2.033   .     S
Zn84   N124    2.033   .     S
C85    C91     1.386   .     A
C85    C89     1.397   .     A
C86    C90     1.398   .     A
C86    C92     1.392   .     A
C87    C95     1.411   .     A
C87    H107    1.081   .     S
C87    C89     1.394   .     A
C88    C96     1.410   .     A
C88    H108    1.081   .     S
C88    C90     1.393   .     A
C89    H106    1.080   .     S
C90    H105    1.083   .     S
C91    C93     1.397   .     A
C91    H104    1.080   .     S
C92    C94     1.396   .     A
C92    H103    1.079   .     S
C93    C95     1.421   .     A
C93    C97     1.413   .     A
C94    C98     1.416   .     A
C94    C96     1.422   .     A
C95    C731    1.410   .     S
C96    C732    1.407   1_554 S
C97    C100    1.411   .     A
C97    C728    1.405   .     S
C98    C99     1.414   .     A
C98    C727    1.405   1_554 S
C99    H109    1.080   .     S
C99    C101    1.399   .     A
C100   H110    1.079   .     S
C100   C102    1.394   .     A
C101   N125    1.439   .     S
C101   C725    1.410   1_554 S
C102   N128    1.435   .     S
C102   C726    1.407   .     S
C111   Cl131   1.764   .     S
C111   C118    1.400   .     A
C111   C323    1.375   .     S
C112   Cl132   1.763   .     S
C112   C117    1.400   .     A
C112   C534    1.373   1_545 S
C113   H115    1.084   .     S
C113   C117    1.394   .     A
C113   C531    1.375   1_545 S
C114   H116    1.083   .     S
C114   C118    1.393   .     A
C114   C322    1.373   .     S
C119   N133    1.428   .     S
C119   N124    1.372   .     A
C119   C191    1.426   .     S
C120   N123    1.375   .     A
C120   N136    1.430   .     S
C121   N123    1.372   .     A
C121   Cl139   1.760   .     S
C122   N124    1.371   .     A
C122   Cl140   1.760   .     S
C122   C190    1.426   .     S
N125   O126    1.301   .     A
N125   O127    1.300   .     A
N128   O130    1.301   .     A
N128   O129    1.300   .     A
N133   O135    1.299   .     A
N133   O134    1.301   .     A
N136   O137    1.301   .     A
N136   O138    1.298   .     A
O141   C145    1.290   .     A
O141   Zn153   1.985   .     S
O142   C146    1.290   .     A
O142   Zn154   1.985   .     S
O143   C145    1.288   .     A
O143   Zn154   1.985   .     S
O144   C146    1.288   .     A
O144   Zn153   1.985   .     S
C145   C188    1.408   .     S
C146   C187    1.408   .     S
O147   C151    1.301   .     A
O147   Zn153   1.963   .     S
O148   C152    1.301   .     A
O148   Zn154   1.963   .     S
O149   Zn154   1.918   .     S
O149   C151    1.302   .     A
O150   C152    1.303   .     A
O150   Zn153   1.918   .     S
C151   C155    1.458   .     S
C152   C156    1.459   .     S
Zn153  N193    2.033   .     S
Zn154  N194    2.033   .     S
C155   C161    1.386   .     A
C155   C159    1.397   .     A
C156   C160    1.398   .     A
C156   C162    1.392   .     A
C157   C165    1.411   .     A
C157   H177    1.081   .     S
C157   C159    1.394   .     A
C158   C166    1.410   .     A
C158   H178    1.081   .     S
C158   C160    1.393   .     A
C159   H176    1.080   .     S
C160   H175    1.083   .     S
C161   C163    1.397   .     A
C161   H174    1.080   .     S
C162   C164    1.396   .     A
C162   H173    1.079   .     S
C163   C165    1.421   .     A
C163   C167    1.413   .     A
C164   C168    1.416   .     A
C164   C166    1.422   .     A
C165   C801    1.410   .     S
C166   C802    1.407   1_554 S
C167   C170    1.411   .     A
C167   C798    1.405   .     S
C168   C169    1.414   .     A
C168   C797    1.405   1_554 S
C169   H179    1.080   .     S
C169   C171    1.399   .     A
C170   H180    1.079   .     S
C170   C172    1.394   .     A
C171   N195    1.439   .     S
C171   C795    1.410   1_554 S
C172   N198    1.435   .     S
C172   C796    1.407   .     S
C181   Cl201   1.764   .     S
C181   C188    1.400   .     A
C181   C393    1.375   .     S
C182   Cl202   1.763   .     S
C182   C187    1.400   .     A
C182   C604    1.373   1_545 S
C183   H185    1.084   .     S
C183   C187    1.394   .     A
C183   C601    1.375   1_545 S
C184   H186    1.083   .     S
C184   C188    1.393   .     A
C184   C392    1.373   .     S
C189   N203    1.428   .     S
C189   N194    1.372   .     A
C189   C51     1.426   1_655 S
C190   N193    1.375   .     A
C190   N206    1.430   .     S
C191   N193    1.372   .     A
C191   Cl209   1.760   .     S
C192   N194    1.371   .     A
C192   Cl210   1.760   .     S
C192   C50     1.426   1_655 S
N195   O196    1.301   .     A
N195   O197    1.300   .     A
N198   O200    1.301   .     A
N198   O199    1.300   .     A
N203   O205    1.299   .     A
N203   O204    1.301   .     A
N206   O207    1.301   .     A
N206   O208    1.298   .     A
O211   C215    1.290   .     A
O211   Zn223   1.985   .     S
O212   C216    1.290   .     A
O212   Zn224   1.985   .     S
O213   C215    1.288   .     A
O213   Zn224   1.985   .     S
O214   C216    1.288   .     A
O214   Zn223   1.985   .     S
C215   C258    1.408   .     S
C216   C257    1.408   .     S
O217   C221    1.301   .     A
O217   Zn223   1.963   .     S
O218   C222    1.301   .     A
O218   Zn224   1.963   .     S
O219   Zn224   1.918   .     S
O219   C221    1.302   .     A
O220   C222    1.303   .     A
O220   Zn223   1.918   .     S
C221   C225    1.458   .     S
C222   C226    1.459   .     S
Zn223  N263    2.033   .     S
Zn224  N264    2.033   .     S
C225   C231    1.386   .     A
C225   C229    1.397   .     A
C226   C230    1.398   .     A
C226   C232    1.392   .     A
C227   C235    1.411   .     A
C227   H247    1.081   .     S
C227   C229    1.394   .     A
C228   C236    1.410   .     A
C228   H248    1.081   .     S
C228   C230    1.393   .     A
C229   H246    1.080   .     S
C230   H245    1.083   .     S
C231   C233    1.397   .     A
C231   H244    1.080   .     S
C232   C234    1.396   .     A
C232   H243    1.079   .     S
C233   C235    1.421   .     A
C233   C237    1.413   .     A
C234   C238    1.416   .     A
C234   C236    1.422   .     A
C235   C871    1.410   .     S
C236   C872    1.407   1_554 S
C237   C240    1.411   .     A
C237   C868    1.405   .     S
C238   C239    1.414   .     A
C238   C867    1.405   1_554 S
C239   H249    1.080   .     S
C239   C241    1.399   .     A
C240   H250    1.079   .     S
C240   C242    1.394   .     A
C241   N265    1.439   .     S
C241   C865    1.410   1_554 S
C242   N268    1.435   .     S
C242   C866    1.407   .     S
C251   Cl271   1.764   .     S
C251   C258    1.400   .     A
C251   C463    1.375   .     S
C252   Cl272   1.763   .     S
C252   C257    1.400   .     A
C253   H255    1.084   .     S
C253   C257    1.394   .     A
C254   H256    1.083   .     S
C254   C258    1.393   .     A
C254   C462    1.373   .     S
C259   N273    1.428   .     S
C259   N264    1.372   .     A
C259   C331    1.426   .     S
C260   N263    1.375   .     A
C260   N276    1.430   .     S
C260   C402    1.426   1_455 S
C261   N263    1.372   .     A
C261   Cl279   1.760   .     S
C261   C399    1.426   1_455 S
C262   N264    1.371   .     A
C262   Cl280   1.760   .     S
C262   C330    1.426   .     S
N265   O266    1.301   .     A
N265   O267    1.300   .     A
N268   O270    1.301   .     A
N268   O269    1.300   .     A
N273   O275    1.299   .     A
N273   O274    1.301   .     A
N276   O277    1.301   .     A
N276   O278    1.298   .     A
O281   C285    1.290   .     A
O281   Zn293   1.985   .     S
O282   C286    1.290   .     A
O282   Zn294   1.985   .     S
O283   C285    1.288   .     A
O283   Zn294   1.985   .     S
O284   C286    1.288   .     A
O284   Zn293   1.985   .     S
C285   C328    1.408   .     S
C286   C327    1.408   .     S
O287   C291    1.301   .     A
O287   Zn293   1.963   .     S
O288   C292    1.301   .     A
O288   Zn294   1.963   .     S
O289   Zn294   1.918   .     S
O289   C291    1.302   .     A
O290   C292    1.303   .     A
O290   Zn293   1.918   .     S
C291   C295    1.458   .     S
C292   C296    1.459   .     S
Zn293  N333    2.033   .     S
Zn294  N334    2.033   .     S
C295   C301    1.386   .     A
C295   C299    1.397   .     A
C296   C300    1.398   .     A
C296   C302    1.392   .     A
C297   C305    1.411   .     A
C297   H317    1.081   .     S
C297   C299    1.394   .     A
C298   C306    1.410   .     A
C298   H318    1.081   .     S
C298   C300    1.393   .     A
C299   H316    1.080   .     S
C300   H315    1.083   .     S
C301   C303    1.397   .     A
C301   H314    1.080   .     S
C302   C304    1.396   .     A
C302   H313    1.079   .     S
C303   C305    1.421   .     A
C303   C307    1.413   .     A
C304   C308    1.416   .     A
C304   C306    1.422   .     A
C305   C941    1.410   .     S
C306   C942    1.407   1_554 S
C307   C310    1.411   .     A
C307   C938    1.405   .     S
C308   C309    1.414   .     A
C308   C937    1.405   1_554 S
C309   H319    1.080   .     S
C309   C311    1.399   .     A
C310   H320    1.079   .     S
C310   C312    1.394   .     A
C311   N335    1.439   .     S
C311   C935    1.410   1_554 S
C312   N338    1.435   .     S
C312   C936    1.407   .     S
C321   Cl341   1.764   .     S
C321   C328    1.400   .     A
C321   C533    1.375   .     S
C322   Cl342   1.763   .     S
C322   C327    1.400   .     A
C323   H325    1.084   .     S
C323   C327    1.394   .     A
C324   H326    1.083   .     S
C324   C328    1.393   .     A
C324   C532    1.373   .     S
C329   N343    1.428   .     S
C329   N334    1.372   .     A
C329   C401    1.426   .     S
C330   N333    1.375   .     A
C330   N346    1.430   .     S
C331   N333    1.372   .     A
C331   Cl349   1.760   .     S
C332   N334    1.371   .     A
C332   Cl350   1.760   .     S
C332   C400    1.426   .     S
N335   O336    1.301   .     A
N335   O337    1.300   .     A
N338   O340    1.301   .     A
N338   O339    1.300   .     A
N343   O345    1.299   .     A
N343   O344    1.301   .     A
N346   O347    1.301   .     A
N346   O348    1.298   .     A
O351   C355    1.290   .     A
O351   Zn363   1.985   .     S
O352   C356    1.290   .     A
O352   Zn364   1.985   .     S
O353   C355    1.288   .     A
O353   Zn364   1.985   .     S
O354   C356    1.288   .     A
O354   Zn363   1.985   .     S
C355   C398    1.408   .     S
C356   C397    1.408   .     S
O357   C361    1.301   .     A
O357   Zn363   1.963   .     S
O358   C362    1.301   .     A
O358   Zn364   1.963   .     S
O359   Zn364   1.918   .     S
O359   C361    1.302   .     A
O360   C362    1.303   .     A
O360   Zn363   1.918   .     S
C361   C365    1.458   .     S
C362   C366    1.459   .     S
Zn363  N403    2.033   .     S
Zn364  N404    2.033   .     S
C365   C371    1.386   .     A
C365   C369    1.397   .     A
C366   C370    1.398   .     A
C366   C372    1.392   .     A
C367   C375    1.411   .     A
C367   H387    1.081   .     S
C367   C369    1.394   .     A
C368   C376    1.410   .     A
C368   H388    1.081   .     S
C368   C370    1.393   .     A
C369   H386    1.080   .     S
C370   H385    1.083   .     S
C371   C373    1.397   .     A
C371   H384    1.080   .     S
C372   C374    1.396   .     A
C372   H383    1.079   .     S
C373   C375    1.421   .     A
C373   C377    1.413   .     A
C374   C378    1.416   .     A
C374   C376    1.422   .     A
C375   C1011   1.410   .     S
C376   C1012   1.407   1_554 S
C377   C380    1.411   .     A
C377   C1008   1.405   .     S
C378   C379    1.414   .     A
C378   C1007   1.405   1_554 S
C379   H389    1.080   .     S
C379   C381    1.399   .     A
C380   H390    1.079   .     S
C380   C382    1.394   .     A
C381   N405    1.439   .     S
C381   C1005   1.410   1_554 S
C382   N408    1.435   .     S
C382   C1006   1.407   .     S
C391   Cl411   1.764   .     S
C391   C398    1.400   .     A
C391   C603    1.375   .     S
C392   Cl412   1.763   .     S
C392   C397    1.400   .     A
C393   H395    1.084   .     S
C393   C397    1.394   .     A
C394   H396    1.083   .     S
C394   C398    1.393   .     A
C394   C602    1.373   .     S
C399   N413    1.428   .     S
C399   N404    1.372   .     A
C399   C261    1.426   1_655 S
C400   N403    1.375   .     A
C400   N416    1.430   .     S
C401   N403    1.372   .     A
C401   Cl419   1.760   .     S
C402   N404    1.371   .     A
C402   Cl420   1.760   .     S
C402   C260    1.426   1_655 S
N405   O406    1.301   .     A
N405   O407    1.300   .     A
N408   O410    1.301   .     A
N408   O409    1.300   .     A
N413   O415    1.299   .     A
N413   O414    1.301   .     A
N416   O417    1.301   .     A
N416   O418    1.298   .     A
O421   C425    1.290   .     A
O421   Zn433   1.985   .     S
O422   C426    1.290   .     A
O422   Zn434   1.985   .     S
O423   C425    1.288   .     A
O423   Zn434   1.985   .     S
O424   C426    1.288   .     A
O424   Zn433   1.985   .     S
C425   C468    1.408   .     S
C426   C467    1.408   .     S
O427   C431    1.301   .     A
O427   Zn433   1.963   .     S
O428   C432    1.301   .     A
O428   Zn434   1.963   .     S
O429   Zn434   1.918   .     S
O429   C431    1.302   .     A
O430   C432    1.303   .     A
O430   Zn433   1.918   .     S
C431   C435    1.458   .     S
C432   C436    1.459   .     S
Zn433  N473    2.033   .     S
Zn434  N474    2.033   .     S
C435   C441    1.386   .     A
C435   C439    1.397   .     A
C436   C440    1.398   .     A
C436   C442    1.392   .     A
C437   C445    1.411   .     A
C437   H457    1.081   .     S
C437   C439    1.394   .     A
C438   C446    1.410   .     A
C438   H458    1.081   .     S
C438   C440    1.393   .     A
C439   H456    1.080   .     S
C440   H455    1.083   .     S
C441   C443    1.397   .     A
C441   H454    1.080   .     S
C442   C444    1.396   .     A
C442   H453    1.079   .     S
C443   C445    1.421   .     A
C443   C447    1.413   .     A
C444   C448    1.416   .     A
C444   C446    1.422   .     A
C445   C1081   1.410   .     S
C446   C1082   1.407   1_554 S
C447   C450    1.411   .     A
C447   C1078   1.405   .     S
C448   C449    1.414   .     A
C448   C1077   1.405   1_554 S
C449   H459    1.080   .     S
C449   C451    1.399   .     A
C450   H460    1.079   .     S
C450   C452    1.394   .     A
C451   N475    1.439   .     S
C451   C1075   1.410   1_554 S
C452   N478    1.435   .     S
C452   C1076   1.407   .     S
C461   Cl481   1.764   .     S
C461   C468    1.400   .     A
C461   C43     1.375   1_565 S
C462   Cl482   1.763   .     S
C462   C467    1.400   .     A
C463   H465    1.084   .     S
C463   C467    1.394   .     A
C464   H466    1.083   .     S
C464   C468    1.393   .     A
C464   C42     1.373   1_565 S
C469   N483    1.428   .     S
C469   N474    1.372   .     A
C469   C541    1.426   .     S
C470   N473    1.375   .     A
C470   N486    1.430   .     S
C470   C612    1.426   1_455 S
C471   N473    1.372   .     A
C471   Cl489   1.760   .     S
C471   C609    1.426   1_455 S
C472   N474    1.371   .     A
C472   Cl490   1.760   .     S
C472   C540    1.426   .     S
N475   O476    1.301   .     A
N475   O477    1.300   .     A
N478   O480    1.301   .     A
N478   O479    1.300   .     A
N483   O485    1.299   .     A
N483   O484    1.301   .     A
N486   O487    1.301   .     A
N486   O488    1.298   .     A
O491   C495    1.290   .     A
O491   Zn503   1.985   .     S
O492   C496    1.290   .     A
O492   Zn504   1.985   .     S
O493   C495    1.288   .     A
O493   Zn504   1.985   .     S
O494   C496    1.288   .     A
O494   Zn503   1.985   .     S
C495   C538    1.408   .     S
C496   C537    1.408   .     S
O497   C501    1.301   .     A
O497   Zn503   1.963   .     S
O498   C502    1.301   .     A
O498   Zn504   1.963   .     S
O499   Zn504   1.918   .     S
O499   C501    1.302   .     A
O500   C502    1.303   .     A
O500   Zn503   1.918   .     S
C501   C505    1.458   .     S
C502   C506    1.459   .     S
Zn503  N543    2.033   .     S
Zn504  N544    2.033   .     S
C505   C511    1.386   .     A
C505   C509    1.397   .     A
C506   C510    1.398   .     A
C506   C512    1.392   .     A
C507   C515    1.411   .     A
C507   H527    1.081   .     S
C507   C509    1.394   .     A
C508   C516    1.410   .     A
C508   H528    1.081   .     S
C508   C510    1.393   .     A
C509   H526    1.080   .     S
C510   H525    1.083   .     S
C511   C513    1.397   .     A
C511   H524    1.080   .     S
C512   C514    1.396   .     A
C512   H523    1.079   .     S
C513   C515    1.421   .     A
C513   C517    1.413   .     A
C514   C518    1.416   .     A
C514   C516    1.422   .     A
C515   C1151   1.410   .     S
C516   C1152   1.407   1_554 S
C517   C520    1.411   .     A
C517   C1148   1.405   .     S
C518   C519    1.414   .     A
C518   C1147   1.405   1_554 S
C519   H529    1.080   .     S
C519   C521    1.399   .     A
C520   H530    1.079   .     S
C520   C522    1.394   .     A
C521   N545    1.439   .     S
C521   C1145   1.410   1_554 S
C522   N548    1.435   .     S
C522   C1146   1.407   .     S
C531   Cl551   1.764   .     S
C531   C538    1.400   .     A
C531   C113    1.375   1_565 S
C532   Cl552   1.763   .     S
C532   C537    1.400   .     A
C533   H535    1.084   .     S
C533   C537    1.394   .     A
C534   H536    1.083   .     S
C534   C538    1.393   .     A
C534   C112    1.373   1_565 S
C539   N553    1.428   .     S
C539   N544    1.372   .     A
C539   C611    1.426   .     S
C540   N543    1.375   .     A
C540   N556    1.430   .     S
C541   N543    1.372   .     A
C541   Cl559   1.760   .     S
C542   N544    1.371   .     A
C542   Cl560   1.760   .     S
C542   C610    1.426   .     S
N545   O546    1.301   .     A
N545   O547    1.300   .     A
N548   O550    1.301   .     A
N548   O549    1.300   .     A
N553   O555    1.299   .     A
N553   O554    1.301   .     A
N556   O557    1.301   .     A
N556   O558    1.298   .     A
O561   C565    1.290   .     A
O561   Zn573   1.985   .     S
O562   C566    1.290   .     A
O562   Zn574   1.985   .     S
O563   C565    1.288   .     A
O563   Zn574   1.985   .     S
O564   C566    1.288   .     A
O564   Zn573   1.985   .     S
C565   C608    1.408   .     S
C566   C607    1.408   .     S
O567   C571    1.301   .     A
O567   Zn573   1.963   .     S
O568   C572    1.301   .     A
O568   Zn574   1.963   .     S
O569   Zn574   1.918   .     S
O569   C571    1.302   .     A
O570   C572    1.303   .     A
O570   Zn573   1.918   .     S
C571   C575    1.458   .     S
C572   C576    1.459   .     S
Zn573  N613    2.033   .     S
Zn574  N614    2.033   .     S
C575   C581    1.386   .     A
C575   C579    1.397   .     A
C576   C580    1.398   .     A
C576   C582    1.392   .     A
C577   C585    1.411   .     A
C577   H597    1.081   .     S
C577   C579    1.394   .     A
C578   C586    1.410   .     A
C578   H598    1.081   .     S
C578   C580    1.393   .     A
C579   H596    1.080   .     S
C580   H595    1.083   .     S
C581   C583    1.397   .     A
C581   H594    1.080   .     S
C582   C584    1.396   .     A
C582   H593    1.079   .     S
C583   C585    1.421   .     A
C583   C587    1.413   .     A
C584   C588    1.416   .     A
C584   C586    1.422   .     A
C585   C1221   1.410   .     S
C586   C1222   1.407   1_554 S
C587   C590    1.411   .     A
C587   C1218   1.405   .     S
C588   C589    1.414   .     A
C588   C1217   1.405   1_554 S
C589   H599    1.080   .     S
C589   C591    1.399   .     A
C590   H600    1.079   .     S
C590   C592    1.394   .     A
C591   N615    1.439   .     S
C591   C1215   1.410   1_554 S
C592   N618    1.435   .     S
C592   C1216   1.407   .     S
C601   Cl621   1.764   .     S
C601   C608    1.400   .     A
C601   C183    1.375   1_565 S
C602   Cl622   1.763   .     S
C602   C607    1.400   .     A
C603   H605    1.084   .     S
C603   C607    1.394   .     A
C604   H606    1.083   .     S
C604   C608    1.393   .     A
C604   C182    1.373   1_565 S
C609   N623    1.428   .     S
C609   N614    1.372   .     A
C609   C471    1.426   1_655 S
C610   N613    1.375   .     A
C610   N626    1.430   .     S
C611   N613    1.372   .     A
C611   Cl629   1.760   .     S
C612   N614    1.371   .     A
C612   Cl630   1.760   .     S
C612   C470    1.426   1_655 S
N615   O616    1.301   .     A
N615   O617    1.300   .     A
N618   O620    1.301   .     A
N618   O619    1.300   .     A
N623   O625    1.299   .     A
N623   O624    1.301   .     A
N626   O627    1.301   .     A
N626   O628    1.298   .     A
O631   C635    1.290   .     A
O631   Zn643   1.985   .     S
O632   C636    1.290   .     A
O632   Zn644   1.985   .     S
O633   C635    1.288   .     A
O633   Zn644   1.985   .     S
O634   C636    1.288   .     A
O634   Zn643   1.985   .     S
C635   C678    1.408   .     S
C636   C677    1.408   .     S
O637   C641    1.301   .     A
O637   Zn643   1.963   .     S
O638   C642    1.301   .     A
O638   Zn644   1.963   .     S
O639   Zn644   1.918   .     S
O639   C641    1.302   .     A
O640   C642    1.303   .     A
O640   Zn643   1.918   .     S
C641   C645    1.458   .     S
C642   C646    1.459   .     S
Zn643  N683    2.033   .     S
Zn644  N684    2.033   .     S
C645   C651    1.386   .     A
C645   C649    1.397   .     A
C646   C650    1.398   .     A
C646   C652    1.392   .     A
C647   C655    1.411   .     A
C647   H667    1.081   .     S
C647   C649    1.394   .     A
C648   C656    1.410   .     A
C648   H668    1.081   .     S
C648   C650    1.393   .     A
C649   H666    1.080   .     S
C650   H665    1.083   .     S
C651   C653    1.397   .     A
C651   H664    1.080   .     S
C652   C654    1.396   .     A
C652   H663    1.079   .     S
C653   C655    1.421   .     A
C653   C657    1.413   .     A
C654   C658    1.416   .     A
C654   C656    1.422   .     A
C655   C31     1.410   1_556 S
C657   C660    1.411   .     A
C657   C28     1.405   1_556 S
C658   C659    1.414   .     A
C659   H669    1.080   .     S
C659   C661    1.399   .     A
C660   H670    1.079   .     S
C660   C662    1.394   .     A
C661   N685    1.439   .     S
C662   N688    1.435   .     S
C662   C26     1.407   1_556 S
C671   Cl691   1.764   .     S
C671   C678    1.400   .     A
C671   C883    1.375   .     S
C672   Cl692   1.763   .     S
C672   C677    1.400   .     A
C672   C1094   1.373   1_545 S
C673   H675    1.084   .     S
C673   C677    1.394   .     A
C673   C1091   1.375   1_545 S
C674   H676    1.083   .     S
C674   C678    1.393   .     A
C674   C882    1.373   .     S
C679   N693    1.428   .     S
C679   N684    1.372   .     A
C679   C751    1.426   .     S
C680   N683    1.375   .     A
C680   N696    1.430   .     S
C680   C822    1.426   1_455 S
C681   N683    1.372   .     A
C681   Cl699   1.760   .     S
C681   C819    1.426   1_455 S
C682   N684    1.371   .     A
C682   Cl700   1.760   .     S
C682   C750    1.426   .     S
N685   O686    1.301   .     A
N685   O687    1.300   .     A
N688   O690    1.301   .     A
N688   O689    1.300   .     A
N693   O695    1.299   .     A
N693   O694    1.301   .     A
N696   O697    1.301   .     A
N696   O698    1.298   .     A
O701   C705    1.290   .     A
O701   Zn713   1.985   .     S
O702   C706    1.290   .     A
O702   Zn714   1.985   .     S
O703   C705    1.288   .     A
O703   Zn714   1.985   .     S
O704   C706    1.288   .     A
O704   Zn713   1.985   .     S
C705   C748    1.408   .     S
C706   C747    1.408   .     S
O707   C711    1.301   .     A
O707   Zn713   1.963   .     S
O708   C712    1.301   .     A
O708   Zn714   1.963   .     S
O709   Zn714   1.918   .     S
O709   C711    1.302   .     A
O710   C712    1.303   .     A
O710   Zn713   1.918   .     S
C711   C715    1.458   .     S
C712   C716    1.459   .     S
Zn713  N753    2.033   .     S
Zn714  N754    2.033   .     S
C715   C721    1.386   .     A
C715   C719    1.397   .     A
C716   C720    1.398   .     A
C716   C722    1.392   .     A
C717   C725    1.411   .     A
C717   H737    1.081   .     S
C717   C719    1.394   .     A
C718   C726    1.410   .     A
C718   H738    1.081   .     S
C718   C720    1.393   .     A
C719   H736    1.080   .     S
C720   H735    1.083   .     S
C721   C723    1.397   .     A
C721   H734    1.080   .     S
C722   C724    1.396   .     A
C722   H733    1.079   .     S
C723   C725    1.421   .     A
C723   C727    1.413   .     A
C724   C728    1.416   .     A
C724   C726    1.422   .     A
C725   C101    1.410   1_556 S
C727   C730    1.411   .     A
C727   C98     1.405   1_556 S
C728   C729    1.414   .     A
C729   H739    1.080   .     S
C729   C731    1.399   .     A
C730   H740    1.079   .     S
C730   C732    1.394   .     A
C731   N755    1.439   .     S
C732   N758    1.435   .     S
C732   C96     1.407   1_556 S
C741   Cl761   1.764   .     S
C741   C748    1.400   .     A
C741   C953    1.375   .     S
C742   Cl762   1.763   .     S
C742   C747    1.400   .     A
C742   C1164   1.373   1_545 S
C743   H745    1.084   .     S
C743   C747    1.394   .     A
C743   C1161   1.375   1_545 S
C744   H746    1.083   .     S
C744   C748    1.393   .     A
C744   C952    1.373   .     S
C749   N763    1.428   .     S
C749   N754    1.372   .     A
C749   C821    1.426   .     S
C750   N753    1.375   .     A
C750   N766    1.430   .     S
C751   N753    1.372   .     A
C751   Cl769   1.760   .     S
C752   N754    1.371   .     A
C752   Cl770   1.760   .     S
C752   C820    1.426   .     S
N755   O756    1.301   .     A
N755   O757    1.300   .     A
N758   O760    1.301   .     A
N758   O759    1.300   .     A
N763   O765    1.299   .     A
N763   O764    1.301   .     A
N766   O767    1.301   .     A
N766   O768    1.298   .     A
O771   C775    1.290   .     A
O771   Zn783   1.985   .     S
O772   C776    1.290   .     A
O772   Zn784   1.985   .     S
O773   C775    1.288   .     A
O773   Zn784   1.985   .     S
O774   C776    1.288   .     A
O774   Zn783   1.985   .     S
C775   C818    1.408   .     S
C776   C817    1.408   .     S
O777   C781    1.301   .     A
O777   Zn783   1.963   .     S
O778   C782    1.301   .     A
O778   Zn784   1.963   .     S
O779   Zn784   1.918   .     S
O779   C781    1.302   .     A
O780   C782    1.303   .     A
O780   Zn783   1.918   .     S
C781   C785    1.458   .     S
C782   C786    1.459   .     S
Zn783  N823    2.033   .     S
Zn784  N824    2.033   .     S
C785   C791    1.386   .     A
C785   C789    1.397   .     A
C786   C790    1.398   .     A
C786   C792    1.392   .     A
C787   C795    1.411   .     A
C787   H807    1.081   .     S
C787   C789    1.394   .     A
C788   C796    1.410   .     A
C788   H808    1.081   .     S
C788   C790    1.393   .     A
C789   H806    1.080   .     S
C790   H805    1.083   .     S
C791   C793    1.397   .     A
C791   H804    1.080   .     S
C792   C794    1.396   .     A
C792   H803    1.079   .     S
C793   C795    1.421   .     A
C793   C797    1.413   .     A
C794   C798    1.416   .     A
C794   C796    1.422   .     A
C795   C171    1.410   1_556 S
C797   C800    1.411   .     A
C797   C168    1.405   1_556 S
C798   C799    1.414   .     A
C799   H809    1.080   .     S
C799   C801    1.399   .     A
C800   H810    1.079   .     S
C800   C802    1.394   .     A
C801   N825    1.439   .     S
C802   N828    1.435   .     S
C802   C166    1.407   1_556 S
C811   Cl831   1.764   .     S
C811   C818    1.400   .     A
C811   C1023   1.375   .     S
C812   Cl832   1.763   .     S
C812   C817    1.400   .     A
C812   C1234   1.373   1_545 S
C813   H815    1.084   .     S
C813   C817    1.394   .     A
C813   C1231   1.375   1_545 S
C814   H816    1.083   .     S
C814   C818    1.393   .     A
C814   C1022   1.373   .     S
C819   N833    1.428   .     S
C819   N824    1.372   .     A
C819   C681    1.426   1_655 S
C820   N823    1.375   .     A
C820   N836    1.430   .     S
C821   N823    1.372   .     A
C821   Cl839   1.760   .     S
C822   N824    1.371   .     A
C822   Cl840   1.760   .     S
C822   C680    1.426   1_655 S
N825   O826    1.301   .     A
N825   O827    1.300   .     A
N828   O830    1.301   .     A
N828   O829    1.300   .     A
N833   O835    1.299   .     A
N833   O834    1.301   .     A
N836   O837    1.301   .     A
N836   O838    1.298   .     A
O841   C845    1.290   .     A
O841   Zn853   1.985   .     S
O842   C846    1.290   .     A
O842   Zn854   1.985   .     S
O843   C845    1.288   .     A
O843   Zn854   1.985   .     S
O844   C846    1.288   .     A
O844   Zn853   1.985   .     S
C845   C888    1.408   .     S
C846   C887    1.408   .     S
O847   C851    1.301   .     A
O847   Zn853   1.963   .     S
O848   C852    1.301   .     A
O848   Zn854   1.963   .     S
O849   Zn854   1.918   .     S
O849   C851    1.302   .     A
O850   C852    1.303   .     A
O850   Zn853   1.918   .     S
C851   C855    1.458   .     S
C852   C856    1.459   .     S
Zn853  N893    2.033   .     S
Zn854  N894    2.033   .     S
C855   C861    1.386   .     A
C855   C859    1.397   .     A
C856   C860    1.398   .     A
C856   C862    1.392   .     A
C857   C865    1.411   .     A
C857   H877    1.081   .     S
C857   C859    1.394   .     A
C858   C866    1.410   .     A
C858   H878    1.081   .     S
C858   C860    1.393   .     A
C859   H876    1.080   .     S
C860   H875    1.083   .     S
C861   C863    1.397   .     A
C861   H874    1.080   .     S
C862   C864    1.396   .     A
C862   H873    1.079   .     S
C863   C865    1.421   .     A
C863   C867    1.413   .     A
C864   C868    1.416   .     A
C864   C866    1.422   .     A
C865   C241    1.410   1_556 S
C867   C870    1.411   .     A
C867   C238    1.405   1_556 S
C868   C869    1.414   .     A
C869   H879    1.080   .     S
C869   C871    1.399   .     A
C870   H880    1.079   .     S
C870   C872    1.394   .     A
C871   N895    1.439   .     S
C872   N898    1.435   .     S
C872   C236    1.407   1_556 S
C881   Cl901   1.764   .     S
C881   C888    1.400   .     A
C881   C1093   1.375   .     S
C882   Cl902   1.763   .     S
C882   C887    1.400   .     A
C883   H885    1.084   .     S
C883   C887    1.394   .     A
C884   H886    1.083   .     S
C884   C888    1.393   .     A
C884   C1092   1.373   .     S
C889   N903    1.428   .     S
C889   N894    1.372   .     A
C889   C961    1.426   .     S
C890   N893    1.375   .     A
C890   N906    1.430   .     S
C890   C1032   1.426   1_455 S
C891   N893    1.372   .     A
C891   Cl909   1.760   .     S
C891   C1029   1.426   1_455 S
C892   N894    1.371   .     A
C892   Cl910   1.760   .     S
C892   C960    1.426   .     S
N895   O896    1.301   .     A
N895   O897    1.300   .     A
N898   O900    1.301   .     A
N898   O899    1.300   .     A
N903   O905    1.299   .     A
N903   O904    1.301   .     A
N906   O907    1.301   .     A
N906   O908    1.298   .     A
O911   C915    1.290   .     A
O911   Zn923   1.985   .     S
O912   C916    1.290   .     A
O912   Zn924   1.985   .     S
O913   C915    1.288   .     A
O913   Zn924   1.985   .     S
O914   C916    1.288   .     A
O914   Zn923   1.985   .     S
C915   C958    1.408   .     S
C916   C957    1.408   .     S
O917   C921    1.301   .     A
O917   Zn923   1.963   .     S
O918   C922    1.301   .     A
O918   Zn924   1.963   .     S
O919   Zn924   1.918   .     S
O919   C921    1.302   .     A
O920   C922    1.303   .     A
O920   Zn923   1.918   .     S
C921   C925    1.458   .     S
C922   C926    1.459   .     S
Zn923  N963    2.033   .     S
Zn924  N964    2.033   .     S
C925   C931    1.386   .     A
C925   C929    1.397   .     A
C926   C930    1.398   .     A
C926   C932    1.392   .     A
C927   C935    1.411   .     A
C927   H947    1.081   .     S
C927   C929    1.394   .     A
C928   C936    1.410   .     A
C928   H948    1.081   .     S
C928   C930    1.393   .     A
C929   H946    1.080   .     S
C930   H945    1.083   .     S
C931   C933    1.397   .     A
C931   H944    1.080   .     S
C932   C934    1.396   .     A
C932   H943    1.079   .     S
C933   C935    1.421   .     A
C933   C937    1.413   .     A
C934   C938    1.416   .     A
C934   C936    1.422   .     A
C935   C311    1.410   1_556 S
C937   C940    1.411   .     A
C937   C308    1.405   1_556 S
C938   C939    1.414   .     A
C939   H949    1.080   .     S
C939   C941    1.399   .     A
C940   H950    1.079   .     S
C940   C942    1.394   .     A
C941   N965    1.439   .     S
C942   N968    1.435   .     S
C942   C306    1.407   1_556 S
C951   Cl971   1.764   .     S
C951   C958    1.400   .     A
C951   C1163   1.375   .     S
C952   Cl972   1.763   .     S
C952   C957    1.400   .     A
C953   H955    1.084   .     S
C953   C957    1.394   .     A
C954   H956    1.083   .     S
C954   C958    1.393   .     A
C954   C1162   1.373   .     S
C959   N973    1.428   .     S
C959   N964    1.372   .     A
C959   C1031   1.426   .     S
C960   N963    1.375   .     A
C960   N976    1.430   .     S
C961   N963    1.372   .     A
C961   Cl979   1.760   .     S
C962   N964    1.371   .     A
C962   Cl980   1.760   .     S
C962   C1030   1.426   .     S
N965   O966    1.301   .     A
N965   O967    1.300   .     A
N968   O970    1.301   .     A
N968   O969    1.300   .     A
N973   O975    1.299   .     A
N973   O974    1.301   .     A
N976   O977    1.301   .     A
N976   O978    1.298   .     A
O981   C985    1.290   .     A
O981   Zn993   1.985   .     S
O982   C986    1.290   .     A
O982   Zn994   1.985   .     S
O983   C985    1.288   .     A
O983   Zn994   1.985   .     S
O984   C986    1.288   .     A
O984   Zn993   1.985   .     S
C985   C1028   1.408   .     S
C986   C1027   1.408   .     S
O987   C991    1.301   .     A
O987   Zn993   1.963   .     S
O988   C992    1.301   .     A
O988   Zn994   1.963   .     S
O989   Zn994   1.918   .     S
O989   C991    1.302   .     A
O990   C992    1.303   .     A
O990   Zn993   1.918   .     S
C991   C995    1.458   .     S
C992   C996    1.459   .     S
Zn993  N1033   2.033   .     S
Zn994  N1034   2.033   .     S
C995   C1001   1.386   .     A
C995   C999    1.397   .     A
C996   C1000   1.398   .     A
C996   C1002   1.392   .     A
C997   C1005   1.411   .     A
C997   H1017   1.081   .     S
C997   C999    1.394   .     A
C998   C1006   1.410   .     A
C998   H1018   1.081   .     S
C998   C1000   1.393   .     A
C999   H1016   1.080   .     S
C1000  H1015   1.083   .     S
C1001  C1003   1.397   .     A
C1001  H1014   1.080   .     S
C1002  C1004   1.396   .     A
C1002  H1013   1.079   .     S
C1003  C1005   1.421   .     A
C1003  C1007   1.413   .     A
C1004  C1008   1.416   .     A
C1004  C1006   1.422   .     A
C1005  C381    1.410   1_556 S
C1007  C1010   1.411   .     A
C1007  C378    1.405   1_556 S
C1008  C1009   1.414   .     A
C1009  H1019   1.080   .     S
C1009  C1011   1.399   .     A
C1010  H1020   1.079   .     S
C1010  C1012   1.394   .     A
C1011  N1035   1.439   .     S
C1012  N1038   1.435   .     S
C1012  C376    1.407   1_556 S
C1021  Cl1041  1.764   .     S
C1021  C1028   1.400   .     A
C1021  C1233   1.375   .     S
C1022  Cl1042  1.763   .     S
C1022  C1027   1.400   .     A
C1023  H1025   1.084   .     S
C1023  C1027   1.394   .     A
C1024  H1026   1.083   .     S
C1024  C1028   1.393   .     A
C1024  C1232   1.373   .     S
C1029  N1043   1.428   .     S
C1029  N1034   1.372   .     A
C1029  C891    1.426   1_655 S
C1030  N1033   1.375   .     A
C1030  N1046   1.430   .     S
C1031  N1033   1.372   .     A
C1031  Cl1049  1.760   .     S
C1032  N1034   1.371   .     A
C1032  Cl1050  1.760   .     S
C1032  C890    1.426   1_655 S
N1035  O1036   1.301   .     A
N1035  O1037   1.300   .     A
N1038  O1040   1.301   .     A
N1038  O1039   1.300   .     A
N1043  O1045   1.299   .     A
N1043  O1044   1.301   .     A
N1046  O1047   1.301   .     A
N1046  O1048   1.298   .     A
O1051  C1055   1.290   .     A
O1051  Zn1063  1.985   .     S
O1052  C1056   1.290   .     A
O1052  Zn1064  1.985   .     S
O1053  C1055   1.288   .     A
O1053  Zn1064  1.985   .     S
O1054  C1056   1.288   .     A
O1054  Zn1063  1.985   .     S
C1055  C1098   1.408   .     S
C1056  C1097   1.408   .     S
O1057  C1061   1.301   .     A
O1057  Zn1063  1.963   .     S
O1058  C1062   1.301   .     A
O1058  Zn1064  1.963   .     S
O1059  Zn1064  1.918   .     S
O1059  C1061   1.302   .     A
O1060  C1062   1.303   .     A
O1060  Zn1063  1.918   .     S
C1061  C1065   1.458   .     S
C1062  C1066   1.459   .     S
Zn1063 N1103   2.033   .     S
Zn1064 N1104   2.033   .     S
C1065  C1071   1.386   .     A
C1065  C1069   1.397   .     A
C1066  C1070   1.398   .     A
C1066  C1072   1.392   .     A
C1067  C1075   1.411   .     A
C1067  H1087   1.081   .     S
C1067  C1069   1.394   .     A
C1068  C1076   1.410   .     A
C1068  H1088   1.081   .     S
C1068  C1070   1.393   .     A
C1069  H1086   1.080   .     S
C1070  H1085   1.083   .     S
C1071  C1073   1.397   .     A
C1071  H1084   1.080   .     S
C1072  C1074   1.396   .     A
C1072  H1083   1.079   .     S
C1073  C1075   1.421   .     A
C1073  C1077   1.413   .     A
C1074  C1078   1.416   .     A
C1074  C1076   1.422   .     A
C1075  C451    1.410   1_556 S
C1077  C1080   1.411   .     A
C1077  C448    1.405   1_556 S
C1078  C1079   1.414   .     A
C1079  H1089   1.080   .     S
C1079  C1081   1.399   .     A
C1080  H1090   1.079   .     S
C1080  C1082   1.394   .     A
C1081  N1105   1.439   .     S
C1082  N1108   1.435   .     S
C1082  C446    1.407   1_556 S
C1091  Cl1111  1.764   .     S
C1091  C1098   1.400   .     A
C1091  C673    1.375   1_565 S
C1092  Cl1112  1.763   .     S
C1092  C1097   1.400   .     A
C1093  H1095   1.084   .     S
C1093  C1097   1.394   .     A
C1094  H1096   1.083   .     S
C1094  C1098   1.393   .     A
C1094  C672    1.373   1_565 S
C1099  N1113   1.428   .     S
C1099  N1104   1.372   .     A
C1099  C1171   1.426   .     S
C1100  N1103   1.375   .     A
C1100  N1116   1.430   .     S
C1100  C1242   1.426   1_455 S
C1101  N1103   1.372   .     A
C1101  Cl1119  1.760   .     S
C1101  C1239   1.426   1_455 S
C1102  N1104   1.371   .     A
C1102  Cl1120  1.760   .     S
C1102  C1170   1.426   .     S
N1105  O1106   1.301   .     A
N1105  O1107   1.300   .     A
N1108  O1110   1.301   .     A
N1108  O1109   1.300   .     A
N1113  O1115   1.299   .     A
N1113  O1114   1.301   .     A
N1116  O1117   1.301   .     A
N1116  O1118   1.298   .     A
O1121  C1125   1.290   .     A
O1121  Zn1133  1.985   .     S
O1122  C1126   1.290   .     A
O1122  Zn1134  1.985   .     S
O1123  C1125   1.288   .     A
O1123  Zn1134  1.985   .     S
O1124  C1126   1.288   .     A
O1124  Zn1133  1.985   .     S
C1125  C1168   1.408   .     S
C1126  C1167   1.408   .     S
O1127  C1131   1.301   .     A
O1127  Zn1133  1.963   .     S
O1128  C1132   1.301   .     A
O1128  Zn1134  1.963   .     S
O1129  Zn1134  1.918   .     S
O1129  C1131   1.302   .     A
O1130  C1132   1.303   .     A
O1130  Zn1133  1.918   .     S
C1131  C1135   1.458   .     S
C1132  C1136   1.459   .     S
Zn1133 N1173   2.033   .     S
Zn1134 N1174   2.033   .     S
C1135  C1141   1.386   .     A
C1135  C1139   1.397   .     A
C1136  C1140   1.398   .     A
C1136  C1142   1.392   .     A
C1137  C1145   1.411   .     A
C1137  H1157   1.081   .     S
C1137  C1139   1.394   .     A
C1138  C1146   1.410   .     A
C1138  H1158   1.081   .     S
C1138  C1140   1.393   .     A
C1139  H1156   1.080   .     S
C1140  H1155   1.083   .     S
C1141  C1143   1.397   .     A
C1141  H1154   1.080   .     S
C1142  C1144   1.396   .     A
C1142  H1153   1.079   .     S
C1143  C1145   1.421   .     A
C1143  C1147   1.413   .     A
C1144  C1148   1.416   .     A
C1144  C1146   1.422   .     A
C1145  C521    1.410   1_556 S
C1147  C1150   1.411   .     A
C1147  C518    1.405   1_556 S
C1148  C1149   1.414   .     A
C1149  H1159   1.080   .     S
C1149  C1151   1.399   .     A
C1150  H1160   1.079   .     S
C1150  C1152   1.394   .     A
C1151  N1175   1.439   .     S
C1152  N1178   1.435   .     S
C1152  C516    1.407   1_556 S
C1161  Cl1181  1.764   .     S
C1161  C1168   1.400   .     A
C1161  C743    1.375   1_565 S
C1162  Cl1182  1.763   .     S
C1162  C1167   1.400   .     A
C1163  H1165   1.084   .     S
C1163  C1167   1.394   .     A
C1164  H1166   1.083   .     S
C1164  C1168   1.393   .     A
C1164  C742    1.373   1_565 S
C1169  N1183   1.428   .     S
C1169  N1174   1.372   .     A
C1169  C1241   1.426   .     S
C1170  N1173   1.375   .     A
C1170  N1186   1.430   .     S
C1171  N1173   1.372   .     A
C1171  Cl1189  1.760   .     S
C1172  N1174   1.371   .     A
C1172  Cl1190  1.760   .     S
C1172  C1240   1.426   .     S
N1175  O1176   1.301   .     A
N1175  O1177   1.300   .     A
N1178  O1180   1.301   .     A
N1178  O1179   1.300   .     A
N1183  O1185   1.299   .     A
N1183  O1184   1.301   .     A
N1186  O1187   1.301   .     A
N1186  O1188   1.298   .     A
O1191  C1195   1.290   .     A
O1191  Zn1203  1.985   .     S
O1192  C1196   1.290   .     A
O1192  Zn1204  1.985   .     S
O1193  C1195   1.288   .     A
O1193  Zn1204  1.985   .     S
O1194  C1196   1.288   .     A
O1194  Zn1203  1.985   .     S
C1195  C1238   1.408   .     S
C1196  C1237   1.408   .     S
O1197  C1201   1.301   .     A
O1197  Zn1203  1.963   .     S
O1198  C1202   1.301   .     A
O1198  Zn1204  1.963   .     S
O1199  Zn1204  1.918   .     S
O1199  C1201   1.302   .     A
O1200  C1202   1.303   .     A
O1200  Zn1203  1.918   .     S
C1201  C1205   1.458   .     S
C1202  C1206   1.459   .     S
Zn1203 N1243   2.033   .     S
Zn1204 N1244   2.033   .     S
C1205  C1211   1.386   .     A
C1205  C1209   1.397   .     A
C1206  C1210   1.398   .     A
C1206  C1212   1.392   .     A
C1207  C1215   1.411   .     A
C1207  H1227   1.081   .     S
C1207  C1209   1.394   .     A
C1208  C1216   1.410   .     A
C1208  H1228   1.081   .     S
C1208  C1210   1.393   .     A
C1209  H1226   1.080   .     S
C1210  H1225   1.083   .     S
C1211  C1213   1.397   .     A
C1211  H1224   1.080   .     S
C1212  C1214   1.396   .     A
C1212  H1223   1.079   .     S
C1213  C1215   1.421   .     A
C1213  C1217   1.413   .     A
C1214  C1218   1.416   .     A
C1214  C1216   1.422   .     A
C1215  C591    1.410   1_556 S
C1217  C1220   1.411   .     A
C1217  C588    1.405   1_556 S
C1218  C1219   1.414   .     A
C1219  H1229   1.080   .     S
C1219  C1221   1.399   .     A
C1220  H1230   1.079   .     S
C1220  C1222   1.394   .     A
C1221  N1245   1.439   .     S
C1222  N1248   1.435   .     S
C1222  C586    1.407   1_556 S
C1231  Cl1251  1.764   .     S
C1231  C1238   1.400   .     A
C1231  C813    1.375   1_565 S
C1232  Cl1252  1.763   .     S
C1232  C1237   1.400   .     A
C1233  H1235   1.084   .     S
C1233  C1237   1.394   .     A
C1234  H1236   1.083   .     S
C1234  C1238   1.393   .     A
C1234  C812    1.373   1_565 S
C1239  N1253   1.428   .     S
C1239  N1244   1.372   .     A
C1239  C1101   1.426   1_655 S
C1240  N1243   1.375   .     A
C1240  N1256   1.430   .     S
C1241  N1243   1.372   .     A
C1241  Cl1259  1.760   .     S
C1242  N1244   1.371   .     A
C1242  Cl1260  1.760   .     S
C1242  C1100   1.426   1_655 S
N1245  O1246   1.301   .     A
N1245  O1247   1.300   .     A
N1248  O1250   1.301   .     A
N1248  O1249   1.300   .     A
N1253  O1255   1.299   .     A
N1253  O1254   1.301   .     A
N1256  O1257   1.301   .     A
N1256  O1258   1.298   .     A
