data_str_m3_o2_o10_pcu_sym.155
_audit_creation_date              2020-01-03
_audit_creation_method            'Materials Studio'
_symmetry_space_group_name_H-M    'P1'
_symmetry_Int_Tables_number       1
_symmetry_cell_setting            triclinic
loop_
_symmetry_equiv_pos_as_xyz
  x,y,z
_cell_length_a                    25.7220
_cell_length_b                    29.8198
_cell_length_c                    28.4719
_cell_angle_alpha                 88.9171
_cell_angle_beta                  98.0859
_cell_angle_gamma                 91.1700
loop_
_atom_site_label
_atom_site_type_symbol
_atom_site_fract_x
_atom_site_fract_y
_atom_site_fract_z
_atom_site_U_iso_or_equiv
_atom_site_adp_type
_atom_site_occupancy
O1     O     0.16667   0.18454   0.28974   0.00000  Uiso   1.00
O2     O     0.16666   0.31546   0.21026   0.00000  Uiso   1.00
O3     O     0.16667   0.18453   0.21026   0.00000  Uiso   1.00
O4     O     0.16666   0.31547   0.28974   0.00000  Uiso   1.00
C5     C     0.16670   0.16406   0.25040   0.00000  Uiso   1.00
C6     C     0.16339   0.33637   0.24915   0.00000  Uiso   1.00
O7     O     0.09058   0.25000   0.28045   0.00000  Uiso   1.00
O8     O     0.24275   0.25000   0.21955   0.00000  Uiso   1.00
O9     O     0.09058   0.24999   0.20096   0.00000  Uiso   1.00
O10    O     0.24275   0.25001   0.29904   0.00000  Uiso   1.00
C11    C     0.06712   0.24914   0.23776   0.00000  Uiso   1.00
C12    C     0.26622   0.25020   0.26233   0.00000  Uiso   1.00
Zn13   Zn    0.16667   0.25000   0.30307   0.00000  Uiso   1.00
Zn14   Zn    0.16667   0.24999   0.19693   0.00000  Uiso   1.00
C15    C     0.01222   0.24635   0.23147   0.00000  Uiso   1.00
C16    C     0.32119   0.25144   0.26900   0.00000  Uiso   1.00
H17    H     0.32528   0.23950   0.19622   0.00000  Uiso   1.00
H18    H     0.00812   0.25748   0.30456   0.00000  Uiso   1.00
C19    C     0.10315   0.05185   0.25116   0.00000  Uiso   1.00
C20    C     0.14477   0.45340   0.19865   0.00000  Uiso   1.00
C21    C     0.11250   0.09769   0.25658   0.00000  Uiso   1.00
C22    C     0.15221   0.40733   0.20219   0.00000  Uiso   1.00
C23    C     0.16151   0.11632   0.25041   0.00000  Uiso   1.00
C24    C     0.15304   0.38455   0.24630   0.00000  Uiso   1.00
C25    C     0.20240   0.08996   0.23898   0.00000  Uiso   1.00
C26    C     0.14230   0.40824   0.28645   0.00000  Uiso   1.00
C27    C     0.19346   0.04407   0.23439   0.00000  Uiso   1.00
C28    C     0.13706   0.45444   0.28308   0.00000  Uiso   1.00
C29    C     0.14433   0.02523   0.24033   0.00000  Uiso   1.00
C30    C     0.13936   0.47683   0.23991   0.00000  Uiso   1.00
C31    C     0.12404   0.22986   0.04797   0.00000  Uiso   1.00
C32    C     0.19109   0.28441   0.44987   0.00000  Uiso   1.00
H33    H     0.09029   0.21468   0.02675   0.00000  Uiso   1.00
H34    H     0.21047   0.31221   0.46945   0.00000  Uiso   1.00
C35    C     0.12583   0.22995   0.09776   0.00000  Uiso   1.00
C36    C     0.19209   0.28335   0.40058   0.00000  Uiso   1.00
N37    N     0.16667   0.24999   0.12623   0.00000  Uiso   1.00
N38    N     0.16667   0.25001   0.37377   0.00000  Uiso   1.00
C39    C     0.20729   0.26949   0.10577   0.00000  Uiso   1.00
C40    C     0.14094   0.21635   0.39529   0.00000  Uiso   1.00
C41    C     0.20707   0.26875   0.05633   0.00000  Uiso   1.00
C42    C     0.14029   0.21581   0.44468   0.00000  Uiso   1.00
H43    H     0.24022   0.28341   0.04167   0.00000  Uiso   1.00
H44    H     0.12073   0.18813   0.46052   0.00000  Uiso   1.00
C45    C     0.16507   0.24966   0.02625   0.00000  Uiso   1.00
C46    C     0.16507   0.25019   0.47304   0.00000  Uiso   1.00
N47    N     0.05221   0.03283   0.25607   0.00000  Uiso   1.00
O48    O     0.03216   0.00050   0.22881   0.00000  Uiso   1.00
O49    O     0.02440   0.04926   0.28626   0.00000  Uiso   1.00
N50    N     0.14391   0.47636   0.15354   0.00000  Uiso   1.00
O51    O     0.11237   0.00961   0.14210   0.00000  Uiso   1.00
O52    O     0.17342   0.46330   0.12301   0.00000  Uiso   1.00
F53    F     0.07301   0.12477   0.26496   0.00000  Uiso   1.00
F54    F     0.15760   0.38496   0.16208   0.00000  Uiso   1.00
N55    N     0.25281   0.10925   0.23270   0.00000  Uiso   1.00
O56    O     0.27397   0.14094   0.26029   0.00000  Uiso   1.00
O57    O     0.27932   0.09332   0.20125   0.00000  Uiso   1.00
N58    N     0.13512   0.38609   0.33031   0.00000  Uiso   1.00
O59    O     0.09532   0.35866   0.33164   0.00000  Uiso   1.00
O60    O     0.16128   0.39999   0.37000   0.00000  Uiso   1.00
F61    F     0.23331   0.01723   0.22631   0.00000  Uiso   1.00
F62    F     0.13056   0.47790   0.32229   0.00000  Uiso   1.00
F63    F     0.08626   0.20967   0.11735   0.00000  Uiso   1.00
F64    F     0.21916   0.31572   0.37978   0.00000  Uiso   1.00
N65    N     0.25094   0.29122   0.13371   0.00000  Uiso   1.00
O66    O     0.24286   0.32482   0.15993   0.00000  Uiso   1.00
O67    O     0.29791   0.28639   0.12269   0.00000  Uiso   1.00
N68    N     0.11473   0.18077   0.36809   0.00000  Uiso   1.00
O69    O     0.06768   0.18695   0.34584   0.00000  Uiso   1.00
O70    O     0.13117   0.13999   0.37596   0.00000  Uiso   1.00
O71    O     0.50000   0.18454   0.28974   0.00000  Uiso   1.00
O72    O     0.50000   0.31546   0.21026   0.00000  Uiso   1.00
O73    O     0.50000   0.18453   0.21026   0.00000  Uiso   1.00
O74    O     0.50000   0.31547   0.28974   0.00000  Uiso   1.00
C75    C     0.50004   0.16406   0.25040   0.00000  Uiso   1.00
C76    C     0.49673   0.33637   0.24915   0.00000  Uiso   1.00
O77    O     0.42392   0.25000   0.28045   0.00000  Uiso   1.00
O78    O     0.57608   0.25000   0.21955   0.00000  Uiso   1.00
O79    O     0.42392   0.24999   0.20096   0.00000  Uiso   1.00
O80    O     0.57608   0.25001   0.29904   0.00000  Uiso   1.00
C81    C     0.40046   0.24914   0.23776   0.00000  Uiso   1.00
C82    C     0.59955   0.25020   0.26233   0.00000  Uiso   1.00
Zn83   Zn    0.50000   0.25000   0.30307   0.00000  Uiso   1.00
Zn84   Zn    0.50000   0.24999   0.19693   0.00000  Uiso   1.00
C85    C     0.34555   0.24635   0.23147   0.00000  Uiso   1.00
C86    C     0.65453   0.25144   0.26900   0.00000  Uiso   1.00
H87    H     0.65862   0.23950   0.19622   0.00000  Uiso   1.00
H88    H     0.34145   0.25748   0.30456   0.00000  Uiso   1.00
C89    C     0.43648   0.05185   0.25116   0.00000  Uiso   1.00
C90    C     0.47810   0.45340   0.19865   0.00000  Uiso   1.00
C91    C     0.44583   0.09769   0.25658   0.00000  Uiso   1.00
C92    C     0.48554   0.40733   0.20219   0.00000  Uiso   1.00
C93    C     0.49485   0.11632   0.25041   0.00000  Uiso   1.00
C94    C     0.48637   0.38455   0.24630   0.00000  Uiso   1.00
C95    C     0.53573   0.08996   0.23898   0.00000  Uiso   1.00
C96    C     0.47563   0.40824   0.28645   0.00000  Uiso   1.00
C97    C     0.52680   0.04407   0.23439   0.00000  Uiso   1.00
C98    C     0.47039   0.45444   0.28308   0.00000  Uiso   1.00
C99    C     0.47766   0.02523   0.24033   0.00000  Uiso   1.00
C100   C     0.47269   0.47683   0.23991   0.00000  Uiso   1.00
C101   C     0.45737   0.22986   0.04797   0.00000  Uiso   1.00
C102   C     0.52442   0.28441   0.44987   0.00000  Uiso   1.00
H103   H     0.42362   0.21468   0.02675   0.00000  Uiso   1.00
H104   H     0.54381   0.31221   0.46945   0.00000  Uiso   1.00
C105   C     0.45916   0.22995   0.09776   0.00000  Uiso   1.00
C106   C     0.52543   0.28335   0.40058   0.00000  Uiso   1.00
N107   N     0.50000   0.24999   0.12623   0.00000  Uiso   1.00
N108   N     0.50000   0.25001   0.37377   0.00000  Uiso   1.00
C109   C     0.54062   0.26949   0.10577   0.00000  Uiso   1.00
C110   C     0.47427   0.21635   0.39529   0.00000  Uiso   1.00
C111   C     0.54041   0.26875   0.05633   0.00000  Uiso   1.00
C112   C     0.47363   0.21581   0.44468   0.00000  Uiso   1.00
H113   H     0.57355   0.28341   0.04167   0.00000  Uiso   1.00
H114   H     0.45406   0.18813   0.46052   0.00000  Uiso   1.00
C115   C     0.49840   0.24966   0.02625   0.00000  Uiso   1.00
C116   C     0.49840   0.25019   0.47304   0.00000  Uiso   1.00
N117   N     0.38554   0.03283   0.25607   0.00000  Uiso   1.00
O118   O     0.36549   0.00050   0.22881   0.00000  Uiso   1.00
O119   O     0.35774   0.04926   0.28626   0.00000  Uiso   1.00
N120   N     0.47725   0.47636   0.15354   0.00000  Uiso   1.00
O121   O     0.44570   0.00961   0.14210   0.00000  Uiso   1.00
O122   O     0.50675   0.46330   0.12301   0.00000  Uiso   1.00
F123   F     0.40634   0.12477   0.26496   0.00000  Uiso   1.00
F124   F     0.49093   0.38496   0.16208   0.00000  Uiso   1.00
N125   N     0.58615   0.10925   0.23270   0.00000  Uiso   1.00
O126   O     0.60731   0.14094   0.26029   0.00000  Uiso   1.00
O127   O     0.61266   0.09332   0.20125   0.00000  Uiso   1.00
N128   N     0.46845   0.38609   0.33031   0.00000  Uiso   1.00
O129   O     0.42865   0.35866   0.33164   0.00000  Uiso   1.00
O130   O     0.49461   0.39999   0.37000   0.00000  Uiso   1.00
F131   F     0.56664   0.01723   0.22631   0.00000  Uiso   1.00
F132   F     0.46389   0.47790   0.32229   0.00000  Uiso   1.00
F133   F     0.41959   0.20967   0.11735   0.00000  Uiso   1.00
F134   F     0.55249   0.31572   0.37978   0.00000  Uiso   1.00
N135   N     0.58427   0.29122   0.13371   0.00000  Uiso   1.00
O136   O     0.57619   0.32482   0.15993   0.00000  Uiso   1.00
O137   O     0.63125   0.28639   0.12269   0.00000  Uiso   1.00
N138   N     0.44806   0.18077   0.36809   0.00000  Uiso   1.00
O139   O     0.40102   0.18695   0.34584   0.00000  Uiso   1.00
O140   O     0.46450   0.13999   0.37596   0.00000  Uiso   1.00
O141   O     0.83334   0.18454   0.28974   0.00000  Uiso   1.00
O142   O     0.83333   0.31546   0.21026   0.00000  Uiso   1.00
O143   O     0.83334   0.18453   0.21026   0.00000  Uiso   1.00
O144   O     0.83333   0.31547   0.28974   0.00000  Uiso   1.00
C145   C     0.83337   0.16406   0.25040   0.00000  Uiso   1.00
C146   C     0.83006   0.33637   0.24915   0.00000  Uiso   1.00
O147   O     0.75725   0.25000   0.28045   0.00000  Uiso   1.00
O148   O     0.90942   0.25000   0.21955   0.00000  Uiso   1.00
O149   O     0.75725   0.24999   0.20096   0.00000  Uiso   1.00
O150   O     0.90942   0.25001   0.29904   0.00000  Uiso   1.00
C151   C     0.73379   0.24914   0.23776   0.00000  Uiso   1.00
C152   C     0.93289   0.25020   0.26233   0.00000  Uiso   1.00
Zn153  Zn    0.83333   0.25000   0.30307   0.00000  Uiso   1.00
Zn154  Zn    0.83333   0.24999   0.19693   0.00000  Uiso   1.00
C155   C     0.67888   0.24635   0.23147   0.00000  Uiso   1.00
C156   C     0.98786   0.25144   0.26900   0.00000  Uiso   1.00
H157   H     0.99195   0.23950   0.19622   0.00000  Uiso   1.00
H158   H     0.67478   0.25748   0.30456   0.00000  Uiso   1.00
C159   C     0.76982   0.05185   0.25116   0.00000  Uiso   1.00
C160   C     0.81143   0.45340   0.19865   0.00000  Uiso   1.00
C161   C     0.77917   0.09769   0.25658   0.00000  Uiso   1.00
C162   C     0.81887   0.40733   0.20219   0.00000  Uiso   1.00
C163   C     0.82818   0.11632   0.25041   0.00000  Uiso   1.00
C164   C     0.81970   0.38455   0.24630   0.00000  Uiso   1.00
C165   C     0.86907   0.08996   0.23898   0.00000  Uiso   1.00
C166   C     0.80896   0.40824   0.28645   0.00000  Uiso   1.00
C167   C     0.86013   0.04407   0.23439   0.00000  Uiso   1.00
C168   C     0.80372   0.45444   0.28308   0.00000  Uiso   1.00
C169   C     0.81100   0.02523   0.24033   0.00000  Uiso   1.00
C170   C     0.80603   0.47683   0.23991   0.00000  Uiso   1.00
C171   C     0.79070   0.22986   0.04797   0.00000  Uiso   1.00
C172   C     0.85775   0.28441   0.44987   0.00000  Uiso   1.00
H173   H     0.75695   0.21468   0.02675   0.00000  Uiso   1.00
H174   H     0.87714   0.31221   0.46945   0.00000  Uiso   1.00
C175   C     0.79249   0.22995   0.09776   0.00000  Uiso   1.00
C176   C     0.85876   0.28335   0.40058   0.00000  Uiso   1.00
N177   N     0.83333   0.24999   0.12623   0.00000  Uiso   1.00
N178   N     0.83333   0.25001   0.37377   0.00000  Uiso   1.00
C179   C     0.87396   0.26949   0.10577   0.00000  Uiso   1.00
C180   C     0.80761   0.21635   0.39529   0.00000  Uiso   1.00
C181   C     0.87374   0.26875   0.05633   0.00000  Uiso   1.00
C182   C     0.80696   0.21581   0.44468   0.00000  Uiso   1.00
H183   H     0.90689   0.28341   0.04167   0.00000  Uiso   1.00
H184   H     0.78740   0.18813   0.46052   0.00000  Uiso   1.00
C185   C     0.83173   0.24966   0.02625   0.00000  Uiso   1.00
C186   C     0.83173   0.25019   0.47304   0.00000  Uiso   1.00
N187   N     0.71888   0.03283   0.25607   0.00000  Uiso   1.00
O188   O     0.69883   0.00050   0.22881   0.00000  Uiso   1.00
O189   O     0.69107   0.04926   0.28626   0.00000  Uiso   1.00
N190   N     0.81058   0.47636   0.15354   0.00000  Uiso   1.00
O191   O     0.77903   0.00961   0.14210   0.00000  Uiso   1.00
O192   O     0.84008   0.46330   0.12301   0.00000  Uiso   1.00
F193   F     0.73968   0.12477   0.26496   0.00000  Uiso   1.00
F194   F     0.82427   0.38496   0.16208   0.00000  Uiso   1.00
N195   N     0.91948   0.10925   0.23270   0.00000  Uiso   1.00
O196   O     0.94064   0.14094   0.26029   0.00000  Uiso   1.00
O197   O     0.94599   0.09332   0.20125   0.00000  Uiso   1.00
N198   N     0.80179   0.38609   0.33031   0.00000  Uiso   1.00
O199   O     0.76199   0.35866   0.33164   0.00000  Uiso   1.00
O200   O     0.82795   0.39999   0.37000   0.00000  Uiso   1.00
F201   F     0.89997   0.01723   0.22631   0.00000  Uiso   1.00
F202   F     0.79722   0.47790   0.32229   0.00000  Uiso   1.00
F203   F     0.75293   0.20967   0.11735   0.00000  Uiso   1.00
F204   F     0.88582   0.31572   0.37978   0.00000  Uiso   1.00
N205   N     0.91761   0.29122   0.13371   0.00000  Uiso   1.00
O206   O     0.90953   0.32482   0.15993   0.00000  Uiso   1.00
O207   O     0.96458   0.28639   0.12269   0.00000  Uiso   1.00
N208   N     0.78140   0.18077   0.36809   0.00000  Uiso   1.00
O209   O     0.73435   0.18695   0.34584   0.00000  Uiso   1.00
O210   O     0.79783   0.13999   0.37596   0.00000  Uiso   1.00
O211   O     0.16667   0.68454   0.28974   0.00000  Uiso   1.00
O212   O     0.16666   0.81546   0.21026   0.00000  Uiso   1.00
O213   O     0.16667   0.68453   0.21026   0.00000  Uiso   1.00
O214   O     0.16666   0.81547   0.28974   0.00000  Uiso   1.00
C215   C     0.16670   0.66406   0.25040   0.00000  Uiso   1.00
C216   C     0.16339   0.83637   0.24915   0.00000  Uiso   1.00
O217   O     0.09058   0.75000   0.28045   0.00000  Uiso   1.00
O218   O     0.24275   0.75000   0.21955   0.00000  Uiso   1.00
O219   O     0.09058   0.74999   0.20096   0.00000  Uiso   1.00
O220   O     0.24275   0.75001   0.29904   0.00000  Uiso   1.00
C221   C     0.06712   0.74914   0.23776   0.00000  Uiso   1.00
C222   C     0.26622   0.75020   0.26233   0.00000  Uiso   1.00
Zn223  Zn    0.16667   0.75000   0.30307   0.00000  Uiso   1.00
Zn224  Zn    0.16667   0.74999   0.19693   0.00000  Uiso   1.00
C225   C     0.01222   0.74635   0.23147   0.00000  Uiso   1.00
C226   C     0.32119   0.75144   0.26900   0.00000  Uiso   1.00
H227   H     0.32528   0.73950   0.19622   0.00000  Uiso   1.00
H228   H     0.00812   0.75748   0.30456   0.00000  Uiso   1.00
C229   C     0.10315   0.55185   0.25116   0.00000  Uiso   1.00
C230   C     0.14477   0.95340   0.19865   0.00000  Uiso   1.00
C231   C     0.11250   0.59769   0.25658   0.00000  Uiso   1.00
C232   C     0.15221   0.90733   0.20219   0.00000  Uiso   1.00
C233   C     0.16151   0.61632   0.25041   0.00000  Uiso   1.00
C234   C     0.15304   0.88455   0.24630   0.00000  Uiso   1.00
C235   C     0.20240   0.58996   0.23898   0.00000  Uiso   1.00
C236   C     0.14230   0.90824   0.28645   0.00000  Uiso   1.00
C237   C     0.19346   0.54407   0.23439   0.00000  Uiso   1.00
C238   C     0.13706   0.95444   0.28308   0.00000  Uiso   1.00
C239   C     0.14433   0.52523   0.24033   0.00000  Uiso   1.00
C240   C     0.13936   0.97683   0.23991   0.00000  Uiso   1.00
C241   C     0.12404   0.72986   0.04797   0.00000  Uiso   1.00
C242   C     0.19109   0.78441   0.44987   0.00000  Uiso   1.00
H243   H     0.09029   0.71468   0.02675   0.00000  Uiso   1.00
H244   H     0.21047   0.81221   0.46945   0.00000  Uiso   1.00
C245   C     0.12583   0.72995   0.09776   0.00000  Uiso   1.00
C246   C     0.19209   0.78335   0.40058   0.00000  Uiso   1.00
N247   N     0.16667   0.74999   0.12623   0.00000  Uiso   1.00
N248   N     0.16667   0.75001   0.37377   0.00000  Uiso   1.00
C249   C     0.20729   0.76949   0.10577   0.00000  Uiso   1.00
C250   C     0.14094   0.71635   0.39529   0.00000  Uiso   1.00
C251   C     0.20707   0.76875   0.05633   0.00000  Uiso   1.00
C252   C     0.14029   0.71581   0.44468   0.00000  Uiso   1.00
H253   H     0.24022   0.78341   0.04167   0.00000  Uiso   1.00
H254   H     0.12073   0.68813   0.46052   0.00000  Uiso   1.00
C255   C     0.16507   0.74966   0.02625   0.00000  Uiso   1.00
C256   C     0.16507   0.75019   0.47304   0.00000  Uiso   1.00
N257   N     0.05221   0.53283   0.25607   0.00000  Uiso   1.00
O258   O     0.03216   0.50050   0.22881   0.00000  Uiso   1.00
O259   O     0.02440   0.54926   0.28626   0.00000  Uiso   1.00
N260   N     0.14391   0.97636   0.15354   0.00000  Uiso   1.00
O261   O     0.11237   0.50961   0.14210   0.00000  Uiso   1.00
O262   O     0.17342   0.96330   0.12301   0.00000  Uiso   1.00
F263   F     0.07301   0.62477   0.26496   0.00000  Uiso   1.00
F264   F     0.15760   0.88496   0.16208   0.00000  Uiso   1.00
N265   N     0.25281   0.60925   0.23270   0.00000  Uiso   1.00
O266   O     0.27397   0.64094   0.26029   0.00000  Uiso   1.00
O267   O     0.27932   0.59332   0.20125   0.00000  Uiso   1.00
N268   N     0.13512   0.88609   0.33031   0.00000  Uiso   1.00
O269   O     0.09532   0.85866   0.33164   0.00000  Uiso   1.00
O270   O     0.16128   0.89999   0.37000   0.00000  Uiso   1.00
F271   F     0.23331   0.51723   0.22631   0.00000  Uiso   1.00
F272   F     0.13056   0.97790   0.32229   0.00000  Uiso   1.00
F273   F     0.08626   0.70967   0.11735   0.00000  Uiso   1.00
F274   F     0.21916   0.81572   0.37978   0.00000  Uiso   1.00
N275   N     0.25094   0.79122   0.13371   0.00000  Uiso   1.00
O276   O     0.24286   0.82482   0.15993   0.00000  Uiso   1.00
O277   O     0.29791   0.78639   0.12269   0.00000  Uiso   1.00
N278   N     0.11473   0.68077   0.36809   0.00000  Uiso   1.00
O279   O     0.06768   0.68695   0.34584   0.00000  Uiso   1.00
O280   O     0.13117   0.63999   0.37596   0.00000  Uiso   1.00
O281   O     0.50000   0.68454   0.28974   0.00000  Uiso   1.00
O282   O     0.50000   0.81546   0.21026   0.00000  Uiso   1.00
O283   O     0.50000   0.68453   0.21026   0.00000  Uiso   1.00
O284   O     0.50000   0.81547   0.28974   0.00000  Uiso   1.00
C285   C     0.50004   0.66406   0.25040   0.00000  Uiso   1.00
C286   C     0.49673   0.83637   0.24915   0.00000  Uiso   1.00
O287   O     0.42392   0.75000   0.28045   0.00000  Uiso   1.00
O288   O     0.57608   0.75000   0.21955   0.00000  Uiso   1.00
O289   O     0.42392   0.74999   0.20096   0.00000  Uiso   1.00
O290   O     0.57608   0.75001   0.29904   0.00000  Uiso   1.00
C291   C     0.40046   0.74914   0.23776   0.00000  Uiso   1.00
C292   C     0.59955   0.75020   0.26233   0.00000  Uiso   1.00
Zn293  Zn    0.50000   0.75000   0.30307   0.00000  Uiso   1.00
Zn294  Zn    0.50000   0.74999   0.19693   0.00000  Uiso   1.00
C295   C     0.34555   0.74635   0.23147   0.00000  Uiso   1.00
C296   C     0.65453   0.75144   0.26900   0.00000  Uiso   1.00
H297   H     0.65862   0.73950   0.19622   0.00000  Uiso   1.00
H298   H     0.34145   0.75748   0.30456   0.00000  Uiso   1.00
C299   C     0.43648   0.55185   0.25116   0.00000  Uiso   1.00
C300   C     0.47810   0.95340   0.19865   0.00000  Uiso   1.00
C301   C     0.44583   0.59769   0.25658   0.00000  Uiso   1.00
C302   C     0.48554   0.90733   0.20219   0.00000  Uiso   1.00
C303   C     0.49485   0.61632   0.25041   0.00000  Uiso   1.00
C304   C     0.48637   0.88455   0.24630   0.00000  Uiso   1.00
C305   C     0.53573   0.58996   0.23898   0.00000  Uiso   1.00
C306   C     0.47563   0.90824   0.28645   0.00000  Uiso   1.00
C307   C     0.52680   0.54407   0.23439   0.00000  Uiso   1.00
C308   C     0.47039   0.95444   0.28308   0.00000  Uiso   1.00
C309   C     0.47766   0.52523   0.24033   0.00000  Uiso   1.00
C310   C     0.47269   0.97683   0.23991   0.00000  Uiso   1.00
C311   C     0.45737   0.72986   0.04797   0.00000  Uiso   1.00
C312   C     0.52442   0.78441   0.44987   0.00000  Uiso   1.00
H313   H     0.42362   0.71468   0.02675   0.00000  Uiso   1.00
H314   H     0.54381   0.81221   0.46945   0.00000  Uiso   1.00
C315   C     0.45916   0.72995   0.09776   0.00000  Uiso   1.00
C316   C     0.52543   0.78335   0.40058   0.00000  Uiso   1.00
N317   N     0.50000   0.74999   0.12623   0.00000  Uiso   1.00
N318   N     0.50000   0.75001   0.37377   0.00000  Uiso   1.00
C319   C     0.54062   0.76949   0.10577   0.00000  Uiso   1.00
C320   C     0.47427   0.71635   0.39529   0.00000  Uiso   1.00
C321   C     0.54041   0.76875   0.05633   0.00000  Uiso   1.00
C322   C     0.47363   0.71581   0.44468   0.00000  Uiso   1.00
H323   H     0.57355   0.78341   0.04167   0.00000  Uiso   1.00
H324   H     0.45406   0.68813   0.46052   0.00000  Uiso   1.00
C325   C     0.49840   0.74966   0.02625   0.00000  Uiso   1.00
C326   C     0.49840   0.75019   0.47304   0.00000  Uiso   1.00
N327   N     0.38554   0.53283   0.25607   0.00000  Uiso   1.00
O328   O     0.36549   0.50050   0.22881   0.00000  Uiso   1.00
O329   O     0.35774   0.54926   0.28626   0.00000  Uiso   1.00
N330   N     0.47725   0.97636   0.15354   0.00000  Uiso   1.00
O331   O     0.44570   0.50961   0.14210   0.00000  Uiso   1.00
O332   O     0.50675   0.96330   0.12301   0.00000  Uiso   1.00
F333   F     0.40634   0.62477   0.26496   0.00000  Uiso   1.00
F334   F     0.49093   0.88496   0.16208   0.00000  Uiso   1.00
N335   N     0.58615   0.60925   0.23270   0.00000  Uiso   1.00
O336   O     0.60731   0.64094   0.26029   0.00000  Uiso   1.00
O337   O     0.61266   0.59332   0.20125   0.00000  Uiso   1.00
N338   N     0.46845   0.88609   0.33031   0.00000  Uiso   1.00
O339   O     0.42865   0.85866   0.33164   0.00000  Uiso   1.00
O340   O     0.49461   0.89999   0.37000   0.00000  Uiso   1.00
F341   F     0.56664   0.51723   0.22631   0.00000  Uiso   1.00
F342   F     0.46389   0.97790   0.32229   0.00000  Uiso   1.00
F343   F     0.41959   0.70967   0.11735   0.00000  Uiso   1.00
F344   F     0.55249   0.81572   0.37978   0.00000  Uiso   1.00
N345   N     0.58427   0.79122   0.13371   0.00000  Uiso   1.00
O346   O     0.57619   0.82482   0.15993   0.00000  Uiso   1.00
O347   O     0.63125   0.78639   0.12269   0.00000  Uiso   1.00
N348   N     0.44806   0.68077   0.36809   0.00000  Uiso   1.00
O349   O     0.40102   0.68695   0.34584   0.00000  Uiso   1.00
O350   O     0.46450   0.63999   0.37596   0.00000  Uiso   1.00
O351   O     0.83334   0.68454   0.28974   0.00000  Uiso   1.00
O352   O     0.83333   0.81546   0.21026   0.00000  Uiso   1.00
O353   O     0.83334   0.68453   0.21026   0.00000  Uiso   1.00
O354   O     0.83333   0.81547   0.28974   0.00000  Uiso   1.00
C355   C     0.83337   0.66406   0.25040   0.00000  Uiso   1.00
C356   C     0.83006   0.83637   0.24915   0.00000  Uiso   1.00
O357   O     0.75725   0.75000   0.28045   0.00000  Uiso   1.00
O358   O     0.90942   0.75000   0.21955   0.00000  Uiso   1.00
O359   O     0.75725   0.74999   0.20096   0.00000  Uiso   1.00
O360   O     0.90942   0.75001   0.29904   0.00000  Uiso   1.00
C361   C     0.73379   0.74914   0.23776   0.00000  Uiso   1.00
C362   C     0.93289   0.75020   0.26233   0.00000  Uiso   1.00
Zn363  Zn    0.83333   0.75000   0.30307   0.00000  Uiso   1.00
Zn364  Zn    0.83333   0.74999   0.19693   0.00000  Uiso   1.00
C365   C     0.67888   0.74635   0.23147   0.00000  Uiso   1.00
C366   C     0.98786   0.75144   0.26900   0.00000  Uiso   1.00
H367   H     0.99195   0.73950   0.19622   0.00000  Uiso   1.00
H368   H     0.67478   0.75748   0.30456   0.00000  Uiso   1.00
C369   C     0.76982   0.55185   0.25116   0.00000  Uiso   1.00
C370   C     0.81143   0.95340   0.19865   0.00000  Uiso   1.00
C371   C     0.77917   0.59769   0.25658   0.00000  Uiso   1.00
C372   C     0.81887   0.90733   0.20219   0.00000  Uiso   1.00
C373   C     0.82818   0.61632   0.25041   0.00000  Uiso   1.00
C374   C     0.81970   0.88455   0.24630   0.00000  Uiso   1.00
C375   C     0.86907   0.58996   0.23898   0.00000  Uiso   1.00
C376   C     0.80896   0.90824   0.28645   0.00000  Uiso   1.00
C377   C     0.86013   0.54407   0.23439   0.00000  Uiso   1.00
C378   C     0.80372   0.95444   0.28308   0.00000  Uiso   1.00
C379   C     0.81100   0.52523   0.24033   0.00000  Uiso   1.00
C380   C     0.80603   0.97683   0.23991   0.00000  Uiso   1.00
C381   C     0.79070   0.72986   0.04797   0.00000  Uiso   1.00
C382   C     0.85775   0.78441   0.44987   0.00000  Uiso   1.00
H383   H     0.75695   0.71468   0.02675   0.00000  Uiso   1.00
H384   H     0.87714   0.81221   0.46945   0.00000  Uiso   1.00
C385   C     0.79249   0.72995   0.09776   0.00000  Uiso   1.00
C386   C     0.85876   0.78335   0.40058   0.00000  Uiso   1.00
N387   N     0.83333   0.74999   0.12623   0.00000  Uiso   1.00
N388   N     0.83333   0.75001   0.37377   0.00000  Uiso   1.00
C389   C     0.87396   0.76949   0.10577   0.00000  Uiso   1.00
C390   C     0.80761   0.71635   0.39529   0.00000  Uiso   1.00
C391   C     0.87374   0.76875   0.05633   0.00000  Uiso   1.00
C392   C     0.80696   0.71581   0.44468   0.00000  Uiso   1.00
H393   H     0.90689   0.78341   0.04167   0.00000  Uiso   1.00
H394   H     0.78740   0.68813   0.46052   0.00000  Uiso   1.00
C395   C     0.83173   0.74966   0.02625   0.00000  Uiso   1.00
C396   C     0.83173   0.75019   0.47304   0.00000  Uiso   1.00
N397   N     0.71888   0.53283   0.25607   0.00000  Uiso   1.00
O398   O     0.69883   0.50050   0.22881   0.00000  Uiso   1.00
O399   O     0.69107   0.54926   0.28626   0.00000  Uiso   1.00
N400   N     0.81058   0.97636   0.15354   0.00000  Uiso   1.00
O401   O     0.77903   0.50961   0.14210   0.00000  Uiso   1.00
O402   O     0.84008   0.96330   0.12301   0.00000  Uiso   1.00
F403   F     0.73968   0.62477   0.26496   0.00000  Uiso   1.00
F404   F     0.82427   0.88496   0.16208   0.00000  Uiso   1.00
N405   N     0.91948   0.60925   0.23270   0.00000  Uiso   1.00
O406   O     0.94064   0.64094   0.26029   0.00000  Uiso   1.00
O407   O     0.94599   0.59332   0.20125   0.00000  Uiso   1.00
N408   N     0.80179   0.88609   0.33031   0.00000  Uiso   1.00
O409   O     0.76199   0.85866   0.33164   0.00000  Uiso   1.00
O410   O     0.82795   0.89999   0.37000   0.00000  Uiso   1.00
F411   F     0.89997   0.51723   0.22631   0.00000  Uiso   1.00
F412   F     0.79722   0.97790   0.32229   0.00000  Uiso   1.00
F413   F     0.75293   0.70967   0.11735   0.00000  Uiso   1.00
F414   F     0.88582   0.81572   0.37978   0.00000  Uiso   1.00
N415   N     0.91761   0.79122   0.13371   0.00000  Uiso   1.00
O416   O     0.90953   0.82482   0.15993   0.00000  Uiso   1.00
O417   O     0.96458   0.78639   0.12269   0.00000  Uiso   1.00
N418   N     0.78140   0.68077   0.36809   0.00000  Uiso   1.00
O419   O     0.73435   0.68695   0.34584   0.00000  Uiso   1.00
O420   O     0.79783   0.63999   0.37596   0.00000  Uiso   1.00
O421   O     0.16667   0.18454   0.78974   0.00000  Uiso   1.00
O422   O     0.16666   0.31546   0.71026   0.00000  Uiso   1.00
O423   O     0.16667   0.18453   0.71026   0.00000  Uiso   1.00
O424   O     0.16666   0.31547   0.78974   0.00000  Uiso   1.00
C425   C     0.16670   0.16406   0.75040   0.00000  Uiso   1.00
C426   C     0.16339   0.33637   0.74915   0.00000  Uiso   1.00
O427   O     0.09058   0.25000   0.78045   0.00000  Uiso   1.00
O428   O     0.24275   0.25000   0.71955   0.00000  Uiso   1.00
O429   O     0.09058   0.24999   0.70096   0.00000  Uiso   1.00
O430   O     0.24275   0.25001   0.79904   0.00000  Uiso   1.00
C431   C     0.06712   0.24914   0.73776   0.00000  Uiso   1.00
C432   C     0.26622   0.25020   0.76233   0.00000  Uiso   1.00
Zn433  Zn    0.16667   0.25000   0.80307   0.00000  Uiso   1.00
Zn434  Zn    0.16667   0.24999   0.69693   0.00000  Uiso   1.00
C435   C     0.01222   0.24635   0.73147   0.00000  Uiso   1.00
C436   C     0.32119   0.25144   0.76900   0.00000  Uiso   1.00
H437   H     0.32528   0.23950   0.69622   0.00000  Uiso   1.00
H438   H     0.00812   0.25748   0.80456   0.00000  Uiso   1.00
C439   C     0.10315   0.05185   0.75116   0.00000  Uiso   1.00
C440   C     0.14477   0.45340   0.69865   0.00000  Uiso   1.00
C441   C     0.11250   0.09769   0.75658   0.00000  Uiso   1.00
C442   C     0.15221   0.40733   0.70219   0.00000  Uiso   1.00
C443   C     0.16151   0.11632   0.75041   0.00000  Uiso   1.00
C444   C     0.15304   0.38455   0.74630   0.00000  Uiso   1.00
C445   C     0.20240   0.08996   0.73898   0.00000  Uiso   1.00
C446   C     0.14230   0.40824   0.78645   0.00000  Uiso   1.00
C447   C     0.19346   0.04407   0.73439   0.00000  Uiso   1.00
C448   C     0.13706   0.45444   0.78308   0.00000  Uiso   1.00
C449   C     0.14433   0.02523   0.74033   0.00000  Uiso   1.00
C450   C     0.13936   0.47683   0.73991   0.00000  Uiso   1.00
C451   C     0.12404   0.22986   0.54797   0.00000  Uiso   1.00
C452   C     0.19109   0.28441   0.94987   0.00000  Uiso   1.00
H453   H     0.09029   0.21468   0.52675   0.00000  Uiso   1.00
H454   H     0.21047   0.31221   0.96945   0.00000  Uiso   1.00
C455   C     0.12583   0.22995   0.59776   0.00000  Uiso   1.00
C456   C     0.19209   0.28335   0.90058   0.00000  Uiso   1.00
N457   N     0.16667   0.24999   0.62623   0.00000  Uiso   1.00
N458   N     0.16667   0.25001   0.87377   0.00000  Uiso   1.00
C459   C     0.20729   0.26949   0.60577   0.00000  Uiso   1.00
C460   C     0.14094   0.21635   0.89529   0.00000  Uiso   1.00
C461   C     0.20707   0.26875   0.55633   0.00000  Uiso   1.00
C462   C     0.14029   0.21581   0.94468   0.00000  Uiso   1.00
H463   H     0.24022   0.28341   0.54167   0.00000  Uiso   1.00
H464   H     0.12073   0.18813   0.96052   0.00000  Uiso   1.00
C465   C     0.16507   0.24966   0.52625   0.00000  Uiso   1.00
C466   C     0.16507   0.25019   0.97304   0.00000  Uiso   1.00
N467   N     0.05221   0.03283   0.75607   0.00000  Uiso   1.00
O468   O     0.03216   0.00050   0.72881   0.00000  Uiso   1.00
O469   O     0.02440   0.04926   0.78626   0.00000  Uiso   1.00
N470   N     0.14391   0.47636   0.65354   0.00000  Uiso   1.00
O471   O     0.11237   0.00961   0.64210   0.00000  Uiso   1.00
O472   O     0.17342   0.46330   0.62301   0.00000  Uiso   1.00
F473   F     0.07301   0.12477   0.76496   0.00000  Uiso   1.00
F474   F     0.15760   0.38496   0.66208   0.00000  Uiso   1.00
N475   N     0.25281   0.10925   0.73270   0.00000  Uiso   1.00
O476   O     0.27397   0.14094   0.76029   0.00000  Uiso   1.00
O477   O     0.27932   0.09332   0.70125   0.00000  Uiso   1.00
N478   N     0.13512   0.38609   0.83031   0.00000  Uiso   1.00
O479   O     0.09532   0.35866   0.83164   0.00000  Uiso   1.00
O480   O     0.16128   0.39999   0.87000   0.00000  Uiso   1.00
F481   F     0.23331   0.01723   0.72631   0.00000  Uiso   1.00
F482   F     0.13056   0.47790   0.82229   0.00000  Uiso   1.00
F483   F     0.08626   0.20967   0.61735   0.00000  Uiso   1.00
F484   F     0.21916   0.31572   0.87978   0.00000  Uiso   1.00
N485   N     0.25094   0.29122   0.63371   0.00000  Uiso   1.00
O486   O     0.24286   0.32482   0.65993   0.00000  Uiso   1.00
O487   O     0.29791   0.28639   0.62269   0.00000  Uiso   1.00
N488   N     0.11473   0.18077   0.86809   0.00000  Uiso   1.00
O489   O     0.06768   0.18695   0.84584   0.00000  Uiso   1.00
O490   O     0.13117   0.13999   0.87596   0.00000  Uiso   1.00
O491   O     0.50000   0.18454   0.78974   0.00000  Uiso   1.00
O492   O     0.50000   0.31546   0.71026   0.00000  Uiso   1.00
O493   O     0.50000   0.18453   0.71026   0.00000  Uiso   1.00
O494   O     0.50000   0.31547   0.78974   0.00000  Uiso   1.00
C495   C     0.50004   0.16406   0.75040   0.00000  Uiso   1.00
C496   C     0.49673   0.33637   0.74915   0.00000  Uiso   1.00
O497   O     0.42392   0.25000   0.78045   0.00000  Uiso   1.00
O498   O     0.57608   0.25000   0.71955   0.00000  Uiso   1.00
O499   O     0.42392   0.24999   0.70096   0.00000  Uiso   1.00
O500   O     0.57608   0.25001   0.79904   0.00000  Uiso   1.00
C501   C     0.40046   0.24914   0.73776   0.00000  Uiso   1.00
C502   C     0.59955   0.25020   0.76233   0.00000  Uiso   1.00
Zn503  Zn    0.50000   0.25000   0.80307   0.00000  Uiso   1.00
Zn504  Zn    0.50000   0.24999   0.69693   0.00000  Uiso   1.00
C505   C     0.34555   0.24635   0.73147   0.00000  Uiso   1.00
C506   C     0.65453   0.25144   0.76900   0.00000  Uiso   1.00
H507   H     0.65862   0.23950   0.69622   0.00000  Uiso   1.00
H508   H     0.34145   0.25748   0.80456   0.00000  Uiso   1.00
C509   C     0.43648   0.05185   0.75116   0.00000  Uiso   1.00
C510   C     0.47810   0.45340   0.69865   0.00000  Uiso   1.00
C511   C     0.44583   0.09769   0.75658   0.00000  Uiso   1.00
C512   C     0.48554   0.40733   0.70219   0.00000  Uiso   1.00
C513   C     0.49485   0.11632   0.75041   0.00000  Uiso   1.00
C514   C     0.48637   0.38455   0.74630   0.00000  Uiso   1.00
C515   C     0.53573   0.08996   0.73898   0.00000  Uiso   1.00
C516   C     0.47563   0.40824   0.78645   0.00000  Uiso   1.00
C517   C     0.52680   0.04407   0.73439   0.00000  Uiso   1.00
C518   C     0.47039   0.45444   0.78308   0.00000  Uiso   1.00
C519   C     0.47766   0.02523   0.74033   0.00000  Uiso   1.00
C520   C     0.47269   0.47683   0.73991   0.00000  Uiso   1.00
C521   C     0.45737   0.22986   0.54797   0.00000  Uiso   1.00
C522   C     0.52442   0.28441   0.94987   0.00000  Uiso   1.00
H523   H     0.42362   0.21468   0.52675   0.00000  Uiso   1.00
H524   H     0.54381   0.31221   0.96945   0.00000  Uiso   1.00
C525   C     0.45916   0.22995   0.59776   0.00000  Uiso   1.00
C526   C     0.52543   0.28335   0.90058   0.00000  Uiso   1.00
N527   N     0.50000   0.24999   0.62623   0.00000  Uiso   1.00
N528   N     0.50000   0.25001   0.87377   0.00000  Uiso   1.00
C529   C     0.54062   0.26949   0.60577   0.00000  Uiso   1.00
C530   C     0.47427   0.21635   0.89529   0.00000  Uiso   1.00
C531   C     0.54041   0.26875   0.55633   0.00000  Uiso   1.00
C532   C     0.47363   0.21581   0.94468   0.00000  Uiso   1.00
H533   H     0.57355   0.28341   0.54167   0.00000  Uiso   1.00
H534   H     0.45406   0.18813   0.96052   0.00000  Uiso   1.00
C535   C     0.49840   0.24966   0.52625   0.00000  Uiso   1.00
C536   C     0.49840   0.25019   0.97304   0.00000  Uiso   1.00
N537   N     0.38554   0.03283   0.75607   0.00000  Uiso   1.00
O538   O     0.36549   0.00050   0.72881   0.00000  Uiso   1.00
O539   O     0.35774   0.04926   0.78626   0.00000  Uiso   1.00
N540   N     0.47725   0.47636   0.65354   0.00000  Uiso   1.00
O541   O     0.44570   0.00961   0.64210   0.00000  Uiso   1.00
O542   O     0.50675   0.46330   0.62301   0.00000  Uiso   1.00
F543   F     0.40634   0.12477   0.76496   0.00000  Uiso   1.00
F544   F     0.49093   0.38496   0.66208   0.00000  Uiso   1.00
N545   N     0.58615   0.10925   0.73270   0.00000  Uiso   1.00
O546   O     0.60731   0.14094   0.76029   0.00000  Uiso   1.00
O547   O     0.61266   0.09332   0.70125   0.00000  Uiso   1.00
N548   N     0.46845   0.38609   0.83031   0.00000  Uiso   1.00
O549   O     0.42865   0.35866   0.83164   0.00000  Uiso   1.00
O550   O     0.49461   0.39999   0.87000   0.00000  Uiso   1.00
F551   F     0.56664   0.01723   0.72631   0.00000  Uiso   1.00
F552   F     0.46389   0.47790   0.82229   0.00000  Uiso   1.00
F553   F     0.41959   0.20967   0.61735   0.00000  Uiso   1.00
F554   F     0.55249   0.31572   0.87978   0.00000  Uiso   1.00
N555   N     0.58427   0.29122   0.63371   0.00000  Uiso   1.00
O556   O     0.57619   0.32482   0.65993   0.00000  Uiso   1.00
O557   O     0.63125   0.28639   0.62269   0.00000  Uiso   1.00
N558   N     0.44806   0.18077   0.86809   0.00000  Uiso   1.00
O559   O     0.40102   0.18695   0.84584   0.00000  Uiso   1.00
O560   O     0.46450   0.13999   0.87596   0.00000  Uiso   1.00
O561   O     0.83334   0.18454   0.78974   0.00000  Uiso   1.00
O562   O     0.83333   0.31546   0.71026   0.00000  Uiso   1.00
O563   O     0.83334   0.18453   0.71026   0.00000  Uiso   1.00
O564   O     0.83333   0.31547   0.78974   0.00000  Uiso   1.00
C565   C     0.83337   0.16406   0.75040   0.00000  Uiso   1.00
C566   C     0.83006   0.33637   0.74915   0.00000  Uiso   1.00
O567   O     0.75725   0.25000   0.78045   0.00000  Uiso   1.00
O568   O     0.90942   0.25000   0.71955   0.00000  Uiso   1.00
O569   O     0.75725   0.24999   0.70096   0.00000  Uiso   1.00
O570   O     0.90942   0.25001   0.79904   0.00000  Uiso   1.00
C571   C     0.73379   0.24914   0.73776   0.00000  Uiso   1.00
C572   C     0.93289   0.25020   0.76233   0.00000  Uiso   1.00
Zn573  Zn    0.83333   0.25000   0.80307   0.00000  Uiso   1.00
Zn574  Zn    0.83333   0.24999   0.69693   0.00000  Uiso   1.00
C575   C     0.67888   0.24635   0.73147   0.00000  Uiso   1.00
C576   C     0.98786   0.25144   0.76900   0.00000  Uiso   1.00
H577   H     0.99195   0.23950   0.69622   0.00000  Uiso   1.00
H578   H     0.67478   0.25748   0.80456   0.00000  Uiso   1.00
C579   C     0.76982   0.05185   0.75116   0.00000  Uiso   1.00
C580   C     0.81143   0.45340   0.69865   0.00000  Uiso   1.00
C581   C     0.77917   0.09769   0.75658   0.00000  Uiso   1.00
C582   C     0.81887   0.40733   0.70219   0.00000  Uiso   1.00
C583   C     0.82818   0.11632   0.75041   0.00000  Uiso   1.00
C584   C     0.81970   0.38455   0.74630   0.00000  Uiso   1.00
C585   C     0.86907   0.08996   0.73898   0.00000  Uiso   1.00
C586   C     0.80896   0.40824   0.78645   0.00000  Uiso   1.00
C587   C     0.86013   0.04407   0.73439   0.00000  Uiso   1.00
C588   C     0.80372   0.45444   0.78308   0.00000  Uiso   1.00
C589   C     0.81100   0.02523   0.74033   0.00000  Uiso   1.00
C590   C     0.80603   0.47683   0.73991   0.00000  Uiso   1.00
C591   C     0.79070   0.22986   0.54797   0.00000  Uiso   1.00
C592   C     0.85775   0.28441   0.94987   0.00000  Uiso   1.00
H593   H     0.75695   0.21468   0.52675   0.00000  Uiso   1.00
H594   H     0.87714   0.31221   0.96945   0.00000  Uiso   1.00
C595   C     0.79249   0.22995   0.59776   0.00000  Uiso   1.00
C596   C     0.85876   0.28335   0.90058   0.00000  Uiso   1.00
N597   N     0.83333   0.24999   0.62623   0.00000  Uiso   1.00
N598   N     0.83333   0.25001   0.87377   0.00000  Uiso   1.00
C599   C     0.87396   0.26949   0.60577   0.00000  Uiso   1.00
C600   C     0.80761   0.21635   0.89529   0.00000  Uiso   1.00
C601   C     0.87374   0.26875   0.55633   0.00000  Uiso   1.00
C602   C     0.80696   0.21581   0.94468   0.00000  Uiso   1.00
H603   H     0.90689   0.28341   0.54167   0.00000  Uiso   1.00
H604   H     0.78740   0.18813   0.96052   0.00000  Uiso   1.00
C605   C     0.83173   0.24966   0.52625   0.00000  Uiso   1.00
C606   C     0.83173   0.25019   0.97304   0.00000  Uiso   1.00
N607   N     0.71888   0.03283   0.75607   0.00000  Uiso   1.00
O608   O     0.69883   0.00050   0.72881   0.00000  Uiso   1.00
O609   O     0.69107   0.04926   0.78626   0.00000  Uiso   1.00
N610   N     0.81058   0.47636   0.65354   0.00000  Uiso   1.00
O611   O     0.77903   0.00961   0.64210   0.00000  Uiso   1.00
O612   O     0.84008   0.46330   0.62301   0.00000  Uiso   1.00
F613   F     0.73968   0.12477   0.76496   0.00000  Uiso   1.00
F614   F     0.82427   0.38496   0.66208   0.00000  Uiso   1.00
N615   N     0.91948   0.10925   0.73270   0.00000  Uiso   1.00
O616   O     0.94064   0.14094   0.76029   0.00000  Uiso   1.00
O617   O     0.94599   0.09332   0.70125   0.00000  Uiso   1.00
N618   N     0.80179   0.38609   0.83031   0.00000  Uiso   1.00
O619   O     0.76199   0.35866   0.83164   0.00000  Uiso   1.00
O620   O     0.82795   0.39999   0.87000   0.00000  Uiso   1.00
F621   F     0.89997   0.01723   0.72631   0.00000  Uiso   1.00
F622   F     0.79722   0.47790   0.82229   0.00000  Uiso   1.00
F623   F     0.75293   0.20967   0.61735   0.00000  Uiso   1.00
F624   F     0.88582   0.31572   0.87978   0.00000  Uiso   1.00
N625   N     0.91761   0.29122   0.63371   0.00000  Uiso   1.00
O626   O     0.90953   0.32482   0.65993   0.00000  Uiso   1.00
O627   O     0.96458   0.28639   0.62269   0.00000  Uiso   1.00
N628   N     0.78140   0.18077   0.86809   0.00000  Uiso   1.00
O629   O     0.73435   0.18695   0.84584   0.00000  Uiso   1.00
O630   O     0.79783   0.13999   0.87596   0.00000  Uiso   1.00
O631   O     0.16667   0.68454   0.78974   0.00000  Uiso   1.00
O632   O     0.16666   0.81546   0.71026   0.00000  Uiso   1.00
O633   O     0.16667   0.68453   0.71026   0.00000  Uiso   1.00
O634   O     0.16666   0.81547   0.78974   0.00000  Uiso   1.00
C635   C     0.16670   0.66406   0.75040   0.00000  Uiso   1.00
C636   C     0.16339   0.83637   0.74915   0.00000  Uiso   1.00
O637   O     0.09058   0.75000   0.78045   0.00000  Uiso   1.00
O638   O     0.24275   0.75000   0.71955   0.00000  Uiso   1.00
O639   O     0.09058   0.74999   0.70096   0.00000  Uiso   1.00
O640   O     0.24275   0.75001   0.79904   0.00000  Uiso   1.00
C641   C     0.06712   0.74914   0.73776   0.00000  Uiso   1.00
C642   C     0.26622   0.75020   0.76233   0.00000  Uiso   1.00
Zn643  Zn    0.16667   0.75000   0.80307   0.00000  Uiso   1.00
Zn644  Zn    0.16667   0.74999   0.69693   0.00000  Uiso   1.00
C645   C     0.01222   0.74635   0.73147   0.00000  Uiso   1.00
C646   C     0.32119   0.75144   0.76900   0.00000  Uiso   1.00
H647   H     0.32528   0.73950   0.69622   0.00000  Uiso   1.00
H648   H     0.00812   0.75748   0.80456   0.00000  Uiso   1.00
C649   C     0.10315   0.55185   0.75116   0.00000  Uiso   1.00
C650   C     0.14477   0.95340   0.69865   0.00000  Uiso   1.00
C651   C     0.11250   0.59769   0.75658   0.00000  Uiso   1.00
C652   C     0.15221   0.90733   0.70219   0.00000  Uiso   1.00
C653   C     0.16151   0.61632   0.75041   0.00000  Uiso   1.00
C654   C     0.15304   0.88455   0.74630   0.00000  Uiso   1.00
C655   C     0.20240   0.58996   0.73898   0.00000  Uiso   1.00
C656   C     0.14230   0.90824   0.78645   0.00000  Uiso   1.00
C657   C     0.19346   0.54407   0.73439   0.00000  Uiso   1.00
C658   C     0.13706   0.95444   0.78308   0.00000  Uiso   1.00
C659   C     0.14433   0.52523   0.74033   0.00000  Uiso   1.00
C660   C     0.13936   0.97683   0.73991   0.00000  Uiso   1.00
C661   C     0.12404   0.72986   0.54797   0.00000  Uiso   1.00
C662   C     0.19109   0.78441   0.94987   0.00000  Uiso   1.00
H663   H     0.09029   0.71468   0.52675   0.00000  Uiso   1.00
H664   H     0.21047   0.81221   0.96945   0.00000  Uiso   1.00
C665   C     0.12583   0.72995   0.59776   0.00000  Uiso   1.00
C666   C     0.19209   0.78335   0.90058   0.00000  Uiso   1.00
N667   N     0.16667   0.74999   0.62623   0.00000  Uiso   1.00
N668   N     0.16667   0.75001   0.87377   0.00000  Uiso   1.00
C669   C     0.20729   0.76949   0.60577   0.00000  Uiso   1.00
C670   C     0.14094   0.71635   0.89529   0.00000  Uiso   1.00
C671   C     0.20707   0.76875   0.55633   0.00000  Uiso   1.00
C672   C     0.14029   0.71581   0.94468   0.00000  Uiso   1.00
H673   H     0.24022   0.78341   0.54167   0.00000  Uiso   1.00
H674   H     0.12073   0.68813   0.96052   0.00000  Uiso   1.00
C675   C     0.16507   0.74966   0.52625   0.00000  Uiso   1.00
C676   C     0.16507   0.75019   0.97304   0.00000  Uiso   1.00
N677   N     0.05221   0.53283   0.75607   0.00000  Uiso   1.00
O678   O     0.03216   0.50050   0.72881   0.00000  Uiso   1.00
O679   O     0.02440   0.54926   0.78626   0.00000  Uiso   1.00
N680   N     0.14391   0.97636   0.65354   0.00000  Uiso   1.00
O681   O     0.11237   0.50961   0.64210   0.00000  Uiso   1.00
O682   O     0.17342   0.96330   0.62301   0.00000  Uiso   1.00
F683   F     0.07301   0.62477   0.76496   0.00000  Uiso   1.00
F684   F     0.15760   0.88496   0.66208   0.00000  Uiso   1.00
N685   N     0.25281   0.60925   0.73270   0.00000  Uiso   1.00
O686   O     0.27397   0.64094   0.76029   0.00000  Uiso   1.00
O687   O     0.27932   0.59332   0.70125   0.00000  Uiso   1.00
N688   N     0.13512   0.88609   0.83031   0.00000  Uiso   1.00
O689   O     0.09532   0.85866   0.83164   0.00000  Uiso   1.00
O690   O     0.16128   0.89999   0.87000   0.00000  Uiso   1.00
F691   F     0.23331   0.51723   0.72631   0.00000  Uiso   1.00
F692   F     0.13056   0.97790   0.82229   0.00000  Uiso   1.00
F693   F     0.08626   0.70967   0.61735   0.00000  Uiso   1.00
F694   F     0.21916   0.81572   0.87978   0.00000  Uiso   1.00
N695   N     0.25094   0.79122   0.63371   0.00000  Uiso   1.00
O696   O     0.24286   0.82482   0.65993   0.00000  Uiso   1.00
O697   O     0.29791   0.78639   0.62269   0.00000  Uiso   1.00
N698   N     0.11473   0.68077   0.86809   0.00000  Uiso   1.00
O699   O     0.06768   0.68695   0.84584   0.00000  Uiso   1.00
O700   O     0.13117   0.63999   0.87596   0.00000  Uiso   1.00
O701   O     0.50000   0.68454   0.78974   0.00000  Uiso   1.00
O702   O     0.50000   0.81546   0.71026   0.00000  Uiso   1.00
O703   O     0.50000   0.68453   0.71026   0.00000  Uiso   1.00
O704   O     0.50000   0.81547   0.78974   0.00000  Uiso   1.00
C705   C     0.50004   0.66406   0.75040   0.00000  Uiso   1.00
C706   C     0.49673   0.83637   0.74915   0.00000  Uiso   1.00
O707   O     0.42392   0.75000   0.78045   0.00000  Uiso   1.00
O708   O     0.57608   0.75000   0.71955   0.00000  Uiso   1.00
O709   O     0.42392   0.74999   0.70096   0.00000  Uiso   1.00
O710   O     0.57608   0.75001   0.79904   0.00000  Uiso   1.00
C711   C     0.40046   0.74914   0.73776   0.00000  Uiso   1.00
C712   C     0.59955   0.75020   0.76233   0.00000  Uiso   1.00
Zn713  Zn    0.50000   0.75000   0.80307   0.00000  Uiso   1.00
Zn714  Zn    0.50000   0.74999   0.69693   0.00000  Uiso   1.00
C715   C     0.34555   0.74635   0.73147   0.00000  Uiso   1.00
C716   C     0.65453   0.75144   0.76900   0.00000  Uiso   1.00
H717   H     0.65862   0.73950   0.69622   0.00000  Uiso   1.00
H718   H     0.34145   0.75748   0.80456   0.00000  Uiso   1.00
C719   C     0.43648   0.55185   0.75116   0.00000  Uiso   1.00
C720   C     0.47810   0.95340   0.69865   0.00000  Uiso   1.00
C721   C     0.44583   0.59769   0.75658   0.00000  Uiso   1.00
C722   C     0.48554   0.90733   0.70219   0.00000  Uiso   1.00
C723   C     0.49485   0.61632   0.75041   0.00000  Uiso   1.00
C724   C     0.48637   0.88455   0.74630   0.00000  Uiso   1.00
C725   C     0.53573   0.58996   0.73898   0.00000  Uiso   1.00
C726   C     0.47563   0.90824   0.78645   0.00000  Uiso   1.00
C727   C     0.52680   0.54407   0.73439   0.00000  Uiso   1.00
C728   C     0.47039   0.95444   0.78308   0.00000  Uiso   1.00
C729   C     0.47766   0.52523   0.74033   0.00000  Uiso   1.00
C730   C     0.47269   0.97683   0.73991   0.00000  Uiso   1.00
C731   C     0.45737   0.72986   0.54797   0.00000  Uiso   1.00
C732   C     0.52442   0.78441   0.94987   0.00000  Uiso   1.00
H733   H     0.42362   0.71468   0.52675   0.00000  Uiso   1.00
H734   H     0.54381   0.81221   0.96945   0.00000  Uiso   1.00
C735   C     0.45916   0.72995   0.59776   0.00000  Uiso   1.00
C736   C     0.52543   0.78335   0.90058   0.00000  Uiso   1.00
N737   N     0.50000   0.74999   0.62623   0.00000  Uiso   1.00
N738   N     0.50000   0.75001   0.87377   0.00000  Uiso   1.00
C739   C     0.54062   0.76949   0.60577   0.00000  Uiso   1.00
C740   C     0.47427   0.71635   0.89529   0.00000  Uiso   1.00
C741   C     0.54041   0.76875   0.55633   0.00000  Uiso   1.00
C742   C     0.47363   0.71581   0.94468   0.00000  Uiso   1.00
H743   H     0.57355   0.78341   0.54167   0.00000  Uiso   1.00
H744   H     0.45406   0.68813   0.96052   0.00000  Uiso   1.00
C745   C     0.49840   0.74966   0.52625   0.00000  Uiso   1.00
C746   C     0.49840   0.75019   0.97304   0.00000  Uiso   1.00
N747   N     0.38554   0.53283   0.75607   0.00000  Uiso   1.00
O748   O     0.36549   0.50050   0.72881   0.00000  Uiso   1.00
O749   O     0.35774   0.54926   0.78626   0.00000  Uiso   1.00
N750   N     0.47725   0.97636   0.65354   0.00000  Uiso   1.00
O751   O     0.44570   0.50961   0.64210   0.00000  Uiso   1.00
O752   O     0.50675   0.96330   0.62301   0.00000  Uiso   1.00
F753   F     0.40634   0.62477   0.76496   0.00000  Uiso   1.00
F754   F     0.49093   0.88496   0.66208   0.00000  Uiso   1.00
N755   N     0.58615   0.60925   0.73270   0.00000  Uiso   1.00
O756   O     0.60731   0.64094   0.76029   0.00000  Uiso   1.00
O757   O     0.61266   0.59332   0.70125   0.00000  Uiso   1.00
N758   N     0.46845   0.88609   0.83031   0.00000  Uiso   1.00
O759   O     0.42865   0.85866   0.83164   0.00000  Uiso   1.00
O760   O     0.49461   0.89999   0.87000   0.00000  Uiso   1.00
F761   F     0.56664   0.51723   0.72631   0.00000  Uiso   1.00
F762   F     0.46389   0.97790   0.82229   0.00000  Uiso   1.00
F763   F     0.41959   0.70967   0.61735   0.00000  Uiso   1.00
F764   F     0.55249   0.81572   0.87978   0.00000  Uiso   1.00
N765   N     0.58427   0.79122   0.63371   0.00000  Uiso   1.00
O766   O     0.57619   0.82482   0.65993   0.00000  Uiso   1.00
O767   O     0.63125   0.78639   0.62269   0.00000  Uiso   1.00
N768   N     0.44806   0.68077   0.86809   0.00000  Uiso   1.00
O769   O     0.40102   0.68695   0.84584   0.00000  Uiso   1.00
O770   O     0.46450   0.63999   0.87596   0.00000  Uiso   1.00
O771   O     0.83334   0.68454   0.78974   0.00000  Uiso   1.00
O772   O     0.83333   0.81546   0.71026   0.00000  Uiso   1.00
O773   O     0.83334   0.68453   0.71026   0.00000  Uiso   1.00
O774   O     0.83333   0.81547   0.78974   0.00000  Uiso   1.00
C775   C     0.83337   0.66406   0.75040   0.00000  Uiso   1.00
C776   C     0.83006   0.83637   0.74915   0.00000  Uiso   1.00
O777   O     0.75725   0.75000   0.78045   0.00000  Uiso   1.00
O778   O     0.90942   0.75000   0.71955   0.00000  Uiso   1.00
O779   O     0.75725   0.74999   0.70096   0.00000  Uiso   1.00
O780   O     0.90942   0.75001   0.79904   0.00000  Uiso   1.00
C781   C     0.73379   0.74914   0.73776   0.00000  Uiso   1.00
C782   C     0.93289   0.75020   0.76233   0.00000  Uiso   1.00
Zn783  Zn    0.83333   0.75000   0.80307   0.00000  Uiso   1.00
Zn784  Zn    0.83333   0.74999   0.69693   0.00000  Uiso   1.00
C785   C     0.67888   0.74635   0.73147   0.00000  Uiso   1.00
C786   C     0.98786   0.75144   0.76900   0.00000  Uiso   1.00
H787   H     0.99195   0.73950   0.69622   0.00000  Uiso   1.00
H788   H     0.67478   0.75748   0.80456   0.00000  Uiso   1.00
C789   C     0.76982   0.55185   0.75116   0.00000  Uiso   1.00
C790   C     0.81143   0.95340   0.69865   0.00000  Uiso   1.00
C791   C     0.77917   0.59769   0.75658   0.00000  Uiso   1.00
C792   C     0.81887   0.90733   0.70219   0.00000  Uiso   1.00
C793   C     0.82818   0.61632   0.75041   0.00000  Uiso   1.00
C794   C     0.81970   0.88455   0.74630   0.00000  Uiso   1.00
C795   C     0.86907   0.58996   0.73898   0.00000  Uiso   1.00
C796   C     0.80896   0.90824   0.78645   0.00000  Uiso   1.00
C797   C     0.86013   0.54407   0.73439   0.00000  Uiso   1.00
C798   C     0.80372   0.95444   0.78308   0.00000  Uiso   1.00
C799   C     0.81100   0.52523   0.74033   0.00000  Uiso   1.00
C800   C     0.80603   0.97683   0.73991   0.00000  Uiso   1.00
C801   C     0.79070   0.72986   0.54797   0.00000  Uiso   1.00
C802   C     0.85775   0.78441   0.94987   0.00000  Uiso   1.00
H803   H     0.75695   0.71468   0.52675   0.00000  Uiso   1.00
H804   H     0.87714   0.81221   0.96945   0.00000  Uiso   1.00
C805   C     0.79249   0.72995   0.59776   0.00000  Uiso   1.00
C806   C     0.85876   0.78335   0.90058   0.00000  Uiso   1.00
N807   N     0.83333   0.74999   0.62623   0.00000  Uiso   1.00
N808   N     0.83333   0.75001   0.87377   0.00000  Uiso   1.00
C809   C     0.87396   0.76949   0.60577   0.00000  Uiso   1.00
C810   C     0.80761   0.71635   0.89529   0.00000  Uiso   1.00
C811   C     0.87374   0.76875   0.55633   0.00000  Uiso   1.00
C812   C     0.80696   0.71581   0.94468   0.00000  Uiso   1.00
H813   H     0.90689   0.78341   0.54167   0.00000  Uiso   1.00
H814   H     0.78740   0.68813   0.96052   0.00000  Uiso   1.00
C815   C     0.83173   0.74966   0.52625   0.00000  Uiso   1.00
C816   C     0.83173   0.75019   0.97304   0.00000  Uiso   1.00
N817   N     0.71888   0.53283   0.75607   0.00000  Uiso   1.00
O818   O     0.69883   0.50050   0.72881   0.00000  Uiso   1.00
O819   O     0.69107   0.54926   0.78626   0.00000  Uiso   1.00
N820   N     0.81058   0.97636   0.65354   0.00000  Uiso   1.00
O821   O     0.77903   0.50961   0.64210   0.00000  Uiso   1.00
O822   O     0.84008   0.96330   0.62301   0.00000  Uiso   1.00
F823   F     0.73968   0.62477   0.76496   0.00000  Uiso   1.00
F824   F     0.82427   0.88496   0.66208   0.00000  Uiso   1.00
N825   N     0.91948   0.60925   0.73270   0.00000  Uiso   1.00
O826   O     0.94064   0.64094   0.76029   0.00000  Uiso   1.00
O827   O     0.94599   0.59332   0.70125   0.00000  Uiso   1.00
N828   N     0.80179   0.88609   0.83031   0.00000  Uiso   1.00
O829   O     0.76199   0.85866   0.83164   0.00000  Uiso   1.00
O830   O     0.82795   0.89999   0.87000   0.00000  Uiso   1.00
F831   F     0.89997   0.51723   0.72631   0.00000  Uiso   1.00
F832   F     0.79722   0.97790   0.82229   0.00000  Uiso   1.00
F833   F     0.75293   0.70967   0.61735   0.00000  Uiso   1.00
F834   F     0.88582   0.81572   0.87978   0.00000  Uiso   1.00
N835   N     0.91761   0.79122   0.63371   0.00000  Uiso   1.00
O836   O     0.90953   0.82482   0.65993   0.00000  Uiso   1.00
O837   O     0.96458   0.78639   0.62269   0.00000  Uiso   1.00
N838   N     0.78140   0.68077   0.86809   0.00000  Uiso   1.00
O839   O     0.73435   0.68695   0.84584   0.00000  Uiso   1.00
O840   O     0.79783   0.63999   0.87596   0.00000  Uiso   1.00
loop_
_geom_bond_atom_site_label_1
_geom_bond_atom_site_label_2
_geom_bond_distance
_geom_bond_site_symmetry_2
_ccdc_geom_bond_type
O1     C5      1.286   .     A
O1     Zn13    1.996   .     S
O2     C6      1.295   .     A
O2     Zn14    1.996   .     S
O3     Zn14    1.982   .     S
O3     C5      1.285   .     A
O4     C6      1.296   .     A
O4     Zn13    1.982   .     S
C5     C23     1.427   .     S
C6     C24     1.465   .     S
O7     C11     1.279   .     A
O7     Zn13    1.972   .     S
O8     C12     1.281   .     A
O8     Zn14    1.972   .     S
O9     Zn14    1.976   .     S
O9     C11     1.280   .     A
O10    C12     1.278   .     A
O10    Zn13    1.976   .     S
C11    C15     1.399   .     S
C12    C16     1.400   .     S
Zn13   N38     2.013   .     S
Zn14   N37     2.013   .     S
C15    C156    1.325   1_455 S
C15    H157    1.085   1_455 S
C16    C85     1.325   .     S
C16    H88     1.088   .     S
H17    C85     1.085   .     S
H18    C156    1.088   1_455 S
C19    C29     1.408   .     A
C19    N47     1.441   .     S
C19    C21     1.391   .     A
C20    C30     1.403   .     A
C20    N50     1.442   .     S
C20    C22     1.391   .     A
C21    F53     1.360   .     S
C21    C23     1.400   .     A
C22    C24     1.414   .     A
C22    F54     1.359   .     S
C23    C25     1.404   .     A
C24    C26     1.417   .     A
C25    C27     1.388   .     A
C25    N55     1.441   .     S
C26    C28     1.387   .     A
C26    N58     1.435   .     S
C27    C29     1.403   .     A
C27    F61     1.360   .     S
C28    F62     1.360   .     S
C28    C30     1.396   .     A
C29    C240    1.446   1_545 S
C30    C239    1.446   .     S
C31    H33     1.082   .     S
C31    C35     1.412   .     A
C31    C45     1.410   .     A
C32    C36     1.408   .     A
C32    C46     1.412   .     A
C32    H34     1.081   .     S
C35    N37     1.368   .     A
C35    F63     1.354   .     S
C36    N38     1.364   .     A
C36    F64     1.354   .     S
N37    C39     1.379   .     A
N38    C40     1.373   .     A
C39    N65     1.432   .     S
C39    C41     1.408   .     A
C40    N68     1.426   .     S
C40    C42     1.408   .     A
C41    H43     1.082   .     S
C41    C45     1.399   .     A
C42    H44     1.082   .     S
C42    C46     1.403   .     A
C45    C466    1.515   1_554 S
C46    C465    1.515   .     S
N47    O48     1.301   .     A
N47    O49     1.301   .     A
N50    O52     1.301   .     A
N50    O261    1.301   .     S
O51    N260    1.301   1_545 S
N55    O56     1.301   .     A
N55    O57     1.301   .     A
N58    O60     1.301   .     A
N58    O59     1.302   .     A
N65    O66     1.298   .     A
N65    O67     1.302   .     A
N68    O70     1.301   .     A
N68    O69     1.299   .     A
O71    C75     1.286   .     A
O71    Zn83    1.996   .     S
O72    C76     1.295   .     A
O72    Zn84    1.996   .     S
O73    Zn84    1.982   .     S
O73    C75     1.285   .     A
O74    C76     1.296   .     A
O74    Zn83    1.982   .     S
C75    C93     1.427   .     S
C76    C94     1.465   .     S
O77    C81     1.279   .     A
O77    Zn83    1.972   .     S
O78    C82     1.281   .     A
O78    Zn84    1.972   .     S
O79    Zn84    1.976   .     S
O79    C81     1.280   .     A
O80    C82     1.278   .     A
O80    Zn83    1.976   .     S
C81    C85     1.399   .     S
C82    C86     1.400   .     S
Zn83   N108    2.013   .     S
Zn84   N107    2.013   .     S
C86    C155    1.325   .     S
C86    H158    1.088   .     S
H87    C155    1.085   .     S
C89    C99     1.408   .     A
C89    N117    1.441   .     S
C89    C91     1.391   .     A
C90    C100    1.403   .     A
C90    N120    1.442   .     S
C90    C92     1.391   .     A
C91    F123    1.360   .     S
C91    C93     1.400   .     A
C92    C94     1.414   .     A
C92    F124    1.359   .     S
C93    C95     1.404   .     A
C94    C96     1.417   .     A
C95    C97     1.388   .     A
C95    N125    1.441   .     S
C96    C98     1.387   .     A
C96    N128    1.435   .     S
C97    C99     1.403   .     A
C97    F131    1.360   .     S
C98    F132    1.360   .     S
C98    C100    1.396   .     A
C99    C310    1.446   1_545 S
C100   C309    1.446   .     S
C101   H103    1.082   .     S
C101   C105    1.412   .     A
C101   C115    1.410   .     A
C102   C106    1.408   .     A
C102   C116    1.412   .     A
C102   H104    1.081   .     S
C105   N107    1.368   .     A
C105   F133    1.354   .     S
C106   N108    1.364   .     A
C106   F134    1.354   .     S
N107   C109    1.379   .     A
N108   C110    1.373   .     A
C109   N135    1.432   .     S
C109   C111    1.408   .     A
C110   N138    1.426   .     S
C110   C112    1.408   .     A
C111   H113    1.082   .     S
C111   C115    1.399   .     A
C112   H114    1.082   .     S
C112   C116    1.403   .     A
C115   C536    1.515   1_554 S
C116   C535    1.515   .     S
N117   O118    1.301   .     A
N117   O119    1.301   .     A
N120   O122    1.301   .     A
N120   O331    1.301   .     S
O121   N330    1.301   1_545 S
N125   O126    1.301   .     A
N125   O127    1.301   .     A
N128   O130    1.301   .     A
N128   O129    1.302   .     A
N135   O136    1.298   .     A
N135   O137    1.302   .     A
N138   O140    1.301   .     A
N138   O139    1.299   .     A
O141   C145    1.286   .     A
O141   Zn153   1.996   .     S
O142   C146    1.295   .     A
O142   Zn154   1.996   .     S
O143   Zn154   1.982   .     S
O143   C145    1.285   .     A
O144   C146    1.296   .     A
O144   Zn153   1.982   .     S
C145   C163    1.427   .     S
C146   C164    1.465   .     S
O147   C151    1.279   .     A
O147   Zn153   1.972   .     S
O148   C152    1.281   .     A
O148   Zn154   1.972   .     S
O149   Zn154   1.976   .     S
O149   C151    1.280   .     A
O150   C152    1.278   .     A
O150   Zn153   1.976   .     S
C151   C155    1.399   .     S
C152   C156    1.400   .     S
Zn153  N178    2.013   .     S
Zn154  N177    2.013   .     S
C156   C15     1.325   1_655 S
C156   H18     1.088   1_655 S
H157   C15     1.085   1_655 S
C159   C169    1.408   .     A
C159   N187    1.441   .     S
C159   C161    1.391   .     A
C160   C170    1.403   .     A
C160   N190    1.442   .     S
C160   C162    1.391   .     A
C161   F193    1.360   .     S
C161   C163    1.400   .     A
C162   C164    1.414   .     A
C162   F194    1.359   .     S
C163   C165    1.404   .     A
C164   C166    1.417   .     A
C165   C167    1.388   .     A
C165   N195    1.441   .     S
C166   C168    1.387   .     A
C166   N198    1.435   .     S
C167   C169    1.403   .     A
C167   F201    1.360   .     S
C168   F202    1.360   .     S
C168   C170    1.396   .     A
C169   C380    1.446   1_545 S
C170   C379    1.446   .     S
C171   H173    1.082   .     S
C171   C175    1.412   .     A
C171   C185    1.410   .     A
C172   C176    1.408   .     A
C172   C186    1.412   .     A
C172   H174    1.081   .     S
C175   N177    1.368   .     A
C175   F203    1.354   .     S
C176   N178    1.364   .     A
C176   F204    1.354   .     S
N177   C179    1.379   .     A
N178   C180    1.373   .     A
C179   N205    1.432   .     S
C179   C181    1.408   .     A
C180   N208    1.426   .     S
C180   C182    1.408   .     A
C181   H183    1.082   .     S
C181   C185    1.399   .     A
C182   H184    1.082   .     S
C182   C186    1.403   .     A
C185   C606    1.515   1_554 S
C186   C605    1.515   .     S
N187   O188    1.301   .     A
N187   O189    1.301   .     A
N190   O192    1.301   .     A
N190   O401    1.301   .     S
O191   N400    1.301   1_545 S
N195   O196    1.301   .     A
N195   O197    1.301   .     A
N198   O200    1.301   .     A
N198   O199    1.302   .     A
N205   O206    1.298   .     A
N205   O207    1.302   .     A
N208   O210    1.301   .     A
N208   O209    1.299   .     A
O211   C215    1.286   .     A
O211   Zn223   1.996   .     S
O212   C216    1.295   .     A
O212   Zn224   1.996   .     S
O213   Zn224   1.982   .     S
O213   C215    1.285   .     A
O214   C216    1.296   .     A
O214   Zn223   1.982   .     S
C215   C233    1.427   .     S
C216   C234    1.465   .     S
O217   C221    1.279   .     A
O217   Zn223   1.972   .     S
O218   C222    1.281   .     A
O218   Zn224   1.972   .     S
O219   Zn224   1.976   .     S
O219   C221    1.280   .     A
O220   C222    1.278   .     A
O220   Zn223   1.976   .     S
C221   C225    1.399   .     S
C222   C226    1.400   .     S
Zn223  N248    2.013   .     S
Zn224  N247    2.013   .     S
C225   C366    1.325   1_455 S
C225   H367    1.085   1_455 S
C226   C295    1.325   .     S
C226   H298    1.088   .     S
H227   C295    1.085   .     S
H228   C366    1.088   1_455 S
C229   C239    1.408   .     A
C229   N257    1.441   .     S
C229   C231    1.391   .     A
C230   C240    1.403   .     A
C230   N260    1.442   .     S
C230   C232    1.391   .     A
C231   F263    1.360   .     S
C231   C233    1.400   .     A
C232   C234    1.414   .     A
C232   F264    1.359   .     S
C233   C235    1.404   .     A
C234   C236    1.417   .     A
C235   C237    1.388   .     A
C235   N265    1.441   .     S
C236   C238    1.387   .     A
C236   N268    1.435   .     S
C237   C239    1.403   .     A
C237   F271    1.360   .     S
C238   F272    1.360   .     S
C238   C240    1.396   .     A
C240   C29     1.446   1_565 S
C241   H243    1.082   .     S
C241   C245    1.412   .     A
C241   C255    1.410   .     A
C242   C246    1.408   .     A
C242   C256    1.412   .     A
C242   H244    1.081   .     S
C245   N247    1.368   .     A
C245   F273    1.354   .     S
C246   N248    1.364   .     A
C246   F274    1.354   .     S
N247   C249    1.379   .     A
N248   C250    1.373   .     A
C249   N275    1.432   .     S
C249   C251    1.408   .     A
C250   N278    1.426   .     S
C250   C252    1.408   .     A
C251   H253    1.082   .     S
C251   C255    1.399   .     A
C252   H254    1.082   .     S
C252   C256    1.403   .     A
C255   C676    1.515   1_554 S
C256   C675    1.515   .     S
N257   O258    1.301   .     A
N257   O259    1.301   .     A
N260   O262    1.301   .     A
N260   O51     1.301   1_565 S
N265   O266    1.301   .     A
N265   O267    1.301   .     A
N268   O270    1.301   .     A
N268   O269    1.302   .     A
N275   O276    1.298   .     A
N275   O277    1.302   .     A
N278   O280    1.301   .     A
N278   O279    1.299   .     A
O281   C285    1.286   .     A
O281   Zn293   1.996   .     S
O282   C286    1.295   .     A
O282   Zn294   1.996   .     S
O283   Zn294   1.982   .     S
O283   C285    1.285   .     A
O284   C286    1.296   .     A
O284   Zn293   1.982   .     S
C285   C303    1.427   .     S
C286   C304    1.465   .     S
O287   C291    1.279   .     A
O287   Zn293   1.972   .     S
O288   C292    1.281   .     A
O288   Zn294   1.972   .     S
O289   Zn294   1.976   .     S
O289   C291    1.280   .     A
O290   C292    1.278   .     A
O290   Zn293   1.976   .     S
C291   C295    1.399   .     S
C292   C296    1.400   .     S
Zn293  N318    2.013   .     S
Zn294  N317    2.013   .     S
C296   C365    1.325   .     S
C296   H368    1.088   .     S
H297   C365    1.085   .     S
C299   C309    1.408   .     A
C299   N327    1.441   .     S
C299   C301    1.391   .     A
C300   C310    1.403   .     A
C300   N330    1.442   .     S
C300   C302    1.391   .     A
C301   F333    1.360   .     S
C301   C303    1.400   .     A
C302   C304    1.414   .     A
C302   F334    1.359   .     S
C303   C305    1.404   .     A
C304   C306    1.417   .     A
C305   C307    1.388   .     A
C305   N335    1.441   .     S
C306   C308    1.387   .     A
C306   N338    1.435   .     S
C307   C309    1.403   .     A
C307   F341    1.360   .     S
C308   F342    1.360   .     S
C308   C310    1.396   .     A
C310   C99     1.446   1_565 S
C311   H313    1.082   .     S
C311   C315    1.412   .     A
C311   C325    1.410   .     A
C312   C316    1.408   .     A
C312   C326    1.412   .     A
C312   H314    1.081   .     S
C315   N317    1.368   .     A
C315   F343    1.354   .     S
C316   N318    1.364   .     A
C316   F344    1.354   .     S
N317   C319    1.379   .     A
N318   C320    1.373   .     A
C319   N345    1.432   .     S
C319   C321    1.408   .     A
C320   N348    1.426   .     S
C320   C322    1.408   .     A
C321   H323    1.082   .     S
C321   C325    1.399   .     A
C322   H324    1.082   .     S
C322   C326    1.403   .     A
C325   C746    1.515   1_554 S
C326   C745    1.515   .     S
N327   O328    1.301   .     A
N327   O329    1.301   .     A
N330   O332    1.301   .     A
N330   O121    1.301   1_565 S
N335   O336    1.301   .     A
N335   O337    1.301   .     A
N338   O340    1.301   .     A
N338   O339    1.302   .     A
N345   O346    1.298   .     A
N345   O347    1.302   .     A
N348   O350    1.301   .     A
N348   O349    1.299   .     A
O351   C355    1.286   .     A
O351   Zn363   1.996   .     S
O352   C356    1.295   .     A
O352   Zn364   1.996   .     S
O353   Zn364   1.982   .     S
O353   C355    1.285   .     A
O354   C356    1.296   .     A
O354   Zn363   1.982   .     S
C355   C373    1.427   .     S
C356   C374    1.465   .     S
O357   C361    1.279   .     A
O357   Zn363   1.972   .     S
O358   C362    1.281   .     A
O358   Zn364   1.972   .     S
O359   Zn364   1.976   .     S
O359   C361    1.280   .     A
O360   C362    1.278   .     A
O360   Zn363   1.976   .     S
C361   C365    1.399   .     S
C362   C366    1.400   .     S
Zn363  N388    2.013   .     S
Zn364  N387    2.013   .     S
C366   C225    1.325   1_655 S
C366   H228    1.088   1_655 S
H367   C225    1.085   1_655 S
C369   C379    1.408   .     A
C369   N397    1.441   .     S
C369   C371    1.391   .     A
C370   C380    1.403   .     A
C370   N400    1.442   .     S
C370   C372    1.391   .     A
C371   F403    1.360   .     S
C371   C373    1.400   .     A
C372   C374    1.414   .     A
C372   F404    1.359   .     S
C373   C375    1.404   .     A
C374   C376    1.417   .     A
C375   C377    1.388   .     A
C375   N405    1.441   .     S
C376   C378    1.387   .     A
C376   N408    1.435   .     S
C377   C379    1.403   .     A
C377   F411    1.360   .     S
C378   F412    1.360   .     S
C378   C380    1.396   .     A
C380   C169    1.446   1_565 S
C381   H383    1.082   .     S
C381   C385    1.412   .     A
C381   C395    1.410   .     A
C382   C386    1.408   .     A
C382   C396    1.412   .     A
C382   H384    1.081   .     S
C385   N387    1.368   .     A
C385   F413    1.354   .     S
C386   N388    1.364   .     A
C386   F414    1.354   .     S
N387   C389    1.379   .     A
N388   C390    1.373   .     A
C389   N415    1.432   .     S
C389   C391    1.408   .     A
C390   N418    1.426   .     S
C390   C392    1.408   .     A
C391   H393    1.082   .     S
C391   C395    1.399   .     A
C392   H394    1.082   .     S
C392   C396    1.403   .     A
C395   C816    1.515   1_554 S
C396   C815    1.515   .     S
N397   O398    1.301   .     A
N397   O399    1.301   .     A
N400   O402    1.301   .     A
N400   O191    1.301   1_565 S
N405   O406    1.301   .     A
N405   O407    1.301   .     A
N408   O410    1.301   .     A
N408   O409    1.302   .     A
N415   O416    1.298   .     A
N415   O417    1.302   .     A
N418   O420    1.301   .     A
N418   O419    1.299   .     A
O421   C425    1.286   .     A
O421   Zn433   1.996   .     S
O422   C426    1.295   .     A
O422   Zn434   1.996   .     S
O423   Zn434   1.982   .     S
O423   C425    1.285   .     A
O424   C426    1.296   .     A
O424   Zn433   1.982   .     S
C425   C443    1.427   .     S
C426   C444    1.465   .     S
O427   C431    1.279   .     A
O427   Zn433   1.972   .     S
O428   C432    1.281   .     A
O428   Zn434   1.972   .     S
O429   Zn434   1.976   .     S
O429   C431    1.280   .     A
O430   C432    1.278   .     A
O430   Zn433   1.976   .     S
C431   C435    1.399   .     S
C432   C436    1.400   .     S
Zn433  N458    2.013   .     S
Zn434  N457    2.013   .     S
C435   C576    1.325   1_455 S
C435   H577    1.085   1_455 S
C436   C505    1.325   .     S
C436   H508    1.088   .     S
H437   C505    1.085   .     S
H438   C576    1.088   1_455 S
C439   C449    1.408   .     A
C439   N467    1.441   .     S
C439   C441    1.391   .     A
C440   C450    1.403   .     A
C440   N470    1.442   .     S
C440   C442    1.391   .     A
C441   F473    1.360   .     S
C441   C443    1.400   .     A
C442   C444    1.414   .     A
C442   F474    1.359   .     S
C443   C445    1.404   .     A
C444   C446    1.417   .     A
C445   C447    1.388   .     A
C445   N475    1.441   .     S
C446   C448    1.387   .     A
C446   N478    1.435   .     S
C447   C449    1.403   .     A
C447   F481    1.360   .     S
C448   F482    1.360   .     S
C448   C450    1.396   .     A
C449   C660    1.446   1_545 S
C450   C659    1.446   .     S
C451   H453    1.082   .     S
C451   C455    1.412   .     A
C451   C465    1.410   .     A
C452   C456    1.408   .     A
C452   C466    1.412   .     A
C452   H454    1.081   .     S
C455   N457    1.368   .     A
C455   F483    1.354   .     S
C456   N458    1.364   .     A
C456   F484    1.354   .     S
N457   C459    1.379   .     A
N458   C460    1.373   .     A
C459   N485    1.432   .     S
C459   C461    1.408   .     A
C460   N488    1.426   .     S
C460   C462    1.408   .     A
C461   H463    1.082   .     S
C461   C465    1.399   .     A
C462   H464    1.082   .     S
C462   C466    1.403   .     A
C466   C45     1.515   1_556 S
N467   O468    1.301   .     A
N467   O469    1.301   .     A
N470   O472    1.301   .     A
N470   O681    1.301   .     S
O471   N680    1.301   1_545 S
N475   O476    1.301   .     A
N475   O477    1.301   .     A
N478   O480    1.301   .     A
N478   O479    1.302   .     A
N485   O486    1.298   .     A
N485   O487    1.302   .     A
N488   O490    1.301   .     A
N488   O489    1.299   .     A
O491   C495    1.286   .     A
O491   Zn503   1.996   .     S
O492   C496    1.295   .     A
O492   Zn504   1.996   .     S
O493   Zn504   1.982   .     S
O493   C495    1.285   .     A
O494   C496    1.296   .     A
O494   Zn503   1.982   .     S
C495   C513    1.427   .     S
C496   C514    1.465   .     S
O497   C501    1.279   .     A
O497   Zn503   1.972   .     S
O498   C502    1.281   .     A
O498   Zn504   1.972   .     S
O499   Zn504   1.976   .     S
O499   C501    1.280   .     A
O500   C502    1.278   .     A
O500   Zn503   1.976   .     S
C501   C505    1.399   .     S
C502   C506    1.400   .     S
Zn503  N528    2.013   .     S
Zn504  N527    2.013   .     S
C506   C575    1.325   .     S
C506   H578    1.088   .     S
H507   C575    1.085   .     S
C509   C519    1.408   .     A
C509   N537    1.441   .     S
C509   C511    1.391   .     A
C510   C520    1.403   .     A
C510   N540    1.442   .     S
C510   C512    1.391   .     A
C511   F543    1.360   .     S
C511   C513    1.400   .     A
C512   C514    1.414   .     A
C512   F544    1.359   .     S
C513   C515    1.404   .     A
C514   C516    1.417   .     A
C515   C517    1.388   .     A
C515   N545    1.441   .     S
C516   C518    1.387   .     A
C516   N548    1.435   .     S
C517   C519    1.403   .     A
C517   F551    1.360   .     S
C518   F552    1.360   .     S
C518   C520    1.396   .     A
C519   C730    1.446   1_545 S
C520   C729    1.446   .     S
C521   H523    1.082   .     S
C521   C525    1.412   .     A
C521   C535    1.410   .     A
C522   C526    1.408   .     A
C522   C536    1.412   .     A
C522   H524    1.081   .     S
C525   N527    1.368   .     A
C525   F553    1.354   .     S
C526   N528    1.364   .     A
C526   F554    1.354   .     S
N527   C529    1.379   .     A
N528   C530    1.373   .     A
C529   N555    1.432   .     S
C529   C531    1.408   .     A
C530   N558    1.426   .     S
C530   C532    1.408   .     A
C531   H533    1.082   .     S
C531   C535    1.399   .     A
C532   H534    1.082   .     S
C532   C536    1.403   .     A
C536   C115    1.515   1_556 S
N537   O538    1.301   .     A
N537   O539    1.301   .     A
N540   O542    1.301   .     A
N540   O751    1.301   .     S
O541   N750    1.301   1_545 S
N545   O546    1.301   .     A
N545   O547    1.301   .     A
N548   O550    1.301   .     A
N548   O549    1.302   .     A
N555   O556    1.298   .     A
N555   O557    1.302   .     A
N558   O560    1.301   .     A
N558   O559    1.299   .     A
O561   C565    1.286   .     A
O561   Zn573   1.996   .     S
O562   C566    1.295   .     A
O562   Zn574   1.996   .     S
O563   Zn574   1.982   .     S
O563   C565    1.285   .     A
O564   C566    1.296   .     A
O564   Zn573   1.982   .     S
C565   C583    1.427   .     S
C566   C584    1.465   .     S
O567   C571    1.279   .     A
O567   Zn573   1.972   .     S
O568   C572    1.281   .     A
O568   Zn574   1.972   .     S
O569   Zn574   1.976   .     S
O569   C571    1.280   .     A
O570   C572    1.278   .     A
O570   Zn573   1.976   .     S
C571   C575    1.399   .     S
C572   C576    1.400   .     S
Zn573  N598    2.013   .     S
Zn574  N597    2.013   .     S
C576   C435    1.325   1_655 S
C576   H438    1.088   1_655 S
H577   C435    1.085   1_655 S
C579   C589    1.408   .     A
C579   N607    1.441   .     S
C579   C581    1.391   .     A
C580   C590    1.403   .     A
C580   N610    1.442   .     S
C580   C582    1.391   .     A
C581   F613    1.360   .     S
C581   C583    1.400   .     A
C582   C584    1.414   .     A
C582   F614    1.359   .     S
C583   C585    1.404   .     A
C584   C586    1.417   .     A
C585   C587    1.388   .     A
C585   N615    1.441   .     S
C586   C588    1.387   .     A
C586   N618    1.435   .     S
C587   C589    1.403   .     A
C587   F621    1.360   .     S
C588   F622    1.360   .     S
C588   C590    1.396   .     A
C589   C800    1.446   1_545 S
C590   C799    1.446   .     S
C591   H593    1.082   .     S
C591   C595    1.412   .     A
C591   C605    1.410   .     A
C592   C596    1.408   .     A
C592   C606    1.412   .     A
C592   H594    1.081   .     S
C595   N597    1.368   .     A
C595   F623    1.354   .     S
C596   N598    1.364   .     A
C596   F624    1.354   .     S
N597   C599    1.379   .     A
N598   C600    1.373   .     A
C599   N625    1.432   .     S
C599   C601    1.408   .     A
C600   N628    1.426   .     S
C600   C602    1.408   .     A
C601   H603    1.082   .     S
C601   C605    1.399   .     A
C602   H604    1.082   .     S
C602   C606    1.403   .     A
C606   C185    1.515   1_556 S
N607   O608    1.301   .     A
N607   O609    1.301   .     A
N610   O612    1.301   .     A
N610   O821    1.301   .     S
O611   N820    1.301   1_545 S
N615   O616    1.301   .     A
N615   O617    1.301   .     A
N618   O620    1.301   .     A
N618   O619    1.302   .     A
N625   O626    1.298   .     A
N625   O627    1.302   .     A
N628   O630    1.301   .     A
N628   O629    1.299   .     A
O631   C635    1.286   .     A
O631   Zn643   1.996   .     S
O632   C636    1.295   .     A
O632   Zn644   1.996   .     S
O633   Zn644   1.982   .     S
O633   C635    1.285   .     A
O634   C636    1.296   .     A
O634   Zn643   1.982   .     S
C635   C653    1.427   .     S
C636   C654    1.465   .     S
O637   C641    1.279   .     A
O637   Zn643   1.972   .     S
O638   C642    1.281   .     A
O638   Zn644   1.972   .     S
O639   Zn644   1.976   .     S
O639   C641    1.280   .     A
O640   C642    1.278   .     A
O640   Zn643   1.976   .     S
C641   C645    1.399   .     S
C642   C646    1.400   .     S
Zn643  N668    2.013   .     S
Zn644  N667    2.013   .     S
C645   C786    1.325   1_455 S
C645   H787    1.085   1_455 S
C646   C715    1.325   .     S
C646   H718    1.088   .     S
H647   C715    1.085   .     S
H648   C786    1.088   1_455 S
C649   C659    1.408   .     A
C649   N677    1.441   .     S
C649   C651    1.391   .     A
C650   C660    1.403   .     A
C650   N680    1.442   .     S
C650   C652    1.391   .     A
C651   F683    1.360   .     S
C651   C653    1.400   .     A
C652   C654    1.414   .     A
C652   F684    1.359   .     S
C653   C655    1.404   .     A
C654   C656    1.417   .     A
C655   C657    1.388   .     A
C655   N685    1.441   .     S
C656   C658    1.387   .     A
C656   N688    1.435   .     S
C657   C659    1.403   .     A
C657   F691    1.360   .     S
C658   F692    1.360   .     S
C658   C660    1.396   .     A
C660   C449    1.446   1_565 S
C661   H663    1.082   .     S
C661   C665    1.412   .     A
C661   C675    1.410   .     A
C662   C666    1.408   .     A
C662   C676    1.412   .     A
C662   H664    1.081   .     S
C665   N667    1.368   .     A
C665   F693    1.354   .     S
C666   N668    1.364   .     A
C666   F694    1.354   .     S
N667   C669    1.379   .     A
N668   C670    1.373   .     A
C669   N695    1.432   .     S
C669   C671    1.408   .     A
C670   N698    1.426   .     S
C670   C672    1.408   .     A
C671   H673    1.082   .     S
C671   C675    1.399   .     A
C672   H674    1.082   .     S
C672   C676    1.403   .     A
C676   C255    1.515   1_556 S
N677   O678    1.301   .     A
N677   O679    1.301   .     A
N680   O682    1.301   .     A
N680   O471    1.301   1_565 S
N685   O686    1.301   .     A
N685   O687    1.301   .     A
N688   O690    1.301   .     A
N688   O689    1.302   .     A
N695   O696    1.298   .     A
N695   O697    1.302   .     A
N698   O700    1.301   .     A
N698   O699    1.299   .     A
O701   C705    1.286   .     A
O701   Zn713   1.996   .     S
O702   C706    1.295   .     A
O702   Zn714   1.996   .     S
O703   Zn714   1.982   .     S
O703   C705    1.285   .     A
O704   C706    1.296   .     A
O704   Zn713   1.982   .     S
C705   C723    1.427   .     S
C706   C724    1.465   .     S
O707   C711    1.279   .     A
O707   Zn713   1.972   .     S
O708   C712    1.281   .     A
O708   Zn714   1.972   .     S
O709   Zn714   1.976   .     S
O709   C711    1.280   .     A
O710   C712    1.278   .     A
O710   Zn713   1.976   .     S
C711   C715    1.399   .     S
C712   C716    1.400   .     S
Zn713  N738    2.013   .     S
Zn714  N737    2.013   .     S
C716   C785    1.325   .     S
C716   H788    1.088   .     S
H717   C785    1.085   .     S
C719   C729    1.408   .     A
C719   N747    1.441   .     S
C719   C721    1.391   .     A
C720   C730    1.403   .     A
C720   N750    1.442   .     S
C720   C722    1.391   .     A
C721   F753    1.360   .     S
C721   C723    1.400   .     A
C722   C724    1.414   .     A
C722   F754    1.359   .     S
C723   C725    1.404   .     A
C724   C726    1.417   .     A
C725   C727    1.388   .     A
C725   N755    1.441   .     S
C726   C728    1.387   .     A
C726   N758    1.435   .     S
C727   C729    1.403   .     A
C727   F761    1.360   .     S
C728   F762    1.360   .     S
C728   C730    1.396   .     A
C730   C519    1.446   1_565 S
C731   H733    1.082   .     S
C731   C735    1.412   .     A
C731   C745    1.410   .     A
C732   C736    1.408   .     A
C732   C746    1.412   .     A
C732   H734    1.081   .     S
C735   N737    1.368   .     A
C735   F763    1.354   .     S
C736   N738    1.364   .     A
C736   F764    1.354   .     S
N737   C739    1.379   .     A
N738   C740    1.373   .     A
C739   N765    1.432   .     S
C739   C741    1.408   .     A
C740   N768    1.426   .     S
C740   C742    1.408   .     A
C741   H743    1.082   .     S
C741   C745    1.399   .     A
C742   H744    1.082   .     S
C742   C746    1.403   .     A
C746   C325    1.515   1_556 S
N747   O748    1.301   .     A
N747   O749    1.301   .     A
N750   O752    1.301   .     A
N750   O541    1.301   1_565 S
N755   O756    1.301   .     A
N755   O757    1.301   .     A
N758   O760    1.301   .     A
N758   O759    1.302   .     A
N765   O766    1.298   .     A
N765   O767    1.302   .     A
N768   O770    1.301   .     A
N768   O769    1.299   .     A
O771   C775    1.286   .     A
O771   Zn783   1.996   .     S
O772   C776    1.295   .     A
O772   Zn784   1.996   .     S
O773   Zn784   1.982   .     S
O773   C775    1.285   .     A
O774   C776    1.296   .     A
O774   Zn783   1.982   .     S
C775   C793    1.427   .     S
C776   C794    1.465   .     S
O777   C781    1.279   .     A
O777   Zn783   1.972   .     S
O778   C782    1.281   .     A
O778   Zn784   1.972   .     S
O779   Zn784   1.976   .     S
O779   C781    1.280   .     A
O780   C782    1.278   .     A
O780   Zn783   1.976   .     S
C781   C785    1.399   .     S
C782   C786    1.400   .     S
Zn783  N808    2.013   .     S
Zn784  N807    2.013   .     S
C786   C645    1.325   1_655 S
C786   H648    1.088   1_655 S
H787   C645    1.085   1_655 S
C789   C799    1.408   .     A
C789   N817    1.441   .     S
C789   C791    1.391   .     A
C790   C800    1.403   .     A
C790   N820    1.442   .     S
C790   C792    1.391   .     A
C791   F823    1.360   .     S
C791   C793    1.400   .     A
C792   C794    1.414   .     A
C792   F824    1.359   .     S
C793   C795    1.404   .     A
C794   C796    1.417   .     A
C795   C797    1.388   .     A
C795   N825    1.441   .     S
C796   C798    1.387   .     A
C796   N828    1.435   .     S
C797   C799    1.403   .     A
C797   F831    1.360   .     S
C798   F832    1.360   .     S
C798   C800    1.396   .     A
C800   C589    1.446   1_565 S
C801   H803    1.082   .     S
C801   C805    1.412   .     A
C801   C815    1.410   .     A
C802   C806    1.408   .     A
C802   C816    1.412   .     A
C802   H804    1.081   .     S
C805   N807    1.368   .     A
C805   F833    1.354   .     S
C806   N808    1.364   .     A
C806   F834    1.354   .     S
N807   C809    1.379   .     A
N808   C810    1.373   .     A
C809   N835    1.432   .     S
C809   C811    1.408   .     A
C810   N838    1.426   .     S
C810   C812    1.408   .     A
C811   H813    1.082   .     S
C811   C815    1.399   .     A
C812   H814    1.082   .     S
C812   C816    1.403   .     A
C816   C395    1.515   1_556 S
N817   O818    1.301   .     A
N817   O819    1.301   .     A
N820   O822    1.301   .     A
N820   O611    1.301   1_565 S
N825   O826    1.301   .     A
N825   O827    1.301   .     A
N828   O830    1.301   .     A
N828   O829    1.302   .     A
N835   O836    1.298   .     A
N835   O837    1.302   .     A
N838   O840    1.301   .     A
N838   O839    1.299   .     A
