data_str_m3_o1_o18_pcu_sym.77
_audit_creation_date              2020-01-03
_audit_creation_method            'Materials Studio'
_symmetry_space_group_name_H-M    'P1'
_symmetry_Int_Tables_number       1
_symmetry_cell_setting            triclinic
loop_
_symmetry_equiv_pos_as_xyz
  x,y,z
_cell_length_a                    29.6962
_cell_length_b                    32.1021
_cell_length_c                    30.8977
_cell_angle_alpha                 90.8927
_cell_angle_beta                  67.9072
_cell_angle_gamma                 90.4480
loop_
_atom_site_label
_atom_site_type_symbol
_atom_site_fract_x
_atom_site_fract_y
_atom_site_fract_z
_atom_site_U_iso_or_equiv
_atom_site_adp_type
_atom_site_occupancy
C1     C     0.16673   0.24665   0.25014   0.00000  Uiso   1.00
C2     C     0.12257   0.31185   0.26232   0.00000  Uiso   1.00
C3     C     0.16661   0.04251   0.24965   0.00000  Uiso   1.00
C4     C     0.16676   0.29082   0.25024   0.00000  Uiso   1.00
C5     C     0.31984   0.14013   0.22158   0.00000  Uiso   1.00
C6     C     0.01350   0.19322   0.27840   0.00000  Uiso   1.00
C7     C     0.03420   0.13990   0.22143   0.00000  Uiso   1.00
C8     C     0.29912   0.19342   0.27858   0.00000  Uiso   1.00
C9     C     0.13620   0.16653   0.33795   0.00000  Uiso   1.00
C10    C     0.19707   0.16598   0.16203   0.00000  Uiso   1.00
C11    C     0.11659   0.16584   0.38874   0.00000  Uiso   1.00
C12    C     0.16661   0.08669   0.24982   0.00000  Uiso   1.00
C13    C     0.21513   0.15805   0.11190   0.00000  Uiso   1.00
C14    C     0.05560   0.18615   0.46330   0.00000  Uiso   1.00
C15    C     0.26521   0.11729   0.04464   0.00000  Uiso   1.00
C16    C     0.07090   0.18240   0.41490   0.00000  Uiso   1.00
C17    C     0.25625   0.13352   0.08935   0.00000  Uiso   1.00
C18    C     0.14585   0.15054   0.41085   0.00000  Uiso   1.00
C19    C     0.18423   0.16775   0.08930   0.00000  Uiso   1.00
C20    C     0.13155   0.15314   0.45931   0.00000  Uiso   1.00
C21    C     0.18910   0.14851   0.04707   0.00000  Uiso   1.00
C22    C     0.08621   0.17227   0.48583   0.00000  Uiso   1.00
C23    C     0.10630   0.16939   0.05447   0.00000  Uiso   1.00
C24    C     0.23142   0.12448   0.02322   0.00000  Uiso   1.00
C25    C     0.16336   0.14061   0.48131   0.00000  Uiso   1.00
C26    C     0.15294   0.15324   0.02799   0.00000  Uiso   1.00
C27    C     0.20550   0.11643   0.45812   0.00000  Uiso   1.00
C28    C     0.07332   0.17805   0.03383   0.00000  Uiso   1.00
C29    C     0.23842   0.10803   0.47905   0.00000  Uiso   1.00
C30    C     0.21086   0.31215   0.23788   0.00000  Uiso   1.00
C31    C     0.12251   0.02119   0.26198   0.00000  Uiso   1.00
C32    C     0.21080   0.02148   0.23754   0.00000  Uiso   1.00
H33    H     0.03838   0.19067   0.05575   0.00000  Uiso   1.00
H34    H     0.02327   0.21439   0.30106   0.00000  Uiso   1.00
H35    H     0.24524   0.29597   0.22810   0.00000  Uiso   1.00
H36    H     0.08813   0.03737   0.27177   0.00000  Uiso   1.00
H37    H     0.24518   0.03789   0.22756   0.00000  Uiso   1.00
H38    H     0.08819   0.29545   0.27230   0.00000  Uiso   1.00
H39    H     0.26969   0.08909   0.45980   0.00000  Uiso   1.00
H40    H     0.15516   0.18944   0.10653   0.00000  Uiso   1.00
H41    H     0.18124   0.13901   0.38905   0.00000  Uiso   1.00
H42    H     0.28016   0.12552   0.10714   0.00000  Uiso   1.00
H43    H     0.04820   0.19443   0.39755   0.00000  Uiso   1.00
H44    H     0.09381   0.17469   0.09172   0.00000  Uiso   1.00
H45    H     0.21315   0.10221   0.42425   0.00000  Uiso   1.00
H46    H     0.31007   0.11896   0.19891   0.00000  Uiso   1.00
I47    I     0.32178   0.21741   0.49821   0.00000  Uiso   1.00
I48    I     0.32871   0.08027   0.01389   0.00000  Uiso   1.00
I49    I     0.08192   0.09605   0.17504   0.00000  Uiso   1.00
I50    I     0.25128   0.23709   0.32513   0.00000  Uiso   1.00
N51    N     0.04759   0.16668   0.25001   0.00000  Uiso   1.00
N52    N     0.28574   0.16666   0.24999   0.00000  Uiso   1.00
O53    O     0.12846   0.22775   0.25001   0.00000  Uiso   1.00
O54    O     0.20488   0.10558   0.24999   0.00000  Uiso   1.00
O55    O     0.20490   0.22774   0.25000   0.00000  Uiso   1.00
O56    O     0.12843   0.10559   0.25000   0.00000  Uiso   1.00
O57    O     0.10661   0.16667   0.31612   0.00000  Uiso   1.00
O58    O     0.22672   0.16666   0.18388   0.00000  Uiso   1.00
O59    O     0.18305   0.16666   0.31612   0.00000  Uiso   1.00
O60    O     0.15028   0.16667   0.18388   0.00000  Uiso   1.00
Zn61   Zn    0.11562   0.16667   0.25000   0.00000  Uiso   1.00
Zn62   Zn    0.21771   0.16666   0.25000   0.00000  Uiso   1.00
C63    C     0.50007   0.24665   0.25014   0.00000  Uiso   1.00
C64    C     0.45590   0.31185   0.26232   0.00000  Uiso   1.00
C65    C     0.49995   0.04251   0.24965   0.00000  Uiso   1.00
C66    C     0.50009   0.29082   0.25024   0.00000  Uiso   1.00
C67    C     0.65317   0.14013   0.22158   0.00000  Uiso   1.00
C68    C     0.34683   0.19322   0.27840   0.00000  Uiso   1.00
C69    C     0.36753   0.13990   0.22143   0.00000  Uiso   1.00
C70    C     0.63246   0.19342   0.27858   0.00000  Uiso   1.00
C71    C     0.46953   0.16653   0.33795   0.00000  Uiso   1.00
C72    C     0.53040   0.16598   0.16203   0.00000  Uiso   1.00
C73    C     0.44993   0.16584   0.38874   0.00000  Uiso   1.00
C74    C     0.49995   0.08669   0.24982   0.00000  Uiso   1.00
C75    C     0.54847   0.15805   0.11190   0.00000  Uiso   1.00
C76    C     0.38893   0.18615   0.46330   0.00000  Uiso   1.00
C77    C     0.59855   0.11729   0.04464   0.00000  Uiso   1.00
C78    C     0.40423   0.18240   0.41490   0.00000  Uiso   1.00
C79    C     0.58958   0.13352   0.08935   0.00000  Uiso   1.00
C80    C     0.47918   0.15054   0.41085   0.00000  Uiso   1.00
C81    C     0.51757   0.16775   0.08930   0.00000  Uiso   1.00
C82    C     0.46489   0.15314   0.45931   0.00000  Uiso   1.00
C83    C     0.52243   0.14851   0.04707   0.00000  Uiso   1.00
C84    C     0.41954   0.17227   0.48583   0.00000  Uiso   1.00
C85    C     0.43963   0.16939   0.05447   0.00000  Uiso   1.00
C86    C     0.56475   0.12448   0.02322   0.00000  Uiso   1.00
C87    C     0.49670   0.14061   0.48131   0.00000  Uiso   1.00
C88    C     0.48627   0.15324   0.02799   0.00000  Uiso   1.00
C89    C     0.53883   0.11643   0.45812   0.00000  Uiso   1.00
C90    C     0.40665   0.17805   0.03383   0.00000  Uiso   1.00
C91    C     0.57175   0.10803   0.47905   0.00000  Uiso   1.00
C92    C     0.54420   0.31215   0.23788   0.00000  Uiso   1.00
C93    C     0.45584   0.02119   0.26198   0.00000  Uiso   1.00
C94    C     0.54413   0.02148   0.23754   0.00000  Uiso   1.00
H95    H     0.37172   0.19067   0.05575   0.00000  Uiso   1.00
H96    H     0.35660   0.21439   0.30106   0.00000  Uiso   1.00
H97    H     0.57857   0.29597   0.22810   0.00000  Uiso   1.00
H98    H     0.42147   0.03737   0.27177   0.00000  Uiso   1.00
H99    H     0.57851   0.03789   0.22756   0.00000  Uiso   1.00
H100   H     0.42152   0.29545   0.27230   0.00000  Uiso   1.00
H101   H     0.60302   0.08909   0.45980   0.00000  Uiso   1.00
H102   H     0.48849   0.18944   0.10653   0.00000  Uiso   1.00
H103   H     0.51457   0.13901   0.38905   0.00000  Uiso   1.00
H104   H     0.61350   0.12552   0.10714   0.00000  Uiso   1.00
H105   H     0.38153   0.19443   0.39755   0.00000  Uiso   1.00
H106   H     0.42714   0.17469   0.09172   0.00000  Uiso   1.00
H107   H     0.54648   0.10221   0.42425   0.00000  Uiso   1.00
H108   H     0.64340   0.11896   0.19891   0.00000  Uiso   1.00
I109   I     0.65511   0.21741   0.49821   0.00000  Uiso   1.00
I110   I     0.66205   0.08027   0.01389   0.00000  Uiso   1.00
I111   I     0.41526   0.09605   0.17504   0.00000  Uiso   1.00
I112   I     0.58461   0.23709   0.32513   0.00000  Uiso   1.00
N113   N     0.38093   0.16668   0.25001   0.00000  Uiso   1.00
N114   N     0.61907   0.16666   0.24999   0.00000  Uiso   1.00
O115   O     0.46179   0.22775   0.25001   0.00000  Uiso   1.00
O116   O     0.53821   0.10558   0.24999   0.00000  Uiso   1.00
O117   O     0.53823   0.22774   0.25000   0.00000  Uiso   1.00
O118   O     0.46177   0.10559   0.25000   0.00000  Uiso   1.00
O119   O     0.43994   0.16667   0.31612   0.00000  Uiso   1.00
O120   O     0.56006   0.16666   0.18388   0.00000  Uiso   1.00
O121   O     0.51639   0.16666   0.31612   0.00000  Uiso   1.00
O122   O     0.48361   0.16667   0.18388   0.00000  Uiso   1.00
Zn123  Zn    0.44896   0.16667   0.25000   0.00000  Uiso   1.00
Zn124  Zn    0.55104   0.16666   0.25000   0.00000  Uiso   1.00
C125   C     0.83340   0.24665   0.25014   0.00000  Uiso   1.00
C126   C     0.78924   0.31185   0.26232   0.00000  Uiso   1.00
C127   C     0.83328   0.04251   0.24965   0.00000  Uiso   1.00
C128   C     0.83342   0.29082   0.25024   0.00000  Uiso   1.00
C129   C     0.98651   0.14013   0.22158   0.00000  Uiso   1.00
C130   C     0.68017   0.19322   0.27840   0.00000  Uiso   1.00
C131   C     0.70087   0.13990   0.22143   0.00000  Uiso   1.00
C132   C     0.96579   0.19342   0.27858   0.00000  Uiso   1.00
C133   C     0.80286   0.16653   0.33795   0.00000  Uiso   1.00
C134   C     0.86374   0.16598   0.16203   0.00000  Uiso   1.00
C135   C     0.78326   0.16584   0.38874   0.00000  Uiso   1.00
C136   C     0.83328   0.08669   0.24982   0.00000  Uiso   1.00
C137   C     0.88180   0.15805   0.11190   0.00000  Uiso   1.00
C138   C     0.72227   0.18615   0.46330   0.00000  Uiso   1.00
C139   C     0.93188   0.11729   0.04464   0.00000  Uiso   1.00
C140   C     0.73757   0.18240   0.41490   0.00000  Uiso   1.00
C141   C     0.92292   0.13352   0.08935   0.00000  Uiso   1.00
C142   C     0.81251   0.15054   0.41085   0.00000  Uiso   1.00
C143   C     0.85090   0.16775   0.08930   0.00000  Uiso   1.00
C144   C     0.79822   0.15314   0.45931   0.00000  Uiso   1.00
C145   C     0.85576   0.14851   0.04707   0.00000  Uiso   1.00
C146   C     0.75288   0.17227   0.48583   0.00000  Uiso   1.00
C147   C     0.77296   0.16939   0.05447   0.00000  Uiso   1.00
C148   C     0.89808   0.12448   0.02322   0.00000  Uiso   1.00
C149   C     0.83003   0.14061   0.48131   0.00000  Uiso   1.00
C150   C     0.81960   0.15324   0.02799   0.00000  Uiso   1.00
C151   C     0.87216   0.11643   0.45812   0.00000  Uiso   1.00
C152   C     0.73999   0.17805   0.03383   0.00000  Uiso   1.00
C153   C     0.90509   0.10803   0.47905   0.00000  Uiso   1.00
C154   C     0.87753   0.31215   0.23788   0.00000  Uiso   1.00
C155   C     0.78918   0.02119   0.26198   0.00000  Uiso   1.00
C156   C     0.87747   0.02148   0.23754   0.00000  Uiso   1.00
H157   H     0.70505   0.19067   0.05575   0.00000  Uiso   1.00
H158   H     0.68993   0.21439   0.30106   0.00000  Uiso   1.00
H159   H     0.91190   0.29597   0.22810   0.00000  Uiso   1.00
H160   H     0.75480   0.03737   0.27177   0.00000  Uiso   1.00
H161   H     0.91185   0.03789   0.22756   0.00000  Uiso   1.00
H162   H     0.75486   0.29545   0.27230   0.00000  Uiso   1.00
H163   H     0.93636   0.08909   0.45980   0.00000  Uiso   1.00
H164   H     0.82183   0.18944   0.10653   0.00000  Uiso   1.00
H165   H     0.84790   0.13901   0.38905   0.00000  Uiso   1.00
H166   H     0.94683   0.12552   0.10714   0.00000  Uiso   1.00
H167   H     0.71486   0.19443   0.39755   0.00000  Uiso   1.00
H168   H     0.76047   0.17469   0.09172   0.00000  Uiso   1.00
H169   H     0.87982   0.10221   0.42425   0.00000  Uiso   1.00
H170   H     0.97674   0.11896   0.19891   0.00000  Uiso   1.00
I171   I     0.98845   0.21741   0.49821   0.00000  Uiso   1.00
I172   I     0.99538   0.08027   0.01389   0.00000  Uiso   1.00
I173   I     0.74859   0.09605   0.17504   0.00000  Uiso   1.00
I174   I     0.91794   0.23709   0.32513   0.00000  Uiso   1.00
N175   N     0.71426   0.16668   0.25001   0.00000  Uiso   1.00
N176   N     0.95241   0.16666   0.24999   0.00000  Uiso   1.00
O177   O     0.79512   0.22775   0.25001   0.00000  Uiso   1.00
O178   O     0.87154   0.10558   0.24999   0.00000  Uiso   1.00
O179   O     0.87157   0.22774   0.25000   0.00000  Uiso   1.00
O180   O     0.79510   0.10559   0.25000   0.00000  Uiso   1.00
O181   O     0.77328   0.16667   0.31612   0.00000  Uiso   1.00
O182   O     0.89339   0.16666   0.18388   0.00000  Uiso   1.00
O183   O     0.84972   0.16666   0.31612   0.00000  Uiso   1.00
O184   O     0.81695   0.16667   0.18388   0.00000  Uiso   1.00
Zn185  Zn    0.78229   0.16667   0.25000   0.00000  Uiso   1.00
Zn186  Zn    0.88438   0.16666   0.25000   0.00000  Uiso   1.00
C187   C     0.16673   0.57998   0.25014   0.00000  Uiso   1.00
C188   C     0.12257   0.64519   0.26232   0.00000  Uiso   1.00
C189   C     0.16661   0.37585   0.24965   0.00000  Uiso   1.00
C190   C     0.16676   0.62416   0.25024   0.00000  Uiso   1.00
C191   C     0.31984   0.47346   0.22158   0.00000  Uiso   1.00
C192   C     0.01350   0.52656   0.27840   0.00000  Uiso   1.00
C193   C     0.03420   0.47324   0.22143   0.00000  Uiso   1.00
C194   C     0.29912   0.52675   0.27858   0.00000  Uiso   1.00
C195   C     0.13620   0.49987   0.33795   0.00000  Uiso   1.00
C196   C     0.19707   0.49931   0.16203   0.00000  Uiso   1.00
C197   C     0.11659   0.49918   0.38874   0.00000  Uiso   1.00
C198   C     0.16661   0.42002   0.24982   0.00000  Uiso   1.00
C199   C     0.21513   0.49138   0.11190   0.00000  Uiso   1.00
C200   C     0.05560   0.51948   0.46330   0.00000  Uiso   1.00
C201   C     0.26521   0.45063   0.04464   0.00000  Uiso   1.00
C202   C     0.07090   0.51573   0.41490   0.00000  Uiso   1.00
C203   C     0.25625   0.46686   0.08935   0.00000  Uiso   1.00
C204   C     0.14585   0.48387   0.41085   0.00000  Uiso   1.00
C205   C     0.18423   0.50108   0.08930   0.00000  Uiso   1.00
C206   C     0.13155   0.48648   0.45931   0.00000  Uiso   1.00
C207   C     0.18910   0.48184   0.04707   0.00000  Uiso   1.00
C208   C     0.08621   0.50560   0.48583   0.00000  Uiso   1.00
C209   C     0.10630   0.50272   0.05447   0.00000  Uiso   1.00
C210   C     0.23142   0.45781   0.02322   0.00000  Uiso   1.00
C211   C     0.16336   0.47395   0.48131   0.00000  Uiso   1.00
C212   C     0.15294   0.48658   0.02799   0.00000  Uiso   1.00
C213   C     0.20550   0.44976   0.45812   0.00000  Uiso   1.00
C214   C     0.07332   0.51139   0.03383   0.00000  Uiso   1.00
C215   C     0.23842   0.44137   0.47905   0.00000  Uiso   1.00
C216   C     0.21086   0.64548   0.23788   0.00000  Uiso   1.00
C217   C     0.12251   0.35452   0.26198   0.00000  Uiso   1.00
C218   C     0.21080   0.35482   0.23754   0.00000  Uiso   1.00
H219   H     0.03838   0.52401   0.05575   0.00000  Uiso   1.00
H220   H     0.02327   0.54773   0.30106   0.00000  Uiso   1.00
H221   H     0.24524   0.62930   0.22810   0.00000  Uiso   1.00
H222   H     0.08813   0.37070   0.27177   0.00000  Uiso   1.00
H223   H     0.24518   0.37122   0.22756   0.00000  Uiso   1.00
H224   H     0.08819   0.62879   0.27230   0.00000  Uiso   1.00
H225   H     0.26969   0.42242   0.45980   0.00000  Uiso   1.00
H226   H     0.15516   0.52277   0.10653   0.00000  Uiso   1.00
H227   H     0.18124   0.47234   0.38905   0.00000  Uiso   1.00
H228   H     0.28016   0.45886   0.10714   0.00000  Uiso   1.00
H229   H     0.04820   0.52776   0.39755   0.00000  Uiso   1.00
H230   H     0.09381   0.50802   0.09172   0.00000  Uiso   1.00
H231   H     0.21315   0.43555   0.42425   0.00000  Uiso   1.00
H232   H     0.31007   0.45230   0.19891   0.00000  Uiso   1.00
I233   I     0.32178   0.55074   0.49821   0.00000  Uiso   1.00
I234   I     0.32871   0.41360   0.01389   0.00000  Uiso   1.00
I235   I     0.08192   0.42938   0.17504   0.00000  Uiso   1.00
I236   I     0.25128   0.57042   0.32513   0.00000  Uiso   1.00
N237   N     0.04759   0.50001   0.25001   0.00000  Uiso   1.00
N238   N     0.28574   0.49999   0.24999   0.00000  Uiso   1.00
O239   O     0.12846   0.56108   0.25001   0.00000  Uiso   1.00
O240   O     0.20488   0.43892   0.24999   0.00000  Uiso   1.00
O241   O     0.20490   0.56107   0.25000   0.00000  Uiso   1.00
O242   O     0.12843   0.43893   0.25000   0.00000  Uiso   1.00
O243   O     0.10661   0.50001   0.31612   0.00000  Uiso   1.00
O244   O     0.22672   0.49999   0.18388   0.00000  Uiso   1.00
O245   O     0.18305   0.50000   0.31612   0.00000  Uiso   1.00
O246   O     0.15028   0.50000   0.18388   0.00000  Uiso   1.00
Zn247  Zn    0.11562   0.50001   0.25000   0.00000  Uiso   1.00
Zn248  Zn    0.21771   0.49999   0.25000   0.00000  Uiso   1.00
C249   C     0.50007   0.57998   0.25014   0.00000  Uiso   1.00
C250   C     0.45590   0.64519   0.26232   0.00000  Uiso   1.00
C251   C     0.49995   0.37585   0.24965   0.00000  Uiso   1.00
C252   C     0.50009   0.62416   0.25024   0.00000  Uiso   1.00
C253   C     0.65317   0.47346   0.22158   0.00000  Uiso   1.00
C254   C     0.34683   0.52656   0.27840   0.00000  Uiso   1.00
C255   C     0.36753   0.47324   0.22143   0.00000  Uiso   1.00
C256   C     0.63246   0.52675   0.27858   0.00000  Uiso   1.00
C257   C     0.46953   0.49987   0.33795   0.00000  Uiso   1.00
C258   C     0.53040   0.49931   0.16203   0.00000  Uiso   1.00
C259   C     0.44993   0.49918   0.38874   0.00000  Uiso   1.00
C260   C     0.49995   0.42002   0.24982   0.00000  Uiso   1.00
C261   C     0.54847   0.49138   0.11190   0.00000  Uiso   1.00
C262   C     0.38893   0.51948   0.46330   0.00000  Uiso   1.00
C263   C     0.59855   0.45063   0.04464   0.00000  Uiso   1.00
C264   C     0.40423   0.51573   0.41490   0.00000  Uiso   1.00
C265   C     0.58958   0.46686   0.08935   0.00000  Uiso   1.00
C266   C     0.47918   0.48387   0.41085   0.00000  Uiso   1.00
C267   C     0.51757   0.50108   0.08930   0.00000  Uiso   1.00
C268   C     0.46489   0.48648   0.45931   0.00000  Uiso   1.00
C269   C     0.52243   0.48184   0.04707   0.00000  Uiso   1.00
C270   C     0.41954   0.50560   0.48583   0.00000  Uiso   1.00
C271   C     0.43963   0.50272   0.05447   0.00000  Uiso   1.00
C272   C     0.56475   0.45781   0.02322   0.00000  Uiso   1.00
C273   C     0.49670   0.47395   0.48131   0.00000  Uiso   1.00
C274   C     0.48627   0.48658   0.02799   0.00000  Uiso   1.00
C275   C     0.53883   0.44976   0.45812   0.00000  Uiso   1.00
C276   C     0.40665   0.51139   0.03383   0.00000  Uiso   1.00
C277   C     0.57175   0.44137   0.47905   0.00000  Uiso   1.00
C278   C     0.54420   0.64548   0.23788   0.00000  Uiso   1.00
C279   C     0.45584   0.35452   0.26198   0.00000  Uiso   1.00
C280   C     0.54413   0.35482   0.23754   0.00000  Uiso   1.00
H281   H     0.37172   0.52401   0.05575   0.00000  Uiso   1.00
H282   H     0.35660   0.54773   0.30106   0.00000  Uiso   1.00
H283   H     0.57857   0.62930   0.22810   0.00000  Uiso   1.00
H284   H     0.42147   0.37070   0.27177   0.00000  Uiso   1.00
H285   H     0.57851   0.37122   0.22756   0.00000  Uiso   1.00
H286   H     0.42152   0.62879   0.27230   0.00000  Uiso   1.00
H287   H     0.60302   0.42242   0.45980   0.00000  Uiso   1.00
H288   H     0.48849   0.52277   0.10653   0.00000  Uiso   1.00
H289   H     0.51457   0.47234   0.38905   0.00000  Uiso   1.00
H290   H     0.61350   0.45886   0.10714   0.00000  Uiso   1.00
H291   H     0.38153   0.52776   0.39755   0.00000  Uiso   1.00
H292   H     0.42714   0.50802   0.09172   0.00000  Uiso   1.00
H293   H     0.54648   0.43555   0.42425   0.00000  Uiso   1.00
H294   H     0.64340   0.45230   0.19891   0.00000  Uiso   1.00
I295   I     0.65511   0.55074   0.49821   0.00000  Uiso   1.00
I296   I     0.66205   0.41360   0.01389   0.00000  Uiso   1.00
I297   I     0.41526   0.42938   0.17504   0.00000  Uiso   1.00
I298   I     0.58461   0.57042   0.32513   0.00000  Uiso   1.00
N299   N     0.38093   0.50001   0.25001   0.00000  Uiso   1.00
N300   N     0.61907   0.49999   0.24999   0.00000  Uiso   1.00
O301   O     0.46179   0.56108   0.25001   0.00000  Uiso   1.00
O302   O     0.53821   0.43892   0.24999   0.00000  Uiso   1.00
O303   O     0.53823   0.56107   0.25000   0.00000  Uiso   1.00
O304   O     0.46177   0.43893   0.25000   0.00000  Uiso   1.00
O305   O     0.43994   0.50001   0.31612   0.00000  Uiso   1.00
O306   O     0.56006   0.49999   0.18388   0.00000  Uiso   1.00
O307   O     0.51639   0.50000   0.31612   0.00000  Uiso   1.00
O308   O     0.48361   0.50000   0.18388   0.00000  Uiso   1.00
Zn309  Zn    0.44896   0.50001   0.25000   0.00000  Uiso   1.00
Zn310  Zn    0.55104   0.49999   0.25000   0.00000  Uiso   1.00
C311   C     0.83340   0.57998   0.25014   0.00000  Uiso   1.00
C312   C     0.78924   0.64519   0.26232   0.00000  Uiso   1.00
C313   C     0.83328   0.37585   0.24965   0.00000  Uiso   1.00
C314   C     0.83342   0.62416   0.25024   0.00000  Uiso   1.00
C315   C     0.98651   0.47346   0.22158   0.00000  Uiso   1.00
C316   C     0.68017   0.52656   0.27840   0.00000  Uiso   1.00
C317   C     0.70087   0.47324   0.22143   0.00000  Uiso   1.00
C318   C     0.96579   0.52675   0.27858   0.00000  Uiso   1.00
C319   C     0.80286   0.49987   0.33795   0.00000  Uiso   1.00
C320   C     0.86374   0.49931   0.16203   0.00000  Uiso   1.00
C321   C     0.78326   0.49918   0.38874   0.00000  Uiso   1.00
C322   C     0.83328   0.42002   0.24982   0.00000  Uiso   1.00
C323   C     0.88180   0.49138   0.11190   0.00000  Uiso   1.00
C324   C     0.72227   0.51948   0.46330   0.00000  Uiso   1.00
C325   C     0.93188   0.45063   0.04464   0.00000  Uiso   1.00
C326   C     0.73757   0.51573   0.41490   0.00000  Uiso   1.00
C327   C     0.92292   0.46686   0.08935   0.00000  Uiso   1.00
C328   C     0.81251   0.48387   0.41085   0.00000  Uiso   1.00
C329   C     0.85090   0.50108   0.08930   0.00000  Uiso   1.00
C330   C     0.79822   0.48648   0.45931   0.00000  Uiso   1.00
C331   C     0.85576   0.48184   0.04707   0.00000  Uiso   1.00
C332   C     0.75288   0.50560   0.48583   0.00000  Uiso   1.00
C333   C     0.77296   0.50272   0.05447   0.00000  Uiso   1.00
C334   C     0.89808   0.45781   0.02322   0.00000  Uiso   1.00
C335   C     0.83003   0.47395   0.48131   0.00000  Uiso   1.00
C336   C     0.81960   0.48658   0.02799   0.00000  Uiso   1.00
C337   C     0.87216   0.44976   0.45812   0.00000  Uiso   1.00
C338   C     0.73999   0.51139   0.03383   0.00000  Uiso   1.00
C339   C     0.90509   0.44137   0.47905   0.00000  Uiso   1.00
C340   C     0.87753   0.64548   0.23788   0.00000  Uiso   1.00
C341   C     0.78918   0.35452   0.26198   0.00000  Uiso   1.00
C342   C     0.87747   0.35482   0.23754   0.00000  Uiso   1.00
H343   H     0.70505   0.52401   0.05575   0.00000  Uiso   1.00
H344   H     0.68993   0.54773   0.30106   0.00000  Uiso   1.00
H345   H     0.91190   0.62930   0.22810   0.00000  Uiso   1.00
H346   H     0.75480   0.37070   0.27177   0.00000  Uiso   1.00
H347   H     0.91185   0.37122   0.22756   0.00000  Uiso   1.00
H348   H     0.75486   0.62879   0.27230   0.00000  Uiso   1.00
H349   H     0.93636   0.42242   0.45980   0.00000  Uiso   1.00
H350   H     0.82183   0.52277   0.10653   0.00000  Uiso   1.00
H351   H     0.84790   0.47234   0.38905   0.00000  Uiso   1.00
H352   H     0.94683   0.45886   0.10714   0.00000  Uiso   1.00
H353   H     0.71486   0.52776   0.39755   0.00000  Uiso   1.00
H354   H     0.76047   0.50802   0.09172   0.00000  Uiso   1.00
H355   H     0.87982   0.43555   0.42425   0.00000  Uiso   1.00
H356   H     0.97674   0.45230   0.19891   0.00000  Uiso   1.00
I357   I     0.98845   0.55074   0.49821   0.00000  Uiso   1.00
I358   I     0.99538   0.41360   0.01389   0.00000  Uiso   1.00
I359   I     0.74859   0.42938   0.17504   0.00000  Uiso   1.00
I360   I     0.91794   0.57042   0.32513   0.00000  Uiso   1.00
N361   N     0.71426   0.50001   0.25001   0.00000  Uiso   1.00
N362   N     0.95241   0.49999   0.24999   0.00000  Uiso   1.00
O363   O     0.79512   0.56108   0.25001   0.00000  Uiso   1.00
O364   O     0.87154   0.43892   0.24999   0.00000  Uiso   1.00
O365   O     0.87157   0.56107   0.25000   0.00000  Uiso   1.00
O366   O     0.79510   0.43893   0.25000   0.00000  Uiso   1.00
O367   O     0.77328   0.50001   0.31612   0.00000  Uiso   1.00
O368   O     0.89339   0.49999   0.18388   0.00000  Uiso   1.00
O369   O     0.84972   0.50000   0.31612   0.00000  Uiso   1.00
O370   O     0.81695   0.50000   0.18388   0.00000  Uiso   1.00
Zn371  Zn    0.78229   0.50001   0.25000   0.00000  Uiso   1.00
Zn372  Zn    0.88438   0.49999   0.25000   0.00000  Uiso   1.00
C373   C     0.16673   0.91331   0.25014   0.00000  Uiso   1.00
C374   C     0.12257   0.97852   0.26232   0.00000  Uiso   1.00
C375   C     0.16661   0.70918   0.24965   0.00000  Uiso   1.00
C376   C     0.16676   0.95749   0.25024   0.00000  Uiso   1.00
C377   C     0.31984   0.80679   0.22158   0.00000  Uiso   1.00
C378   C     0.01350   0.85989   0.27840   0.00000  Uiso   1.00
C379   C     0.03420   0.80657   0.22143   0.00000  Uiso   1.00
C380   C     0.29912   0.86008   0.27858   0.00000  Uiso   1.00
C381   C     0.13620   0.83320   0.33795   0.00000  Uiso   1.00
C382   C     0.19707   0.83264   0.16203   0.00000  Uiso   1.00
C383   C     0.11659   0.83251   0.38874   0.00000  Uiso   1.00
C384   C     0.16661   0.75336   0.24982   0.00000  Uiso   1.00
C385   C     0.21513   0.82471   0.11190   0.00000  Uiso   1.00
C386   C     0.05560   0.85282   0.46330   0.00000  Uiso   1.00
C387   C     0.26521   0.78396   0.04464   0.00000  Uiso   1.00
C388   C     0.07090   0.84907   0.41490   0.00000  Uiso   1.00
C389   C     0.25625   0.80019   0.08935   0.00000  Uiso   1.00
C390   C     0.14585   0.81720   0.41085   0.00000  Uiso   1.00
C391   C     0.18423   0.83441   0.08930   0.00000  Uiso   1.00
C392   C     0.13155   0.81981   0.45931   0.00000  Uiso   1.00
C393   C     0.18910   0.81517   0.04707   0.00000  Uiso   1.00
C394   C     0.08621   0.83893   0.48583   0.00000  Uiso   1.00
C395   C     0.10630   0.83605   0.05447   0.00000  Uiso   1.00
C396   C     0.23142   0.79114   0.02322   0.00000  Uiso   1.00
C397   C     0.16336   0.80728   0.48131   0.00000  Uiso   1.00
C398   C     0.15294   0.81991   0.02799   0.00000  Uiso   1.00
C399   C     0.20550   0.78309   0.45812   0.00000  Uiso   1.00
C400   C     0.07332   0.84472   0.03383   0.00000  Uiso   1.00
C401   C     0.23842   0.77470   0.47905   0.00000  Uiso   1.00
C402   C     0.21086   0.97881   0.23788   0.00000  Uiso   1.00
C403   C     0.12251   0.68786   0.26198   0.00000  Uiso   1.00
C404   C     0.21080   0.68815   0.23754   0.00000  Uiso   1.00
H405   H     0.03838   0.85734   0.05575   0.00000  Uiso   1.00
H406   H     0.02327   0.88106   0.30106   0.00000  Uiso   1.00
H407   H     0.24524   0.96263   0.22810   0.00000  Uiso   1.00
H408   H     0.08813   0.70403   0.27177   0.00000  Uiso   1.00
H409   H     0.24518   0.70456   0.22756   0.00000  Uiso   1.00
H410   H     0.08819   0.96212   0.27230   0.00000  Uiso   1.00
H411   H     0.26969   0.75575   0.45980   0.00000  Uiso   1.00
H412   H     0.15516   0.85611   0.10653   0.00000  Uiso   1.00
H413   H     0.18124   0.80567   0.38905   0.00000  Uiso   1.00
H414   H     0.28016   0.79219   0.10714   0.00000  Uiso   1.00
H415   H     0.04820   0.86110   0.39755   0.00000  Uiso   1.00
H416   H     0.09381   0.84136   0.09172   0.00000  Uiso   1.00
H417   H     0.21315   0.76888   0.42425   0.00000  Uiso   1.00
H418   H     0.31007   0.78563   0.19891   0.00000  Uiso   1.00
I419   I     0.32178   0.88408   0.49821   0.00000  Uiso   1.00
I420   I     0.32871   0.74693   0.01389   0.00000  Uiso   1.00
I421   I     0.08192   0.76271   0.17504   0.00000  Uiso   1.00
I422   I     0.25128   0.90376   0.32513   0.00000  Uiso   1.00
N423   N     0.04759   0.83334   0.25001   0.00000  Uiso   1.00
N424   N     0.28574   0.83332   0.24999   0.00000  Uiso   1.00
O425   O     0.12846   0.89442   0.25001   0.00000  Uiso   1.00
O426   O     0.20488   0.77225   0.24999   0.00000  Uiso   1.00
O427   O     0.20490   0.89441   0.25000   0.00000  Uiso   1.00
O428   O     0.12843   0.77226   0.25000   0.00000  Uiso   1.00
O429   O     0.10661   0.83334   0.31612   0.00000  Uiso   1.00
O430   O     0.22672   0.83333   0.18388   0.00000  Uiso   1.00
O431   O     0.18305   0.83333   0.31612   0.00000  Uiso   1.00
O432   O     0.15028   0.83334   0.18388   0.00000  Uiso   1.00
Zn433  Zn    0.11562   0.83334   0.25000   0.00000  Uiso   1.00
Zn434  Zn    0.21771   0.83333   0.25000   0.00000  Uiso   1.00
C435   C     0.50007   0.91331   0.25014   0.00000  Uiso   1.00
C436   C     0.45590   0.97852   0.26232   0.00000  Uiso   1.00
C437   C     0.49995   0.70918   0.24965   0.00000  Uiso   1.00
C438   C     0.50009   0.95749   0.25024   0.00000  Uiso   1.00
C439   C     0.65317   0.80679   0.22158   0.00000  Uiso   1.00
C440   C     0.34683   0.85989   0.27840   0.00000  Uiso   1.00
C441   C     0.36753   0.80657   0.22143   0.00000  Uiso   1.00
C442   C     0.63246   0.86008   0.27858   0.00000  Uiso   1.00
C443   C     0.46953   0.83320   0.33795   0.00000  Uiso   1.00
C444   C     0.53040   0.83264   0.16203   0.00000  Uiso   1.00
C445   C     0.44993   0.83251   0.38874   0.00000  Uiso   1.00
C446   C     0.49995   0.75336   0.24982   0.00000  Uiso   1.00
C447   C     0.54847   0.82471   0.11190   0.00000  Uiso   1.00
C448   C     0.38893   0.85282   0.46330   0.00000  Uiso   1.00
C449   C     0.59855   0.78396   0.04464   0.00000  Uiso   1.00
C450   C     0.40423   0.84907   0.41490   0.00000  Uiso   1.00
C451   C     0.58958   0.80019   0.08935   0.00000  Uiso   1.00
C452   C     0.47918   0.81720   0.41085   0.00000  Uiso   1.00
C453   C     0.51757   0.83441   0.08930   0.00000  Uiso   1.00
C454   C     0.46489   0.81981   0.45931   0.00000  Uiso   1.00
C455   C     0.52243   0.81517   0.04707   0.00000  Uiso   1.00
C456   C     0.41954   0.83893   0.48583   0.00000  Uiso   1.00
C457   C     0.43963   0.83605   0.05447   0.00000  Uiso   1.00
C458   C     0.56475   0.79114   0.02322   0.00000  Uiso   1.00
C459   C     0.49670   0.80728   0.48131   0.00000  Uiso   1.00
C460   C     0.48627   0.81991   0.02799   0.00000  Uiso   1.00
C461   C     0.53883   0.78309   0.45812   0.00000  Uiso   1.00
C462   C     0.40665   0.84472   0.03383   0.00000  Uiso   1.00
C463   C     0.57175   0.77470   0.47905   0.00000  Uiso   1.00
C464   C     0.54420   0.97881   0.23788   0.00000  Uiso   1.00
C465   C     0.45584   0.68786   0.26198   0.00000  Uiso   1.00
C466   C     0.54413   0.68815   0.23754   0.00000  Uiso   1.00
H467   H     0.37172   0.85734   0.05575   0.00000  Uiso   1.00
H468   H     0.35660   0.88106   0.30106   0.00000  Uiso   1.00
H469   H     0.57857   0.96263   0.22810   0.00000  Uiso   1.00
H470   H     0.42147   0.70403   0.27177   0.00000  Uiso   1.00
H471   H     0.57851   0.70456   0.22756   0.00000  Uiso   1.00
H472   H     0.42152   0.96212   0.27230   0.00000  Uiso   1.00
H473   H     0.60302   0.75575   0.45980   0.00000  Uiso   1.00
H474   H     0.48849   0.85611   0.10653   0.00000  Uiso   1.00
H475   H     0.51457   0.80567   0.38905   0.00000  Uiso   1.00
H476   H     0.61350   0.79219   0.10714   0.00000  Uiso   1.00
H477   H     0.38153   0.86110   0.39755   0.00000  Uiso   1.00
H478   H     0.42714   0.84136   0.09172   0.00000  Uiso   1.00
H479   H     0.54648   0.76888   0.42425   0.00000  Uiso   1.00
H480   H     0.64340   0.78563   0.19891   0.00000  Uiso   1.00
I481   I     0.65511   0.88408   0.49821   0.00000  Uiso   1.00
I482   I     0.66205   0.74693   0.01389   0.00000  Uiso   1.00
I483   I     0.41526   0.76271   0.17504   0.00000  Uiso   1.00
I484   I     0.58461   0.90376   0.32513   0.00000  Uiso   1.00
N485   N     0.38093   0.83334   0.25001   0.00000  Uiso   1.00
N486   N     0.61907   0.83332   0.24999   0.00000  Uiso   1.00
O487   O     0.46179   0.89442   0.25001   0.00000  Uiso   1.00
O488   O     0.53821   0.77225   0.24999   0.00000  Uiso   1.00
O489   O     0.53823   0.89441   0.25000   0.00000  Uiso   1.00
O490   O     0.46177   0.77226   0.25000   0.00000  Uiso   1.00
O491   O     0.43994   0.83334   0.31612   0.00000  Uiso   1.00
O492   O     0.56006   0.83333   0.18388   0.00000  Uiso   1.00
O493   O     0.51639   0.83333   0.31612   0.00000  Uiso   1.00
O494   O     0.48361   0.83334   0.18388   0.00000  Uiso   1.00
Zn495  Zn    0.44896   0.83334   0.25000   0.00000  Uiso   1.00
Zn496  Zn    0.55104   0.83333   0.25000   0.00000  Uiso   1.00
C497   C     0.83340   0.91331   0.25014   0.00000  Uiso   1.00
C498   C     0.78924   0.97852   0.26232   0.00000  Uiso   1.00
C499   C     0.83328   0.70918   0.24965   0.00000  Uiso   1.00
C500   C     0.83342   0.95749   0.25024   0.00000  Uiso   1.00
C501   C     0.98651   0.80679   0.22158   0.00000  Uiso   1.00
C502   C     0.68017   0.85989   0.27840   0.00000  Uiso   1.00
C503   C     0.70087   0.80657   0.22143   0.00000  Uiso   1.00
C504   C     0.96579   0.86008   0.27858   0.00000  Uiso   1.00
C505   C     0.80286   0.83320   0.33795   0.00000  Uiso   1.00
C506   C     0.86374   0.83264   0.16203   0.00000  Uiso   1.00
C507   C     0.78326   0.83251   0.38874   0.00000  Uiso   1.00
C508   C     0.83328   0.75336   0.24982   0.00000  Uiso   1.00
C509   C     0.88180   0.82471   0.11190   0.00000  Uiso   1.00
C510   C     0.72227   0.85282   0.46330   0.00000  Uiso   1.00
C511   C     0.93188   0.78396   0.04464   0.00000  Uiso   1.00
C512   C     0.73757   0.84907   0.41490   0.00000  Uiso   1.00
C513   C     0.92292   0.80019   0.08935   0.00000  Uiso   1.00
C514   C     0.81251   0.81720   0.41085   0.00000  Uiso   1.00
C515   C     0.85090   0.83441   0.08930   0.00000  Uiso   1.00
C516   C     0.79822   0.81981   0.45931   0.00000  Uiso   1.00
C517   C     0.85576   0.81517   0.04707   0.00000  Uiso   1.00
C518   C     0.75288   0.83893   0.48583   0.00000  Uiso   1.00
C519   C     0.77296   0.83605   0.05447   0.00000  Uiso   1.00
C520   C     0.89808   0.79114   0.02322   0.00000  Uiso   1.00
C521   C     0.83003   0.80728   0.48131   0.00000  Uiso   1.00
C522   C     0.81960   0.81991   0.02799   0.00000  Uiso   1.00
C523   C     0.87216   0.78309   0.45812   0.00000  Uiso   1.00
C524   C     0.73999   0.84472   0.03383   0.00000  Uiso   1.00
C525   C     0.90509   0.77470   0.47905   0.00000  Uiso   1.00
C526   C     0.87753   0.97881   0.23788   0.00000  Uiso   1.00
C527   C     0.78918   0.68786   0.26198   0.00000  Uiso   1.00
C528   C     0.87747   0.68815   0.23754   0.00000  Uiso   1.00
H529   H     0.70505   0.85734   0.05575   0.00000  Uiso   1.00
H530   H     0.68993   0.88106   0.30106   0.00000  Uiso   1.00
H531   H     0.91190   0.96263   0.22810   0.00000  Uiso   1.00
H532   H     0.75480   0.70403   0.27177   0.00000  Uiso   1.00
H533   H     0.91185   0.70456   0.22756   0.00000  Uiso   1.00
H534   H     0.75486   0.96212   0.27230   0.00000  Uiso   1.00
H535   H     0.93636   0.75575   0.45980   0.00000  Uiso   1.00
H536   H     0.82183   0.85611   0.10653   0.00000  Uiso   1.00
H537   H     0.84790   0.80567   0.38905   0.00000  Uiso   1.00
H538   H     0.94683   0.79219   0.10714   0.00000  Uiso   1.00
H539   H     0.71486   0.86110   0.39755   0.00000  Uiso   1.00
H540   H     0.76047   0.84136   0.09172   0.00000  Uiso   1.00
H541   H     0.87982   0.76888   0.42425   0.00000  Uiso   1.00
H542   H     0.97674   0.78563   0.19891   0.00000  Uiso   1.00
I543   I     0.98845   0.88408   0.49821   0.00000  Uiso   1.00
I544   I     0.99538   0.74693   0.01389   0.00000  Uiso   1.00
I545   I     0.74859   0.76271   0.17504   0.00000  Uiso   1.00
I546   I     0.91794   0.90376   0.32513   0.00000  Uiso   1.00
N547   N     0.71426   0.83334   0.25001   0.00000  Uiso   1.00
N548   N     0.95241   0.83332   0.24999   0.00000  Uiso   1.00
O549   O     0.79512   0.89442   0.25001   0.00000  Uiso   1.00
O550   O     0.87154   0.77225   0.24999   0.00000  Uiso   1.00
O551   O     0.87157   0.89441   0.25000   0.00000  Uiso   1.00
O552   O     0.79510   0.77226   0.25000   0.00000  Uiso   1.00
O553   O     0.77328   0.83334   0.31612   0.00000  Uiso   1.00
O554   O     0.89339   0.83333   0.18388   0.00000  Uiso   1.00
O555   O     0.84972   0.83333   0.31612   0.00000  Uiso   1.00
O556   O     0.81695   0.83334   0.18388   0.00000  Uiso   1.00
Zn557  Zn    0.78229   0.83334   0.25000   0.00000  Uiso   1.00
Zn558  Zn    0.88438   0.83333   0.25000   0.00000  Uiso   1.00
C559   C     0.16673   0.24665   0.75014   0.00000  Uiso   1.00
C560   C     0.12257   0.31185   0.76232   0.00000  Uiso   1.00
C561   C     0.16661   0.04251   0.74965   0.00000  Uiso   1.00
C562   C     0.16676   0.29082   0.75024   0.00000  Uiso   1.00
C563   C     0.31984   0.14013   0.72158   0.00000  Uiso   1.00
C564   C     0.01350   0.19322   0.77840   0.00000  Uiso   1.00
C565   C     0.03420   0.13990   0.72143   0.00000  Uiso   1.00
C566   C     0.29912   0.19342   0.77858   0.00000  Uiso   1.00
C567   C     0.13620   0.16653   0.83795   0.00000  Uiso   1.00
C568   C     0.19707   0.16598   0.66203   0.00000  Uiso   1.00
C569   C     0.11659   0.16584   0.88874   0.00000  Uiso   1.00
C570   C     0.16661   0.08669   0.74982   0.00000  Uiso   1.00
C571   C     0.21513   0.15805   0.61190   0.00000  Uiso   1.00
C572   C     0.05560   0.18615   0.96330   0.00000  Uiso   1.00
C573   C     0.26521   0.11729   0.54464   0.00000  Uiso   1.00
C574   C     0.07090   0.18240   0.91490   0.00000  Uiso   1.00
C575   C     0.25625   0.13352   0.58935   0.00000  Uiso   1.00
C576   C     0.14585   0.15054   0.91085   0.00000  Uiso   1.00
C577   C     0.18423   0.16775   0.58930   0.00000  Uiso   1.00
C578   C     0.13155   0.15314   0.95931   0.00000  Uiso   1.00
C579   C     0.18910   0.14851   0.54707   0.00000  Uiso   1.00
C580   C     0.08621   0.17227   0.98583   0.00000  Uiso   1.00
C581   C     0.10630   0.16939   0.55447   0.00000  Uiso   1.00
C582   C     0.23142   0.12448   0.52322   0.00000  Uiso   1.00
C583   C     0.16336   0.14061   0.98131   0.00000  Uiso   1.00
C584   C     0.15294   0.15324   0.52799   0.00000  Uiso   1.00
C585   C     0.20550   0.11643   0.95812   0.00000  Uiso   1.00
C586   C     0.07332   0.17805   0.53383   0.00000  Uiso   1.00
C587   C     0.23842   0.10803   0.97905   0.00000  Uiso   1.00
C588   C     0.21086   0.31215   0.73788   0.00000  Uiso   1.00
C589   C     0.12251   0.02119   0.76198   0.00000  Uiso   1.00
C590   C     0.21080   0.02148   0.73754   0.00000  Uiso   1.00
H591   H     0.03838   0.19067   0.55575   0.00000  Uiso   1.00
H592   H     0.02327   0.21439   0.80106   0.00000  Uiso   1.00
H593   H     0.24524   0.29597   0.72810   0.00000  Uiso   1.00
H594   H     0.08813   0.03737   0.77177   0.00000  Uiso   1.00
H595   H     0.24518   0.03789   0.72756   0.00000  Uiso   1.00
H596   H     0.08819   0.29545   0.77230   0.00000  Uiso   1.00
H597   H     0.26969   0.08909   0.95980   0.00000  Uiso   1.00
H598   H     0.15516   0.18944   0.60653   0.00000  Uiso   1.00
H599   H     0.18124   0.13901   0.88905   0.00000  Uiso   1.00
H600   H     0.28016   0.12552   0.60714   0.00000  Uiso   1.00
H601   H     0.04820   0.19443   0.89755   0.00000  Uiso   1.00
H602   H     0.09381   0.17469   0.59172   0.00000  Uiso   1.00
H603   H     0.21315   0.10221   0.92425   0.00000  Uiso   1.00
H604   H     0.31007   0.11896   0.69891   0.00000  Uiso   1.00
I605   I     0.32178   0.21741   0.99821   0.00000  Uiso   1.00
I606   I     0.32871   0.08027   0.51389   0.00000  Uiso   1.00
I607   I     0.08192   0.09605   0.67504   0.00000  Uiso   1.00
I608   I     0.25128   0.23709   0.82513   0.00000  Uiso   1.00
N609   N     0.04759   0.16668   0.75001   0.00000  Uiso   1.00
N610   N     0.28574   0.16666   0.74999   0.00000  Uiso   1.00
O611   O     0.12846   0.22775   0.75001   0.00000  Uiso   1.00
O612   O     0.20488   0.10558   0.74999   0.00000  Uiso   1.00
O613   O     0.20490   0.22774   0.75000   0.00000  Uiso   1.00
O614   O     0.12843   0.10559   0.75000   0.00000  Uiso   1.00
O615   O     0.10661   0.16667   0.81612   0.00000  Uiso   1.00
O616   O     0.22672   0.16666   0.68388   0.00000  Uiso   1.00
O617   O     0.18305   0.16666   0.81612   0.00000  Uiso   1.00
O618   O     0.15028   0.16667   0.68388   0.00000  Uiso   1.00
Zn619  Zn    0.11562   0.16667   0.75000   0.00000  Uiso   1.00
Zn620  Zn    0.21771   0.16666   0.75000   0.00000  Uiso   1.00
C621   C     0.50007   0.24665   0.75014   0.00000  Uiso   1.00
C622   C     0.45590   0.31185   0.76232   0.00000  Uiso   1.00
C623   C     0.49995   0.04251   0.74965   0.00000  Uiso   1.00
C624   C     0.50009   0.29082   0.75024   0.00000  Uiso   1.00
C625   C     0.65317   0.14013   0.72158   0.00000  Uiso   1.00
C626   C     0.34683   0.19322   0.77840   0.00000  Uiso   1.00
C627   C     0.36753   0.13990   0.72143   0.00000  Uiso   1.00
C628   C     0.63246   0.19342   0.77858   0.00000  Uiso   1.00
C629   C     0.46953   0.16653   0.83795   0.00000  Uiso   1.00
C630   C     0.53040   0.16598   0.66203   0.00000  Uiso   1.00
C631   C     0.44993   0.16584   0.88874   0.00000  Uiso   1.00
C632   C     0.49995   0.08669   0.74982   0.00000  Uiso   1.00
C633   C     0.54847   0.15805   0.61190   0.00000  Uiso   1.00
C634   C     0.38893   0.18615   0.96330   0.00000  Uiso   1.00
C635   C     0.59855   0.11729   0.54464   0.00000  Uiso   1.00
C636   C     0.40423   0.18240   0.91490   0.00000  Uiso   1.00
C637   C     0.58958   0.13352   0.58935   0.00000  Uiso   1.00
C638   C     0.47918   0.15054   0.91085   0.00000  Uiso   1.00
C639   C     0.51757   0.16775   0.58930   0.00000  Uiso   1.00
C640   C     0.46489   0.15314   0.95931   0.00000  Uiso   1.00
C641   C     0.52243   0.14851   0.54707   0.00000  Uiso   1.00
C642   C     0.41954   0.17227   0.98583   0.00000  Uiso   1.00
C643   C     0.43963   0.16939   0.55447   0.00000  Uiso   1.00
C644   C     0.56475   0.12448   0.52322   0.00000  Uiso   1.00
C645   C     0.49670   0.14061   0.98131   0.00000  Uiso   1.00
C646   C     0.48627   0.15324   0.52799   0.00000  Uiso   1.00
C647   C     0.53883   0.11643   0.95812   0.00000  Uiso   1.00
C648   C     0.40665   0.17805   0.53383   0.00000  Uiso   1.00
C649   C     0.57175   0.10803   0.97905   0.00000  Uiso   1.00
C650   C     0.54420   0.31215   0.73788   0.00000  Uiso   1.00
C651   C     0.45584   0.02119   0.76198   0.00000  Uiso   1.00
C652   C     0.54413   0.02148   0.73754   0.00000  Uiso   1.00
H653   H     0.37172   0.19067   0.55575   0.00000  Uiso   1.00
H654   H     0.35660   0.21439   0.80106   0.00000  Uiso   1.00
H655   H     0.57857   0.29597   0.72810   0.00000  Uiso   1.00
H656   H     0.42147   0.03737   0.77177   0.00000  Uiso   1.00
H657   H     0.57851   0.03789   0.72756   0.00000  Uiso   1.00
H658   H     0.42152   0.29545   0.77230   0.00000  Uiso   1.00
H659   H     0.60302   0.08909   0.95980   0.00000  Uiso   1.00
H660   H     0.48849   0.18944   0.60653   0.00000  Uiso   1.00
H661   H     0.51457   0.13901   0.88905   0.00000  Uiso   1.00
H662   H     0.61350   0.12552   0.60714   0.00000  Uiso   1.00
H663   H     0.38153   0.19443   0.89755   0.00000  Uiso   1.00
H664   H     0.42714   0.17469   0.59172   0.00000  Uiso   1.00
H665   H     0.54648   0.10221   0.92425   0.00000  Uiso   1.00
H666   H     0.64340   0.11896   0.69891   0.00000  Uiso   1.00
I667   I     0.65511   0.21741   0.99821   0.00000  Uiso   1.00
I668   I     0.66205   0.08027   0.51389   0.00000  Uiso   1.00
I669   I     0.41526   0.09605   0.67504   0.00000  Uiso   1.00
I670   I     0.58461   0.23709   0.82513   0.00000  Uiso   1.00
N671   N     0.38093   0.16668   0.75001   0.00000  Uiso   1.00
N672   N     0.61907   0.16666   0.74999   0.00000  Uiso   1.00
O673   O     0.46179   0.22775   0.75001   0.00000  Uiso   1.00
O674   O     0.53821   0.10558   0.74999   0.00000  Uiso   1.00
O675   O     0.53823   0.22774   0.75000   0.00000  Uiso   1.00
O676   O     0.46177   0.10559   0.75000   0.00000  Uiso   1.00
O677   O     0.43994   0.16667   0.81612   0.00000  Uiso   1.00
O678   O     0.56006   0.16666   0.68388   0.00000  Uiso   1.00
O679   O     0.51639   0.16666   0.81612   0.00000  Uiso   1.00
O680   O     0.48361   0.16667   0.68388   0.00000  Uiso   1.00
Zn681  Zn    0.44896   0.16667   0.75000   0.00000  Uiso   1.00
Zn682  Zn    0.55104   0.16666   0.75000   0.00000  Uiso   1.00
C683   C     0.83340   0.24665   0.75014   0.00000  Uiso   1.00
C684   C     0.78924   0.31185   0.76232   0.00000  Uiso   1.00
C685   C     0.83328   0.04251   0.74965   0.00000  Uiso   1.00
C686   C     0.83342   0.29082   0.75024   0.00000  Uiso   1.00
C687   C     0.98651   0.14013   0.72158   0.00000  Uiso   1.00
C688   C     0.68017   0.19322   0.77840   0.00000  Uiso   1.00
C689   C     0.70087   0.13990   0.72143   0.00000  Uiso   1.00
C690   C     0.96579   0.19342   0.77858   0.00000  Uiso   1.00
C691   C     0.80286   0.16653   0.83795   0.00000  Uiso   1.00
C692   C     0.86374   0.16598   0.66203   0.00000  Uiso   1.00
C693   C     0.78326   0.16584   0.88874   0.00000  Uiso   1.00
C694   C     0.83328   0.08669   0.74982   0.00000  Uiso   1.00
C695   C     0.88180   0.15805   0.61190   0.00000  Uiso   1.00
C696   C     0.72227   0.18615   0.96330   0.00000  Uiso   1.00
C697   C     0.93188   0.11729   0.54464   0.00000  Uiso   1.00
C698   C     0.73757   0.18240   0.91490   0.00000  Uiso   1.00
C699   C     0.92292   0.13352   0.58935   0.00000  Uiso   1.00
C700   C     0.81251   0.15054   0.91085   0.00000  Uiso   1.00
C701   C     0.85090   0.16775   0.58930   0.00000  Uiso   1.00
C702   C     0.79822   0.15314   0.95931   0.00000  Uiso   1.00
C703   C     0.85576   0.14851   0.54707   0.00000  Uiso   1.00
C704   C     0.75288   0.17227   0.98583   0.00000  Uiso   1.00
C705   C     0.77296   0.16939   0.55447   0.00000  Uiso   1.00
C706   C     0.89808   0.12448   0.52322   0.00000  Uiso   1.00
C707   C     0.83003   0.14061   0.98131   0.00000  Uiso   1.00
C708   C     0.81960   0.15324   0.52799   0.00000  Uiso   1.00
C709   C     0.87216   0.11643   0.95812   0.00000  Uiso   1.00
C710   C     0.73999   0.17805   0.53383   0.00000  Uiso   1.00
C711   C     0.90509   0.10803   0.97905   0.00000  Uiso   1.00
C712   C     0.87753   0.31215   0.73788   0.00000  Uiso   1.00
C713   C     0.78918   0.02119   0.76198   0.00000  Uiso   1.00
C714   C     0.87747   0.02148   0.73754   0.00000  Uiso   1.00
H715   H     0.70505   0.19067   0.55575   0.00000  Uiso   1.00
H716   H     0.68993   0.21439   0.80106   0.00000  Uiso   1.00
H717   H     0.91190   0.29597   0.72810   0.00000  Uiso   1.00
H718   H     0.75480   0.03737   0.77177   0.00000  Uiso   1.00
H719   H     0.91185   0.03789   0.72756   0.00000  Uiso   1.00
H720   H     0.75486   0.29545   0.77230   0.00000  Uiso   1.00
H721   H     0.93636   0.08909   0.95980   0.00000  Uiso   1.00
H722   H     0.82183   0.18944   0.60653   0.00000  Uiso   1.00
H723   H     0.84790   0.13901   0.88905   0.00000  Uiso   1.00
H724   H     0.94683   0.12552   0.60714   0.00000  Uiso   1.00
H725   H     0.71486   0.19443   0.89755   0.00000  Uiso   1.00
H726   H     0.76047   0.17469   0.59172   0.00000  Uiso   1.00
H727   H     0.87982   0.10221   0.92425   0.00000  Uiso   1.00
H728   H     0.97674   0.11896   0.69891   0.00000  Uiso   1.00
I729   I     0.98845   0.21741   0.99821   0.00000  Uiso   1.00
I730   I     0.99538   0.08027   0.51389   0.00000  Uiso   1.00
I731   I     0.74859   0.09605   0.67504   0.00000  Uiso   1.00
I732   I     0.91794   0.23709   0.82513   0.00000  Uiso   1.00
N733   N     0.71426   0.16668   0.75001   0.00000  Uiso   1.00
N734   N     0.95241   0.16666   0.74999   0.00000  Uiso   1.00
O735   O     0.79512   0.22775   0.75001   0.00000  Uiso   1.00
O736   O     0.87154   0.10558   0.74999   0.00000  Uiso   1.00
O737   O     0.87157   0.22774   0.75000   0.00000  Uiso   1.00
O738   O     0.79510   0.10559   0.75000   0.00000  Uiso   1.00
O739   O     0.77328   0.16667   0.81612   0.00000  Uiso   1.00
O740   O     0.89339   0.16666   0.68388   0.00000  Uiso   1.00
O741   O     0.84972   0.16666   0.81612   0.00000  Uiso   1.00
O742   O     0.81695   0.16667   0.68388   0.00000  Uiso   1.00
Zn743  Zn    0.78229   0.16667   0.75000   0.00000  Uiso   1.00
Zn744  Zn    0.88438   0.16666   0.75000   0.00000  Uiso   1.00
C745   C     0.16673   0.57998   0.75014   0.00000  Uiso   1.00
C746   C     0.12257   0.64519   0.76232   0.00000  Uiso   1.00
C747   C     0.16661   0.37585   0.74965   0.00000  Uiso   1.00
C748   C     0.16676   0.62416   0.75024   0.00000  Uiso   1.00
C749   C     0.31984   0.47346   0.72158   0.00000  Uiso   1.00
C750   C     0.01350   0.52656   0.77840   0.00000  Uiso   1.00
C751   C     0.03420   0.47324   0.72143   0.00000  Uiso   1.00
C752   C     0.29912   0.52675   0.77858   0.00000  Uiso   1.00
C753   C     0.13620   0.49987   0.83795   0.00000  Uiso   1.00
C754   C     0.19707   0.49931   0.66203   0.00000  Uiso   1.00
C755   C     0.11659   0.49918   0.88874   0.00000  Uiso   1.00
C756   C     0.16661   0.42002   0.74982   0.00000  Uiso   1.00
C757   C     0.21513   0.49138   0.61190   0.00000  Uiso   1.00
C758   C     0.05560   0.51948   0.96330   0.00000  Uiso   1.00
C759   C     0.26521   0.45063   0.54464   0.00000  Uiso   1.00
C760   C     0.07090   0.51573   0.91490   0.00000  Uiso   1.00
C761   C     0.25625   0.46686   0.58935   0.00000  Uiso   1.00
C762   C     0.14585   0.48387   0.91085   0.00000  Uiso   1.00
C763   C     0.18423   0.50108   0.58930   0.00000  Uiso   1.00
C764   C     0.13155   0.48648   0.95931   0.00000  Uiso   1.00
C765   C     0.18910   0.48184   0.54707   0.00000  Uiso   1.00
C766   C     0.08621   0.50560   0.98583   0.00000  Uiso   1.00
C767   C     0.10630   0.50272   0.55447   0.00000  Uiso   1.00
C768   C     0.23142   0.45781   0.52322   0.00000  Uiso   1.00
C769   C     0.16336   0.47395   0.98131   0.00000  Uiso   1.00
C770   C     0.15294   0.48658   0.52799   0.00000  Uiso   1.00
C771   C     0.20550   0.44976   0.95812   0.00000  Uiso   1.00
C772   C     0.07332   0.51139   0.53383   0.00000  Uiso   1.00
C773   C     0.23842   0.44137   0.97905   0.00000  Uiso   1.00
C774   C     0.21086   0.64548   0.73788   0.00000  Uiso   1.00
C775   C     0.12251   0.35452   0.76198   0.00000  Uiso   1.00
C776   C     0.21080   0.35482   0.73754   0.00000  Uiso   1.00
H777   H     0.03838   0.52401   0.55575   0.00000  Uiso   1.00
H778   H     0.02327   0.54773   0.80106   0.00000  Uiso   1.00
H779   H     0.24524   0.62930   0.72810   0.00000  Uiso   1.00
H780   H     0.08813   0.37070   0.77177   0.00000  Uiso   1.00
H781   H     0.24518   0.37122   0.72756   0.00000  Uiso   1.00
H782   H     0.08819   0.62879   0.77230   0.00000  Uiso   1.00
H783   H     0.26969   0.42242   0.95980   0.00000  Uiso   1.00
H784   H     0.15516   0.52277   0.60653   0.00000  Uiso   1.00
H785   H     0.18124   0.47234   0.88905   0.00000  Uiso   1.00
H786   H     0.28016   0.45886   0.60714   0.00000  Uiso   1.00
H787   H     0.04820   0.52776   0.89755   0.00000  Uiso   1.00
H788   H     0.09381   0.50802   0.59172   0.00000  Uiso   1.00
H789   H     0.21315   0.43555   0.92425   0.00000  Uiso   1.00
H790   H     0.31007   0.45230   0.69891   0.00000  Uiso   1.00
I791   I     0.32178   0.55074   0.99821   0.00000  Uiso   1.00
I792   I     0.32871   0.41360   0.51389   0.00000  Uiso   1.00
I793   I     0.08192   0.42938   0.67504   0.00000  Uiso   1.00
I794   I     0.25128   0.57042   0.82513   0.00000  Uiso   1.00
N795   N     0.04759   0.50001   0.75001   0.00000  Uiso   1.00
N796   N     0.28574   0.49999   0.74999   0.00000  Uiso   1.00
O797   O     0.12846   0.56108   0.75001   0.00000  Uiso   1.00
O798   O     0.20488   0.43892   0.74999   0.00000  Uiso   1.00
O799   O     0.20490   0.56107   0.75000   0.00000  Uiso   1.00
O800   O     0.12843   0.43893   0.75000   0.00000  Uiso   1.00
O801   O     0.10661   0.50001   0.81612   0.00000  Uiso   1.00
O802   O     0.22672   0.49999   0.68388   0.00000  Uiso   1.00
O803   O     0.18305   0.50000   0.81612   0.00000  Uiso   1.00
O804   O     0.15028   0.50000   0.68388   0.00000  Uiso   1.00
Zn805  Zn    0.11562   0.50001   0.75000   0.00000  Uiso   1.00
Zn806  Zn    0.21771   0.49999   0.75000   0.00000  Uiso   1.00
C807   C     0.50007   0.57998   0.75014   0.00000  Uiso   1.00
C808   C     0.45590   0.64519   0.76232   0.00000  Uiso   1.00
C809   C     0.49995   0.37585   0.74965   0.00000  Uiso   1.00
C810   C     0.50009   0.62416   0.75024   0.00000  Uiso   1.00
C811   C     0.65317   0.47346   0.72158   0.00000  Uiso   1.00
C812   C     0.34683   0.52656   0.77840   0.00000  Uiso   1.00
C813   C     0.36753   0.47324   0.72143   0.00000  Uiso   1.00
C814   C     0.63246   0.52675   0.77858   0.00000  Uiso   1.00
C815   C     0.46953   0.49987   0.83795   0.00000  Uiso   1.00
C816   C     0.53040   0.49931   0.66203   0.00000  Uiso   1.00
C817   C     0.44993   0.49918   0.88874   0.00000  Uiso   1.00
C818   C     0.49995   0.42002   0.74982   0.00000  Uiso   1.00
C819   C     0.54847   0.49138   0.61190   0.00000  Uiso   1.00
C820   C     0.38893   0.51948   0.96330   0.00000  Uiso   1.00
C821   C     0.59855   0.45063   0.54464   0.00000  Uiso   1.00
C822   C     0.40423   0.51573   0.91490   0.00000  Uiso   1.00
C823   C     0.58958   0.46686   0.58935   0.00000  Uiso   1.00
C824   C     0.47918   0.48387   0.91085   0.00000  Uiso   1.00
C825   C     0.51757   0.50108   0.58930   0.00000  Uiso   1.00
C826   C     0.46489   0.48648   0.95931   0.00000  Uiso   1.00
C827   C     0.52243   0.48184   0.54707   0.00000  Uiso   1.00
C828   C     0.41954   0.50560   0.98583   0.00000  Uiso   1.00
C829   C     0.43963   0.50272   0.55447   0.00000  Uiso   1.00
C830   C     0.56475   0.45781   0.52322   0.00000  Uiso   1.00
C831   C     0.49670   0.47395   0.98131   0.00000  Uiso   1.00
C832   C     0.48627   0.48658   0.52799   0.00000  Uiso   1.00
C833   C     0.53883   0.44976   0.95812   0.00000  Uiso   1.00
C834   C     0.40665   0.51139   0.53383   0.00000  Uiso   1.00
C835   C     0.57175   0.44137   0.97905   0.00000  Uiso   1.00
C836   C     0.54420   0.64548   0.73788   0.00000  Uiso   1.00
C837   C     0.45584   0.35452   0.76198   0.00000  Uiso   1.00
C838   C     0.54413   0.35482   0.73754   0.00000  Uiso   1.00
H839   H     0.37172   0.52401   0.55575   0.00000  Uiso   1.00
H840   H     0.35660   0.54773   0.80106   0.00000  Uiso   1.00
H841   H     0.57857   0.62930   0.72810   0.00000  Uiso   1.00
H842   H     0.42147   0.37070   0.77177   0.00000  Uiso   1.00
H843   H     0.57851   0.37122   0.72756   0.00000  Uiso   1.00
H844   H     0.42152   0.62879   0.77230   0.00000  Uiso   1.00
H845   H     0.60302   0.42242   0.95980   0.00000  Uiso   1.00
H846   H     0.48849   0.52277   0.60653   0.00000  Uiso   1.00
H847   H     0.51457   0.47234   0.88905   0.00000  Uiso   1.00
H848   H     0.61350   0.45886   0.60714   0.00000  Uiso   1.00
H849   H     0.38153   0.52776   0.89755   0.00000  Uiso   1.00
H850   H     0.42714   0.50802   0.59172   0.00000  Uiso   1.00
H851   H     0.54648   0.43555   0.92425   0.00000  Uiso   1.00
H852   H     0.64340   0.45230   0.69891   0.00000  Uiso   1.00
I853   I     0.65511   0.55074   0.99821   0.00000  Uiso   1.00
I854   I     0.66205   0.41360   0.51389   0.00000  Uiso   1.00
I855   I     0.41526   0.42938   0.67504   0.00000  Uiso   1.00
I856   I     0.58461   0.57042   0.82513   0.00000  Uiso   1.00
N857   N     0.38093   0.50001   0.75001   0.00000  Uiso   1.00
N858   N     0.61907   0.49999   0.74999   0.00000  Uiso   1.00
O859   O     0.46179   0.56108   0.75001   0.00000  Uiso   1.00
O860   O     0.53821   0.43892   0.74999   0.00000  Uiso   1.00
O861   O     0.53823   0.56107   0.75000   0.00000  Uiso   1.00
O862   O     0.46177   0.43893   0.75000   0.00000  Uiso   1.00
O863   O     0.43994   0.50001   0.81612   0.00000  Uiso   1.00
O864   O     0.56006   0.49999   0.68388   0.00000  Uiso   1.00
O865   O     0.51639   0.50000   0.81612   0.00000  Uiso   1.00
O866   O     0.48361   0.50000   0.68388   0.00000  Uiso   1.00
Zn867  Zn    0.44896   0.50001   0.75000   0.00000  Uiso   1.00
Zn868  Zn    0.55104   0.49999   0.75000   0.00000  Uiso   1.00
C869   C     0.83340   0.57998   0.75014   0.00000  Uiso   1.00
C870   C     0.78924   0.64519   0.76232   0.00000  Uiso   1.00
C871   C     0.83328   0.37585   0.74965   0.00000  Uiso   1.00
C872   C     0.83342   0.62416   0.75024   0.00000  Uiso   1.00
C873   C     0.98651   0.47346   0.72158   0.00000  Uiso   1.00
C874   C     0.68017   0.52656   0.77840   0.00000  Uiso   1.00
C875   C     0.70087   0.47324   0.72143   0.00000  Uiso   1.00
C876   C     0.96579   0.52675   0.77858   0.00000  Uiso   1.00
C877   C     0.80286   0.49987   0.83795   0.00000  Uiso   1.00
C878   C     0.86374   0.49931   0.66203   0.00000  Uiso   1.00
C879   C     0.78326   0.49918   0.88874   0.00000  Uiso   1.00
C880   C     0.83328   0.42002   0.74982   0.00000  Uiso   1.00
C881   C     0.88180   0.49138   0.61190   0.00000  Uiso   1.00
C882   C     0.72227   0.51948   0.96330   0.00000  Uiso   1.00
C883   C     0.93188   0.45063   0.54464   0.00000  Uiso   1.00
C884   C     0.73757   0.51573   0.91490   0.00000  Uiso   1.00
C885   C     0.92292   0.46686   0.58935   0.00000  Uiso   1.00
C886   C     0.81251   0.48387   0.91085   0.00000  Uiso   1.00
C887   C     0.85090   0.50108   0.58930   0.00000  Uiso   1.00
C888   C     0.79822   0.48648   0.95931   0.00000  Uiso   1.00
C889   C     0.85576   0.48184   0.54707   0.00000  Uiso   1.00
C890   C     0.75288   0.50560   0.98583   0.00000  Uiso   1.00
C891   C     0.77296   0.50272   0.55447   0.00000  Uiso   1.00
C892   C     0.89808   0.45781   0.52322   0.00000  Uiso   1.00
C893   C     0.83003   0.47395   0.98131   0.00000  Uiso   1.00
C894   C     0.81960   0.48658   0.52799   0.00000  Uiso   1.00
C895   C     0.87216   0.44976   0.95812   0.00000  Uiso   1.00
C896   C     0.73999   0.51139   0.53383   0.00000  Uiso   1.00
C897   C     0.90509   0.44137   0.97905   0.00000  Uiso   1.00
C898   C     0.87753   0.64548   0.73788   0.00000  Uiso   1.00
C899   C     0.78918   0.35452   0.76198   0.00000  Uiso   1.00
C900   C     0.87747   0.35482   0.73754   0.00000  Uiso   1.00
H901   H     0.70505   0.52401   0.55575   0.00000  Uiso   1.00
H902   H     0.68993   0.54773   0.80106   0.00000  Uiso   1.00
H903   H     0.91190   0.62930   0.72810   0.00000  Uiso   1.00
H904   H     0.75480   0.37070   0.77177   0.00000  Uiso   1.00
H905   H     0.91185   0.37122   0.72756   0.00000  Uiso   1.00
H906   H     0.75486   0.62879   0.77230   0.00000  Uiso   1.00
H907   H     0.93636   0.42242   0.95980   0.00000  Uiso   1.00
H908   H     0.82183   0.52277   0.60653   0.00000  Uiso   1.00
H909   H     0.84790   0.47234   0.88905   0.00000  Uiso   1.00
H910   H     0.94683   0.45886   0.60714   0.00000  Uiso   1.00
H911   H     0.71486   0.52776   0.89755   0.00000  Uiso   1.00
H912   H     0.76047   0.50802   0.59172   0.00000  Uiso   1.00
H913   H     0.87982   0.43555   0.92425   0.00000  Uiso   1.00
H914   H     0.97674   0.45230   0.69891   0.00000  Uiso   1.00
I915   I     0.98845   0.55074   0.99821   0.00000  Uiso   1.00
I916   I     0.99538   0.41360   0.51389   0.00000  Uiso   1.00
I917   I     0.74859   0.42938   0.67504   0.00000  Uiso   1.00
I918   I     0.91794   0.57042   0.82513   0.00000  Uiso   1.00
N919   N     0.71426   0.50001   0.75001   0.00000  Uiso   1.00
N920   N     0.95241   0.49999   0.74999   0.00000  Uiso   1.00
O921   O     0.79512   0.56108   0.75001   0.00000  Uiso   1.00
O922   O     0.87154   0.43892   0.74999   0.00000  Uiso   1.00
O923   O     0.87157   0.56107   0.75000   0.00000  Uiso   1.00
O924   O     0.79510   0.43893   0.75000   0.00000  Uiso   1.00
O925   O     0.77328   0.50001   0.81612   0.00000  Uiso   1.00
O926   O     0.89339   0.49999   0.68388   0.00000  Uiso   1.00
O927   O     0.84972   0.50000   0.81612   0.00000  Uiso   1.00
O928   O     0.81695   0.50000   0.68388   0.00000  Uiso   1.00
Zn929  Zn    0.78229   0.50001   0.75000   0.00000  Uiso   1.00
Zn930  Zn    0.88438   0.49999   0.75000   0.00000  Uiso   1.00
C931   C     0.16673   0.91331   0.75014   0.00000  Uiso   1.00
C932   C     0.12257   0.97852   0.76232   0.00000  Uiso   1.00
C933   C     0.16661   0.70918   0.74965   0.00000  Uiso   1.00
C934   C     0.16676   0.95749   0.75024   0.00000  Uiso   1.00
C935   C     0.31984   0.80679   0.72158   0.00000  Uiso   1.00
C936   C     0.01350   0.85989   0.77840   0.00000  Uiso   1.00
C937   C     0.03420   0.80657   0.72143   0.00000  Uiso   1.00
C938   C     0.29912   0.86008   0.77858   0.00000  Uiso   1.00
C939   C     0.13620   0.83320   0.83795   0.00000  Uiso   1.00
C940   C     0.19707   0.83264   0.66203   0.00000  Uiso   1.00
C941   C     0.11659   0.83251   0.88874   0.00000  Uiso   1.00
C942   C     0.16661   0.75336   0.74982   0.00000  Uiso   1.00
C943   C     0.21513   0.82471   0.61190   0.00000  Uiso   1.00
C944   C     0.05560   0.85282   0.96330   0.00000  Uiso   1.00
C945   C     0.26521   0.78396   0.54464   0.00000  Uiso   1.00
C946   C     0.07090   0.84907   0.91490   0.00000  Uiso   1.00
C947   C     0.25625   0.80019   0.58935   0.00000  Uiso   1.00
C948   C     0.14585   0.81720   0.91085   0.00000  Uiso   1.00
C949   C     0.18423   0.83441   0.58930   0.00000  Uiso   1.00
C950   C     0.13155   0.81981   0.95931   0.00000  Uiso   1.00
C951   C     0.18910   0.81517   0.54707   0.00000  Uiso   1.00
C952   C     0.08621   0.83893   0.98583   0.00000  Uiso   1.00
C953   C     0.10630   0.83605   0.55447   0.00000  Uiso   1.00
C954   C     0.23142   0.79114   0.52322   0.00000  Uiso   1.00
C955   C     0.16336   0.80728   0.98131   0.00000  Uiso   1.00
C956   C     0.15294   0.81991   0.52799   0.00000  Uiso   1.00
C957   C     0.20550   0.78309   0.95812   0.00000  Uiso   1.00
C958   C     0.07332   0.84472   0.53383   0.00000  Uiso   1.00
C959   C     0.23842   0.77470   0.97905   0.00000  Uiso   1.00
C960   C     0.21086   0.97881   0.73788   0.00000  Uiso   1.00
C961   C     0.12251   0.68786   0.76198   0.00000  Uiso   1.00
C962   C     0.21080   0.68815   0.73754   0.00000  Uiso   1.00
H963   H     0.03838   0.85734   0.55575   0.00000  Uiso   1.00
H964   H     0.02327   0.88106   0.80106   0.00000  Uiso   1.00
H965   H     0.24524   0.96263   0.72810   0.00000  Uiso   1.00
H966   H     0.08813   0.70403   0.77177   0.00000  Uiso   1.00
H967   H     0.24518   0.70456   0.72756   0.00000  Uiso   1.00
H968   H     0.08819   0.96212   0.77230   0.00000  Uiso   1.00
H969   H     0.26969   0.75575   0.95980   0.00000  Uiso   1.00
H970   H     0.15516   0.85611   0.60653   0.00000  Uiso   1.00
H971   H     0.18124   0.80567   0.88905   0.00000  Uiso   1.00
H972   H     0.28016   0.79219   0.60714   0.00000  Uiso   1.00
H973   H     0.04820   0.86110   0.89755   0.00000  Uiso   1.00
H974   H     0.09381   0.84136   0.59172   0.00000  Uiso   1.00
H975   H     0.21315   0.76888   0.92425   0.00000  Uiso   1.00
H976   H     0.31007   0.78563   0.69891   0.00000  Uiso   1.00
I977   I     0.32178   0.88408   0.99821   0.00000  Uiso   1.00
I978   I     0.32871   0.74693   0.51389   0.00000  Uiso   1.00
I979   I     0.08192   0.76271   0.67504   0.00000  Uiso   1.00
I980   I     0.25128   0.90376   0.82513   0.00000  Uiso   1.00
N981   N     0.04759   0.83334   0.75001   0.00000  Uiso   1.00
N982   N     0.28574   0.83332   0.74999   0.00000  Uiso   1.00
O983   O     0.12846   0.89442   0.75001   0.00000  Uiso   1.00
O984   O     0.20488   0.77225   0.74999   0.00000  Uiso   1.00
O985   O     0.20490   0.89441   0.75000   0.00000  Uiso   1.00
O986   O     0.12843   0.77226   0.75000   0.00000  Uiso   1.00
O987   O     0.10661   0.83334   0.81612   0.00000  Uiso   1.00
O988   O     0.22672   0.83333   0.68388   0.00000  Uiso   1.00
O989   O     0.18305   0.83333   0.81612   0.00000  Uiso   1.00
O990   O     0.15028   0.83334   0.68388   0.00000  Uiso   1.00
Zn991  Zn    0.11562   0.83334   0.75000   0.00000  Uiso   1.00
Zn992  Zn    0.21771   0.83333   0.75000   0.00000  Uiso   1.00
C993   C     0.50007   0.91331   0.75014   0.00000  Uiso   1.00
C994   C     0.45590   0.97852   0.76232   0.00000  Uiso   1.00
C995   C     0.49995   0.70918   0.74965   0.00000  Uiso   1.00
C996   C     0.50009   0.95749   0.75024   0.00000  Uiso   1.00
C997   C     0.65317   0.80679   0.72158   0.00000  Uiso   1.00
C998   C     0.34683   0.85989   0.77840   0.00000  Uiso   1.00
C999   C     0.36753   0.80657   0.72143   0.00000  Uiso   1.00
C1000  C     0.63246   0.86008   0.77858   0.00000  Uiso   1.00
C1001  C     0.46953   0.83320   0.83795   0.00000  Uiso   1.00
C1002  C     0.53040   0.83264   0.66203   0.00000  Uiso   1.00
C1003  C     0.44993   0.83251   0.88874   0.00000  Uiso   1.00
C1004  C     0.49995   0.75336   0.74982   0.00000  Uiso   1.00
C1005  C     0.54847   0.82471   0.61190   0.00000  Uiso   1.00
C1006  C     0.38893   0.85282   0.96330   0.00000  Uiso   1.00
C1007  C     0.59855   0.78396   0.54464   0.00000  Uiso   1.00
C1008  C     0.40423   0.84907   0.91490   0.00000  Uiso   1.00
C1009  C     0.58958   0.80019   0.58935   0.00000  Uiso   1.00
C1010  C     0.47918   0.81720   0.91085   0.00000  Uiso   1.00
C1011  C     0.51757   0.83441   0.58930   0.00000  Uiso   1.00
C1012  C     0.46489   0.81981   0.95931   0.00000  Uiso   1.00
C1013  C     0.52243   0.81517   0.54707   0.00000  Uiso   1.00
C1014  C     0.41954   0.83893   0.98583   0.00000  Uiso   1.00
C1015  C     0.43963   0.83605   0.55447   0.00000  Uiso   1.00
C1016  C     0.56475   0.79114   0.52322   0.00000  Uiso   1.00
C1017  C     0.49670   0.80728   0.98131   0.00000  Uiso   1.00
C1018  C     0.48627   0.81991   0.52799   0.00000  Uiso   1.00
C1019  C     0.53883   0.78309   0.95812   0.00000  Uiso   1.00
C1020  C     0.40665   0.84472   0.53383   0.00000  Uiso   1.00
C1021  C     0.57175   0.77470   0.97905   0.00000  Uiso   1.00
C1022  C     0.54420   0.97881   0.73788   0.00000  Uiso   1.00
C1023  C     0.45584   0.68786   0.76198   0.00000  Uiso   1.00
C1024  C     0.54413   0.68815   0.73754   0.00000  Uiso   1.00
H1025  H     0.37172   0.85734   0.55575   0.00000  Uiso   1.00
H1026  H     0.35660   0.88106   0.80106   0.00000  Uiso   1.00
H1027  H     0.57857   0.96263   0.72810   0.00000  Uiso   1.00
H1028  H     0.42147   0.70403   0.77177   0.00000  Uiso   1.00
H1029  H     0.57851   0.70456   0.72756   0.00000  Uiso   1.00
H1030  H     0.42152   0.96212   0.77230   0.00000  Uiso   1.00
H1031  H     0.60302   0.75575   0.95980   0.00000  Uiso   1.00
H1032  H     0.48849   0.85611   0.60653   0.00000  Uiso   1.00
H1033  H     0.51457   0.80567   0.88905   0.00000  Uiso   1.00
H1034  H     0.61350   0.79219   0.60714   0.00000  Uiso   1.00
H1035  H     0.38153   0.86110   0.89755   0.00000  Uiso   1.00
H1036  H     0.42714   0.84136   0.59172   0.00000  Uiso   1.00
H1037  H     0.54648   0.76888   0.92425   0.00000  Uiso   1.00
H1038  H     0.64340   0.78563   0.69891   0.00000  Uiso   1.00
I1039  I     0.65511   0.88408   0.99821   0.00000  Uiso   1.00
I1040  I     0.66205   0.74693   0.51389   0.00000  Uiso   1.00
I1041  I     0.41526   0.76271   0.67504   0.00000  Uiso   1.00
I1042  I     0.58461   0.90376   0.82513   0.00000  Uiso   1.00
N1043  N     0.38093   0.83334   0.75001   0.00000  Uiso   1.00
N1044  N     0.61907   0.83332   0.74999   0.00000  Uiso   1.00
O1045  O     0.46179   0.89442   0.75001   0.00000  Uiso   1.00
O1046  O     0.53821   0.77225   0.74999   0.00000  Uiso   1.00
O1047  O     0.53823   0.89441   0.75000   0.00000  Uiso   1.00
O1048  O     0.46177   0.77226   0.75000   0.00000  Uiso   1.00
O1049  O     0.43994   0.83334   0.81612   0.00000  Uiso   1.00
O1050  O     0.56006   0.83333   0.68388   0.00000  Uiso   1.00
O1051  O     0.51639   0.83333   0.81612   0.00000  Uiso   1.00
O1052  O     0.48361   0.83334   0.68388   0.00000  Uiso   1.00
Zn1053 Zn    0.44896   0.83334   0.75000   0.00000  Uiso   1.00
Zn1054 Zn    0.55104   0.83333   0.75000   0.00000  Uiso   1.00
C1055  C     0.83340   0.91331   0.75014   0.00000  Uiso   1.00
C1056  C     0.78924   0.97852   0.76232   0.00000  Uiso   1.00
C1057  C     0.83328   0.70918   0.74965   0.00000  Uiso   1.00
C1058  C     0.83342   0.95749   0.75024   0.00000  Uiso   1.00
C1059  C     0.98651   0.80679   0.72158   0.00000  Uiso   1.00
C1060  C     0.68017   0.85989   0.77840   0.00000  Uiso   1.00
C1061  C     0.70087   0.80657   0.72143   0.00000  Uiso   1.00
C1062  C     0.96579   0.86008   0.77858   0.00000  Uiso   1.00
C1063  C     0.80286   0.83320   0.83795   0.00000  Uiso   1.00
C1064  C     0.86374   0.83264   0.66203   0.00000  Uiso   1.00
C1065  C     0.78326   0.83251   0.88874   0.00000  Uiso   1.00
C1066  C     0.83328   0.75336   0.74982   0.00000  Uiso   1.00
C1067  C     0.88180   0.82471   0.61190   0.00000  Uiso   1.00
C1068  C     0.72227   0.85282   0.96330   0.00000  Uiso   1.00
C1069  C     0.93188   0.78396   0.54464   0.00000  Uiso   1.00
C1070  C     0.73757   0.84907   0.91490   0.00000  Uiso   1.00
C1071  C     0.92292   0.80019   0.58935   0.00000  Uiso   1.00
C1072  C     0.81251   0.81720   0.91085   0.00000  Uiso   1.00
C1073  C     0.85090   0.83441   0.58930   0.00000  Uiso   1.00
C1074  C     0.79822   0.81981   0.95931   0.00000  Uiso   1.00
C1075  C     0.85576   0.81517   0.54707   0.00000  Uiso   1.00
C1076  C     0.75288   0.83893   0.98583   0.00000  Uiso   1.00
C1077  C     0.77296   0.83605   0.55447   0.00000  Uiso   1.00
C1078  C     0.89808   0.79114   0.52322   0.00000  Uiso   1.00
C1079  C     0.83003   0.80728   0.98131   0.00000  Uiso   1.00
C1080  C     0.81960   0.81991   0.52799   0.00000  Uiso   1.00
C1081  C     0.87216   0.78309   0.95812   0.00000  Uiso   1.00
C1082  C     0.73999   0.84472   0.53383   0.00000  Uiso   1.00
C1083  C     0.90509   0.77470   0.97905   0.00000  Uiso   1.00
C1084  C     0.87753   0.97881   0.73788   0.00000  Uiso   1.00
C1085  C     0.78918   0.68786   0.76198   0.00000  Uiso   1.00
C1086  C     0.87747   0.68815   0.73754   0.00000  Uiso   1.00
H1087  H     0.70505   0.85734   0.55575   0.00000  Uiso   1.00
H1088  H     0.68993   0.88106   0.80106   0.00000  Uiso   1.00
H1089  H     0.91190   0.96263   0.72810   0.00000  Uiso   1.00
H1090  H     0.75480   0.70403   0.77177   0.00000  Uiso   1.00
H1091  H     0.91185   0.70456   0.72756   0.00000  Uiso   1.00
H1092  H     0.75486   0.96212   0.77230   0.00000  Uiso   1.00
H1093  H     0.93636   0.75575   0.95980   0.00000  Uiso   1.00
H1094  H     0.82183   0.85611   0.60653   0.00000  Uiso   1.00
H1095  H     0.84790   0.80567   0.88905   0.00000  Uiso   1.00
H1096  H     0.94683   0.79219   0.60714   0.00000  Uiso   1.00
H1097  H     0.71486   0.86110   0.89755   0.00000  Uiso   1.00
H1098  H     0.76047   0.84136   0.59172   0.00000  Uiso   1.00
H1099  H     0.87982   0.76888   0.92425   0.00000  Uiso   1.00
H1100  H     0.97674   0.78563   0.69891   0.00000  Uiso   1.00
I1101  I     0.98845   0.88408   0.99821   0.00000  Uiso   1.00
I1102  I     0.99538   0.74693   0.51389   0.00000  Uiso   1.00
I1103  I     0.74859   0.76271   0.67504   0.00000  Uiso   1.00
I1104  I     0.91794   0.90376   0.82513   0.00000  Uiso   1.00
N1105  N     0.71426   0.83334   0.75001   0.00000  Uiso   1.00
N1106  N     0.95241   0.83332   0.74999   0.00000  Uiso   1.00
O1107  O     0.79512   0.89442   0.75001   0.00000  Uiso   1.00
O1108  O     0.87154   0.77225   0.74999   0.00000  Uiso   1.00
O1109  O     0.87157   0.89441   0.75000   0.00000  Uiso   1.00
O1110  O     0.79510   0.77226   0.75000   0.00000  Uiso   1.00
O1111  O     0.77328   0.83334   0.81612   0.00000  Uiso   1.00
O1112  O     0.89339   0.83333   0.68388   0.00000  Uiso   1.00
O1113  O     0.84972   0.83333   0.81612   0.00000  Uiso   1.00
O1114  O     0.81695   0.83334   0.68388   0.00000  Uiso   1.00
Zn1115 Zn    0.78229   0.83334   0.75000   0.00000  Uiso   1.00
Zn1116 Zn    0.88438   0.83333   0.75000   0.00000  Uiso   1.00
loop_
_geom_bond_atom_site_label_1
_geom_bond_atom_site_label_2
_geom_bond_distance
_geom_bond_site_symmetry_2
_ccdc_geom_bond_type
C1     C4      1.418   .     S
C1     O55     1.288   .     A
C1     O53     1.286   .     A
C2     C4      1.398   .     A
C2     H38     1.084   .     S
C2     C217    1.370   .     S
C3     C31     1.396   .     A
C3     C32     1.398   .     A
C3     C12     1.418   .     S
C4     C30     1.396   .     A
C5     N52     1.358   .     A
C5     H46     1.082   .     S
C5     C69     1.415   .     S
C6     N51     1.358   .     A
C6     H34     1.082   .     S
C6     C132    1.415   1_455 S
C7     N51     1.383   .     A
C7     I49     2.118   .     S
C7     C129    1.415   1_455 S
C8     I50     2.118   .     S
C8     N52     1.383   .     A
C8     C68     1.415   .     S
C9     C11     1.455   .     S
C9     O57     1.293   .     A
C9     O59     1.298   .     A
C10    O60     1.297   .     A
C10    O58     1.295   .     A
C10    C13     1.455   .     S
C11    C18     1.388   .     A
C11    C16     1.396   .     A
C12    O56     1.288   .     A
C12    O54     1.286   .     A
C13    C17     1.398   .     A
C13    C19     1.386   .     A
C14    C22     1.415   .     A
C14    C16     1.393   .     A
C14    I171    2.128   1_455 S
C15    I48     2.127   .     S
C15    C24     1.417   .     A
C15    C17     1.398   .     A
C16    H43     1.083   .     S
C17    H42     1.083   .     S
C18    C20     1.396   .     A
C18    H41     1.078   .     S
C19    H40     1.080   .     S
C19    C21     1.393   .     A
C20    C22     1.424   .     A
C20    C25     1.419   .     A
C21    C26     1.416   .     A
C21    C24     1.421   .     A
C22    C586    1.395   .     S
C23    C28     1.387   .     A
C23    C26     1.415   .     A
C23    H44     1.079   .     S
C24    C587    1.396   1_554 S
C25    C27     1.416   .     A
C25    C584    1.410   .     S
C26    C583    1.410   1_554 S
C27    C29     1.390   .     A
C27    H45     1.078   .     S
C28    H33     1.081   .     S
C28    C580    1.395   1_554 S
C29    H39     1.081   .     S
C29    C582    1.396   .     S
C30    H35     1.084   .     S
C30    C218    1.370   .     S
C31    H36     1.084   .     S
C31    C374    1.370   1_545 S
C32    H37     1.084   .     S
C32    C402    1.370   1_545 S
I47    C76     2.128   .     S
N51    Zn61    2.020   .     S
N52    Zn62    2.020   .     S
O53    Zn61    1.994   .     S
O54    Zn62    1.994   .     S
O55    Zn62    2.000   .     S
O56    Zn61    2.000   .     S
O57    Zn61    1.958   .     S
O58    Zn62    1.958   .     S
O59    Zn62    1.911   .     S
O60    Zn61    1.911   .     S
C63    C66     1.418   .     S
C63    O117    1.288   .     A
C63    O115    1.286   .     A
C64    C66     1.398   .     A
C64    H100    1.084   .     S
C64    C279    1.370   .     S
C65    C93     1.396   .     A
C65    C94     1.398   .     A
C65    C74     1.418   .     S
C66    C92     1.396   .     A
C67    N114    1.358   .     A
C67    H108    1.082   .     S
C67    C131    1.415   .     S
C68    N113    1.358   .     A
C68    H96     1.082   .     S
C69    N113    1.383   .     A
C69    I111    2.118   .     S
C70    I112    2.118   .     S
C70    N114    1.383   .     A
C70    C130    1.415   .     S
C71    C73     1.455   .     S
C71    O119    1.293   .     A
C71    O121    1.298   .     A
C72    O122    1.297   .     A
C72    O120    1.295   .     A
C72    C75     1.455   .     S
C73    C80     1.388   .     A
C73    C78     1.396   .     A
C74    O118    1.288   .     A
C74    O116    1.286   .     A
C75    C79     1.398   .     A
C75    C81     1.386   .     A
C76    C84     1.415   .     A
C76    C78     1.393   .     A
C77    I110    2.127   .     S
C77    C86     1.417   .     A
C77    C79     1.398   .     A
C78    H105    1.083   .     S
C79    H104    1.083   .     S
C80    C82     1.396   .     A
C80    H103    1.078   .     S
C81    H102    1.080   .     S
C81    C83     1.393   .     A
C82    C84     1.424   .     A
C82    C87     1.419   .     A
C83    C88     1.416   .     A
C83    C86     1.421   .     A
C84    C648    1.395   .     S
C85    C90     1.387   .     A
C85    C88     1.415   .     A
C85    H106    1.079   .     S
C86    C649    1.396   1_554 S
C87    C89     1.416   .     A
C87    C646    1.410   .     S
C88    C645    1.410   1_554 S
C89    C91     1.390   .     A
C89    H107    1.078   .     S
C90    H95     1.081   .     S
C90    C642    1.395   1_554 S
C91    H101    1.081   .     S
C91    C644    1.396   .     S
C92    H97     1.084   .     S
C92    C280    1.370   .     S
C93    H98     1.084   .     S
C93    C436    1.370   1_545 S
C94    H99     1.084   .     S
C94    C464    1.370   1_545 S
I109   C138    2.128   .     S
N113   Zn123   2.020   .     S
N114   Zn124   2.020   .     S
O115   Zn123   1.994   .     S
O116   Zn124   1.994   .     S
O117   Zn124   2.000   .     S
O118   Zn123   2.000   .     S
O119   Zn123   1.958   .     S
O120   Zn124   1.958   .     S
O121   Zn124   1.911   .     S
O122   Zn123   1.911   .     S
C125   C128    1.418   .     S
C125   O179    1.288   .     A
C125   O177    1.286   .     A
C126   C128    1.398   .     A
C126   H162    1.084   .     S
C126   C341    1.370   .     S
C127   C155    1.396   .     A
C127   C156    1.398   .     A
C127   C136    1.418   .     S
C128   C154    1.396   .     A
C129   N176    1.358   .     A
C129   H170    1.082   .     S
C129   C7      1.415   1_655 S
C130   N175    1.358   .     A
C130   H158    1.082   .     S
C131   N175    1.383   .     A
C131   I173    2.118   .     S
C132   I174    2.118   .     S
C132   N176    1.383   .     A
C132   C6      1.415   1_655 S
C133   C135    1.455   .     S
C133   O181    1.293   .     A
C133   O183    1.298   .     A
C134   O184    1.297   .     A
C134   O182    1.295   .     A
C134   C137    1.455   .     S
C135   C142    1.388   .     A
C135   C140    1.396   .     A
C136   O180    1.288   .     A
C136   O178    1.286   .     A
C137   C141    1.398   .     A
C137   C143    1.386   .     A
C138   C146    1.415   .     A
C138   C140    1.393   .     A
C139   I172    2.127   .     S
C139   C148    1.417   .     A
C139   C141    1.398   .     A
C140   H167    1.083   .     S
C141   H166    1.083   .     S
C142   C144    1.396   .     A
C142   H165    1.078   .     S
C143   H164    1.080   .     S
C143   C145    1.393   .     A
C144   C146    1.424   .     A
C144   C149    1.419   .     A
C145   C150    1.416   .     A
C145   C148    1.421   .     A
C146   C710    1.395   .     S
C147   C152    1.387   .     A
C147   C150    1.415   .     A
C147   H168    1.079   .     S
C148   C711    1.396   1_554 S
C149   C151    1.416   .     A
C149   C708    1.410   .     S
C150   C707    1.410   1_554 S
C151   C153    1.390   .     A
C151   H169    1.078   .     S
C152   H157    1.081   .     S
C152   C704    1.395   1_554 S
C153   H163    1.081   .     S
C153   C706    1.396   .     S
C154   H159    1.084   .     S
C154   C342    1.370   .     S
C155   H160    1.084   .     S
C155   C498    1.370   1_545 S
C156   H161    1.084   .     S
C156   C526    1.370   1_545 S
I171   C14     2.128   1_655 S
N175   Zn185   2.020   .     S
N176   Zn186   2.020   .     S
O177   Zn185   1.994   .     S
O178   Zn186   1.994   .     S
O179   Zn186   2.000   .     S
O180   Zn185   2.000   .     S
O181   Zn185   1.958   .     S
O182   Zn186   1.958   .     S
O183   Zn186   1.911   .     S
O184   Zn185   1.911   .     S
C187   C190    1.418   .     S
C187   O241    1.288   .     A
C187   O239    1.286   .     A
C188   C190    1.398   .     A
C188   H224    1.084   .     S
C188   C403    1.370   .     S
C189   C217    1.396   .     A
C189   C218    1.398   .     A
C189   C198    1.418   .     S
C190   C216    1.396   .     A
C191   N238    1.358   .     A
C191   H232    1.082   .     S
C191   C255    1.415   .     S
C192   N237    1.358   .     A
C192   H220    1.082   .     S
C192   C318    1.415   1_455 S
C193   N237    1.383   .     A
C193   I235    2.118   .     S
C193   C315    1.415   1_455 S
C194   I236    2.118   .     S
C194   N238    1.383   .     A
C194   C254    1.415   .     S
C195   C197    1.455   .     S
C195   O243    1.293   .     A
C195   O245    1.298   .     A
C196   O246    1.297   .     A
C196   O244    1.295   .     A
C196   C199    1.455   .     S
C197   C204    1.388   .     A
C197   C202    1.396   .     A
C198   O242    1.288   .     A
C198   O240    1.286   .     A
C199   C203    1.398   .     A
C199   C205    1.386   .     A
C200   C208    1.415   .     A
C200   C202    1.393   .     A
C200   I357    2.128   1_455 S
C201   I234    2.127   .     S
C201   C210    1.417   .     A
C201   C203    1.398   .     A
C202   H229    1.083   .     S
C203   H228    1.083   .     S
C204   C206    1.396   .     A
C204   H227    1.078   .     S
C205   H226    1.080   .     S
C205   C207    1.393   .     A
C206   C208    1.424   .     A
C206   C211    1.419   .     A
C207   C212    1.416   .     A
C207   C210    1.421   .     A
C208   C772    1.395   .     S
C209   C214    1.387   .     A
C209   C212    1.415   .     A
C209   H230    1.079   .     S
C210   C773    1.396   1_554 S
C211   C213    1.416   .     A
C211   C770    1.410   .     S
C212   C769    1.410   1_554 S
C213   C215    1.390   .     A
C213   H231    1.078   .     S
C214   H219    1.081   .     S
C214   C766    1.395   1_554 S
C215   H225    1.081   .     S
C215   C768    1.396   .     S
C216   H221    1.084   .     S
C216   C404    1.370   .     S
C217   H222    1.084   .     S
C218   H223    1.084   .     S
I233   C262    2.128   .     S
N237   Zn247   2.020   .     S
N238   Zn248   2.020   .     S
O239   Zn247   1.994   .     S
O240   Zn248   1.994   .     S
O241   Zn248   2.000   .     S
O242   Zn247   2.000   .     S
O243   Zn247   1.958   .     S
O244   Zn248   1.958   .     S
O245   Zn248   1.911   .     S
O246   Zn247   1.911   .     S
C249   C252    1.418   .     S
C249   O303    1.288   .     A
C249   O301    1.286   .     A
C250   C252    1.398   .     A
C250   H286    1.084   .     S
C250   C465    1.370   .     S
C251   C279    1.396   .     A
C251   C280    1.398   .     A
C251   C260    1.418   .     S
C252   C278    1.396   .     A
C253   N300    1.358   .     A
C253   H294    1.082   .     S
C253   C317    1.415   .     S
C254   N299    1.358   .     A
C254   H282    1.082   .     S
C255   N299    1.383   .     A
C255   I297    2.118   .     S
C256   I298    2.118   .     S
C256   N300    1.383   .     A
C256   C316    1.415   .     S
C257   C259    1.455   .     S
C257   O305    1.293   .     A
C257   O307    1.298   .     A
C258   O308    1.297   .     A
C258   O306    1.295   .     A
C258   C261    1.455   .     S
C259   C266    1.388   .     A
C259   C264    1.396   .     A
C260   O304    1.288   .     A
C260   O302    1.286   .     A
C261   C265    1.398   .     A
C261   C267    1.386   .     A
C262   C270    1.415   .     A
C262   C264    1.393   .     A
C263   I296    2.127   .     S
C263   C272    1.417   .     A
C263   C265    1.398   .     A
C264   H291    1.083   .     S
C265   H290    1.083   .     S
C266   C268    1.396   .     A
C266   H289    1.078   .     S
C267   H288    1.080   .     S
C267   C269    1.393   .     A
C268   C270    1.424   .     A
C268   C273    1.419   .     A
C269   C274    1.416   .     A
C269   C272    1.421   .     A
C270   C834    1.395   .     S
C271   C276    1.387   .     A
C271   C274    1.415   .     A
C271   H292    1.079   .     S
C272   C835    1.396   1_554 S
C273   C275    1.416   .     A
C273   C832    1.410   .     S
C274   C831    1.410   1_554 S
C275   C277    1.390   .     A
C275   H293    1.078   .     S
C276   H281    1.081   .     S
C276   C828    1.395   1_554 S
C277   H287    1.081   .     S
C277   C830    1.396   .     S
C278   H283    1.084   .     S
C278   C466    1.370   .     S
C279   H284    1.084   .     S
C280   H285    1.084   .     S
I295   C324    2.128   .     S
N299   Zn309   2.020   .     S
N300   Zn310   2.020   .     S
O301   Zn309   1.994   .     S
O302   Zn310   1.994   .     S
O303   Zn310   2.000   .     S
O304   Zn309   2.000   .     S
O305   Zn309   1.958   .     S
O306   Zn310   1.958   .     S
O307   Zn310   1.911   .     S
O308   Zn309   1.911   .     S
C311   C314    1.418   .     S
C311   O365    1.288   .     A
C311   O363    1.286   .     A
C312   C314    1.398   .     A
C312   H348    1.084   .     S
C312   C527    1.370   .     S
C313   C341    1.396   .     A
C313   C342    1.398   .     A
C313   C322    1.418   .     S
C314   C340    1.396   .     A
C315   N362    1.358   .     A
C315   H356    1.082   .     S
C315   C193    1.415   1_655 S
C316   N361    1.358   .     A
C316   H344    1.082   .     S
C317   N361    1.383   .     A
C317   I359    2.118   .     S
C318   I360    2.118   .     S
C318   N362    1.383   .     A
C318   C192    1.415   1_655 S
C319   C321    1.455   .     S
C319   O367    1.293   .     A
C319   O369    1.298   .     A
C320   O370    1.297   .     A
C320   O368    1.295   .     A
C320   C323    1.455   .     S
C321   C328    1.388   .     A
C321   C326    1.396   .     A
C322   O366    1.288   .     A
C322   O364    1.286   .     A
C323   C327    1.398   .     A
C323   C329    1.386   .     A
C324   C332    1.415   .     A
C324   C326    1.393   .     A
C325   I358    2.127   .     S
C325   C334    1.417   .     A
C325   C327    1.398   .     A
C326   H353    1.083   .     S
C327   H352    1.083   .     S
C328   C330    1.396   .     A
C328   H351    1.078   .     S
C329   H350    1.080   .     S
C329   C331    1.393   .     A
C330   C332    1.424   .     A
C330   C335    1.419   .     A
C331   C336    1.416   .     A
C331   C334    1.421   .     A
C332   C896    1.395   .     S
C333   C338    1.387   .     A
C333   C336    1.415   .     A
C333   H354    1.079   .     S
C334   C897    1.396   1_554 S
C335   C337    1.416   .     A
C335   C894    1.410   .     S
C336   C893    1.410   1_554 S
C337   C339    1.390   .     A
C337   H355    1.078   .     S
C338   H343    1.081   .     S
C338   C890    1.395   1_554 S
C339   H349    1.081   .     S
C339   C892    1.396   .     S
C340   H345    1.084   .     S
C340   C528    1.370   .     S
C341   H346    1.084   .     S
C342   H347    1.084   .     S
I357   C200    2.128   1_655 S
N361   Zn371   2.020   .     S
N362   Zn372   2.020   .     S
O363   Zn371   1.994   .     S
O364   Zn372   1.994   .     S
O365   Zn372   2.000   .     S
O366   Zn371   2.000   .     S
O367   Zn371   1.958   .     S
O368   Zn372   1.958   .     S
O369   Zn372   1.911   .     S
O370   Zn371   1.911   .     S
C373   C376    1.418   .     S
C373   O427    1.288   .     A
C373   O425    1.286   .     A
C374   C376    1.398   .     A
C374   H410    1.084   .     S
C374   C31     1.370   1_565 S
C375   C403    1.396   .     A
C375   C404    1.398   .     A
C375   C384    1.418   .     S
C376   C402    1.396   .     A
C377   N424    1.358   .     A
C377   H418    1.082   .     S
C377   C441    1.415   .     S
C378   N423    1.358   .     A
C378   H406    1.082   .     S
C378   C504    1.415   1_455 S
C379   N423    1.383   .     A
C379   I421    2.118   .     S
C379   C501    1.415   1_455 S
C380   I422    2.118   .     S
C380   N424    1.383   .     A
C380   C440    1.415   .     S
C381   C383    1.455   .     S
C381   O429    1.293   .     A
C381   O431    1.298   .     A
C382   O432    1.297   .     A
C382   O430    1.295   .     A
C382   C385    1.455   .     S
C383   C390    1.388   .     A
C383   C388    1.396   .     A
C384   O428    1.288   .     A
C384   O426    1.286   .     A
C385   C389    1.398   .     A
C385   C391    1.386   .     A
C386   C394    1.415   .     A
C386   C388    1.393   .     A
C386   I543    2.128   1_455 S
C387   I420    2.127   .     S
C387   C396    1.417   .     A
C387   C389    1.398   .     A
C388   H415    1.083   .     S
C389   H414    1.083   .     S
C390   C392    1.396   .     A
C390   H413    1.078   .     S
C391   H412    1.080   .     S
C391   C393    1.393   .     A
C392   C394    1.424   .     A
C392   C397    1.419   .     A
C393   C398    1.416   .     A
C393   C396    1.421   .     A
C394   C958    1.395   .     S
C395   C400    1.387   .     A
C395   C398    1.415   .     A
C395   H416    1.079   .     S
C396   C959    1.396   1_554 S
C397   C399    1.416   .     A
C397   C956    1.410   .     S
C398   C955    1.410   1_554 S
C399   C401    1.390   .     A
C399   H417    1.078   .     S
C400   H405    1.081   .     S
C400   C952    1.395   1_554 S
C401   H411    1.081   .     S
C401   C954    1.396   .     S
C402   H407    1.084   .     S
C402   C32     1.370   1_565 S
C403   H408    1.084   .     S
C404   H409    1.084   .     S
I419   C448    2.128   .     S
N423   Zn433   2.020   .     S
N424   Zn434   2.020   .     S
O425   Zn433   1.994   .     S
O426   Zn434   1.994   .     S
O427   Zn434   2.000   .     S
O428   Zn433   2.000   .     S
O429   Zn433   1.958   .     S
O430   Zn434   1.958   .     S
O431   Zn434   1.911   .     S
O432   Zn433   1.911   .     S
C435   C438    1.418   .     S
C435   O489    1.288   .     A
C435   O487    1.286   .     A
C436   C438    1.398   .     A
C436   H472    1.084   .     S
C436   C93     1.370   1_565 S
C437   C465    1.396   .     A
C437   C466    1.398   .     A
C437   C446    1.418   .     S
C438   C464    1.396   .     A
C439   N486    1.358   .     A
C439   H480    1.082   .     S
C439   C503    1.415   .     S
C440   N485    1.358   .     A
C440   H468    1.082   .     S
C441   N485    1.383   .     A
C441   I483    2.118   .     S
C442   I484    2.118   .     S
C442   N486    1.383   .     A
C442   C502    1.415   .     S
C443   C445    1.455   .     S
C443   O491    1.293   .     A
C443   O493    1.298   .     A
C444   O494    1.297   .     A
C444   O492    1.295   .     A
C444   C447    1.455   .     S
C445   C452    1.388   .     A
C445   C450    1.396   .     A
C446   O490    1.288   .     A
C446   O488    1.286   .     A
C447   C451    1.398   .     A
C447   C453    1.386   .     A
C448   C456    1.415   .     A
C448   C450    1.393   .     A
C449   I482    2.127   .     S
C449   C458    1.417   .     A
C449   C451    1.398   .     A
C450   H477    1.083   .     S
C451   H476    1.083   .     S
C452   C454    1.396   .     A
C452   H475    1.078   .     S
C453   H474    1.080   .     S
C453   C455    1.393   .     A
C454   C456    1.424   .     A
C454   C459    1.419   .     A
C455   C460    1.416   .     A
C455   C458    1.421   .     A
C456   C1020   1.395   .     S
C457   C462    1.387   .     A
C457   C460    1.415   .     A
C457   H478    1.079   .     S
C458   C1021   1.396   1_554 S
C459   C461    1.416   .     A
C459   C1018   1.410   .     S
C460   C1017   1.410   1_554 S
C461   C463    1.390   .     A
C461   H479    1.078   .     S
C462   H467    1.081   .     S
C462   C1014   1.395   1_554 S
C463   H473    1.081   .     S
C463   C1016   1.396   .     S
C464   H469    1.084   .     S
C464   C94     1.370   1_565 S
C465   H470    1.084   .     S
C466   H471    1.084   .     S
I481   C510    2.128   .     S
N485   Zn495   2.020   .     S
N486   Zn496   2.020   .     S
O487   Zn495   1.994   .     S
O488   Zn496   1.994   .     S
O489   Zn496   2.000   .     S
O490   Zn495   2.000   .     S
O491   Zn495   1.958   .     S
O492   Zn496   1.958   .     S
O493   Zn496   1.911   .     S
O494   Zn495   1.911   .     S
C497   C500    1.418   .     S
C497   O551    1.288   .     A
C497   O549    1.286   .     A
C498   C500    1.398   .     A
C498   H534    1.084   .     S
C498   C155    1.370   1_565 S
C499   C527    1.396   .     A
C499   C528    1.398   .     A
C499   C508    1.418   .     S
C500   C526    1.396   .     A
C501   N548    1.358   .     A
C501   H542    1.082   .     S
C501   C379    1.415   1_655 S
C502   N547    1.358   .     A
C502   H530    1.082   .     S
C503   N547    1.383   .     A
C503   I545    2.118   .     S
C504   I546    2.118   .     S
C504   N548    1.383   .     A
C504   C378    1.415   1_655 S
C505   C507    1.455   .     S
C505   O553    1.293   .     A
C505   O555    1.298   .     A
C506   O556    1.297   .     A
C506   O554    1.295   .     A
C506   C509    1.455   .     S
C507   C514    1.388   .     A
C507   C512    1.396   .     A
C508   O552    1.288   .     A
C508   O550    1.286   .     A
C509   C513    1.398   .     A
C509   C515    1.386   .     A
C510   C518    1.415   .     A
C510   C512    1.393   .     A
C511   I544    2.127   .     S
C511   C520    1.417   .     A
C511   C513    1.398   .     A
C512   H539    1.083   .     S
C513   H538    1.083   .     S
C514   C516    1.396   .     A
C514   H537    1.078   .     S
C515   H536    1.080   .     S
C515   C517    1.393   .     A
C516   C518    1.424   .     A
C516   C521    1.419   .     A
C517   C522    1.416   .     A
C517   C520    1.421   .     A
C518   C1082   1.395   .     S
C519   C524    1.387   .     A
C519   C522    1.415   .     A
C519   H540    1.079   .     S
C520   C1083   1.396   1_554 S
C521   C523    1.416   .     A
C521   C1080   1.410   .     S
C522   C1079   1.410   1_554 S
C523   C525    1.390   .     A
C523   H541    1.078   .     S
C524   H529    1.081   .     S
C524   C1076   1.395   1_554 S
C525   H535    1.081   .     S
C525   C1078   1.396   .     S
C526   H531    1.084   .     S
C526   C156    1.370   1_565 S
C527   H532    1.084   .     S
C528   H533    1.084   .     S
I543   C386    2.128   1_655 S
N547   Zn557   2.020   .     S
N548   Zn558   2.020   .     S
O549   Zn557   1.994   .     S
O550   Zn558   1.994   .     S
O551   Zn558   2.000   .     S
O552   Zn557   2.000   .     S
O553   Zn557   1.958   .     S
O554   Zn558   1.958   .     S
O555   Zn558   1.911   .     S
O556   Zn557   1.911   .     S
C559   C562    1.418   .     S
C559   O613    1.288   .     A
C559   O611    1.286   .     A
C560   C562    1.398   .     A
C560   H596    1.084   .     S
C560   C775    1.370   .     S
C561   C589    1.396   .     A
C561   C590    1.398   .     A
C561   C570    1.418   .     S
C562   C588    1.396   .     A
C563   N610    1.358   .     A
C563   H604    1.082   .     S
C563   C627    1.415   .     S
C564   N609    1.358   .     A
C564   H592    1.082   .     S
C564   C690    1.415   1_455 S
C565   N609    1.383   .     A
C565   I607    2.118   .     S
C565   C687    1.415   1_455 S
C566   I608    2.118   .     S
C566   N610    1.383   .     A
C566   C626    1.415   .     S
C567   C569    1.455   .     S
C567   O615    1.293   .     A
C567   O617    1.298   .     A
C568   O618    1.297   .     A
C568   O616    1.295   .     A
C568   C571    1.455   .     S
C569   C576    1.388   .     A
C569   C574    1.396   .     A
C570   O614    1.288   .     A
C570   O612    1.286   .     A
C571   C575    1.398   .     A
C571   C577    1.386   .     A
C572   C580    1.415   .     A
C572   C574    1.393   .     A
C572   I729    2.128   1_455 S
C573   I606    2.127   .     S
C573   C582    1.417   .     A
C573   C575    1.398   .     A
C574   H601    1.083   .     S
C575   H600    1.083   .     S
C576   C578    1.396   .     A
C576   H599    1.078   .     S
C577   H598    1.080   .     S
C577   C579    1.393   .     A
C578   C580    1.424   .     A
C578   C583    1.419   .     A
C579   C584    1.416   .     A
C579   C582    1.421   .     A
C580   C28     1.395   1_556 S
C581   C586    1.387   .     A
C581   C584    1.415   .     A
C581   H602    1.079   .     S
C583   C585    1.416   .     A
C583   C26     1.410   1_556 S
C585   C587    1.390   .     A
C585   H603    1.078   .     S
C586   H591    1.081   .     S
C587   H597    1.081   .     S
C587   C24     1.396   1_556 S
C588   H593    1.084   .     S
C588   C776    1.370   .     S
C589   H594    1.084   .     S
C589   C932    1.370   1_545 S
C590   H595    1.084   .     S
C590   C960    1.370   1_545 S
I605   C634    2.128   .     S
N609   Zn619   2.020   .     S
N610   Zn620   2.020   .     S
O611   Zn619   1.994   .     S
O612   Zn620   1.994   .     S
O613   Zn620   2.000   .     S
O614   Zn619   2.000   .     S
O615   Zn619   1.958   .     S
O616   Zn620   1.958   .     S
O617   Zn620   1.911   .     S
O618   Zn619   1.911   .     S
C621   C624    1.418   .     S
C621   O675    1.288   .     A
C621   O673    1.286   .     A
C622   C624    1.398   .     A
C622   H658    1.084   .     S
C622   C837    1.370   .     S
C623   C651    1.396   .     A
C623   C652    1.398   .     A
C623   C632    1.418   .     S
C624   C650    1.396   .     A
C625   N672    1.358   .     A
C625   H666    1.082   .     S
C625   C689    1.415   .     S
C626   N671    1.358   .     A
C626   H654    1.082   .     S
C627   N671    1.383   .     A
C627   I669    2.118   .     S
C628   I670    2.118   .     S
C628   N672    1.383   .     A
C628   C688    1.415   .     S
C629   C631    1.455   .     S
C629   O677    1.293   .     A
C629   O679    1.298   .     A
C630   O680    1.297   .     A
C630   O678    1.295   .     A
C630   C633    1.455   .     S
C631   C638    1.388   .     A
C631   C636    1.396   .     A
C632   O676    1.288   .     A
C632   O674    1.286   .     A
C633   C637    1.398   .     A
C633   C639    1.386   .     A
C634   C642    1.415   .     A
C634   C636    1.393   .     A
C635   I668    2.127   .     S
C635   C644    1.417   .     A
C635   C637    1.398   .     A
C636   H663    1.083   .     S
C637   H662    1.083   .     S
C638   C640    1.396   .     A
C638   H661    1.078   .     S
C639   H660    1.080   .     S
C639   C641    1.393   .     A
C640   C642    1.424   .     A
C640   C645    1.419   .     A
C641   C646    1.416   .     A
C641   C644    1.421   .     A
C642   C90     1.395   1_556 S
C643   C648    1.387   .     A
C643   C646    1.415   .     A
C643   H664    1.079   .     S
C645   C647    1.416   .     A
C645   C88     1.410   1_556 S
C647   C649    1.390   .     A
C647   H665    1.078   .     S
C648   H653    1.081   .     S
C649   H659    1.081   .     S
C649   C86     1.396   1_556 S
C650   H655    1.084   .     S
C650   C838    1.370   .     S
C651   H656    1.084   .     S
C651   C994    1.370   1_545 S
C652   H657    1.084   .     S
C652   C1022   1.370   1_545 S
I667   C696    2.128   .     S
N671   Zn681   2.020   .     S
N672   Zn682   2.020   .     S
O673   Zn681   1.994   .     S
O674   Zn682   1.994   .     S
O675   Zn682   2.000   .     S
O676   Zn681   2.000   .     S
O677   Zn681   1.958   .     S
O678   Zn682   1.958   .     S
O679   Zn682   1.911   .     S
O680   Zn681   1.911   .     S
C683   C686    1.418   .     S
C683   O737    1.288   .     A
C683   O735    1.286   .     A
C684   C686    1.398   .     A
C684   H720    1.084   .     S
C684   C899    1.370   .     S
C685   C713    1.396   .     A
C685   C714    1.398   .     A
C685   C694    1.418   .     S
C686   C712    1.396   .     A
C687   N734    1.358   .     A
C687   H728    1.082   .     S
C687   C565    1.415   1_655 S
C688   N733    1.358   .     A
C688   H716    1.082   .     S
C689   N733    1.383   .     A
C689   I731    2.118   .     S
C690   I732    2.118   .     S
C690   N734    1.383   .     A
C690   C564    1.415   1_655 S
C691   C693    1.455   .     S
C691   O739    1.293   .     A
C691   O741    1.298   .     A
C692   O742    1.297   .     A
C692   O740    1.295   .     A
C692   C695    1.455   .     S
C693   C700    1.388   .     A
C693   C698    1.396   .     A
C694   O738    1.288   .     A
C694   O736    1.286   .     A
C695   C699    1.398   .     A
C695   C701    1.386   .     A
C696   C704    1.415   .     A
C696   C698    1.393   .     A
C697   I730    2.127   .     S
C697   C706    1.417   .     A
C697   C699    1.398   .     A
C698   H725    1.083   .     S
C699   H724    1.083   .     S
C700   C702    1.396   .     A
C700   H723    1.078   .     S
C701   H722    1.080   .     S
C701   C703    1.393   .     A
C702   C704    1.424   .     A
C702   C707    1.419   .     A
C703   C708    1.416   .     A
C703   C706    1.421   .     A
C704   C152    1.395   1_556 S
C705   C710    1.387   .     A
C705   C708    1.415   .     A
C705   H726    1.079   .     S
C707   C709    1.416   .     A
C707   C150    1.410   1_556 S
C709   C711    1.390   .     A
C709   H727    1.078   .     S
C710   H715    1.081   .     S
C711   H721    1.081   .     S
C711   C148    1.396   1_556 S
C712   H717    1.084   .     S
C712   C900    1.370   .     S
C713   H718    1.084   .     S
C713   C1056   1.370   1_545 S
C714   H719    1.084   .     S
C714   C1084   1.370   1_545 S
I729   C572    2.128   1_655 S
N733   Zn743   2.020   .     S
N734   Zn744   2.020   .     S
O735   Zn743   1.994   .     S
O736   Zn744   1.994   .     S
O737   Zn744   2.000   .     S
O738   Zn743   2.000   .     S
O739   Zn743   1.958   .     S
O740   Zn744   1.958   .     S
O741   Zn744   1.911   .     S
O742   Zn743   1.911   .     S
C745   C748    1.418   .     S
C745   O799    1.288   .     A
C745   O797    1.286   .     A
C746   C748    1.398   .     A
C746   H782    1.084   .     S
C746   C961    1.370   .     S
C747   C775    1.396   .     A
C747   C776    1.398   .     A
C747   C756    1.418   .     S
C748   C774    1.396   .     A
C749   N796    1.358   .     A
C749   H790    1.082   .     S
C749   C813    1.415   .     S
C750   N795    1.358   .     A
C750   H778    1.082   .     S
C750   C876    1.415   1_455 S
C751   N795    1.383   .     A
C751   I793    2.118   .     S
C751   C873    1.415   1_455 S
C752   I794    2.118   .     S
C752   N796    1.383   .     A
C752   C812    1.415   .     S
C753   C755    1.455   .     S
C753   O801    1.293   .     A
C753   O803    1.298   .     A
C754   O804    1.297   .     A
C754   O802    1.295   .     A
C754   C757    1.455   .     S
C755   C762    1.388   .     A
C755   C760    1.396   .     A
C756   O800    1.288   .     A
C756   O798    1.286   .     A
C757   C761    1.398   .     A
C757   C763    1.386   .     A
C758   C766    1.415   .     A
C758   C760    1.393   .     A
C758   I915    2.128   1_455 S
C759   I792    2.127   .     S
C759   C768    1.417   .     A
C759   C761    1.398   .     A
C760   H787    1.083   .     S
C761   H786    1.083   .     S
C762   C764    1.396   .     A
C762   H785    1.078   .     S
C763   H784    1.080   .     S
C763   C765    1.393   .     A
C764   C766    1.424   .     A
C764   C769    1.419   .     A
C765   C770    1.416   .     A
C765   C768    1.421   .     A
C766   C214    1.395   1_556 S
C767   C772    1.387   .     A
C767   C770    1.415   .     A
C767   H788    1.079   .     S
C769   C771    1.416   .     A
C769   C212    1.410   1_556 S
C771   C773    1.390   .     A
C771   H789    1.078   .     S
C772   H777    1.081   .     S
C773   H783    1.081   .     S
C773   C210    1.396   1_556 S
C774   H779    1.084   .     S
C774   C962    1.370   .     S
C775   H780    1.084   .     S
C776   H781    1.084   .     S
I791   C820    2.128   .     S
N795   Zn805   2.020   .     S
N796   Zn806   2.020   .     S
O797   Zn805   1.994   .     S
O798   Zn806   1.994   .     S
O799   Zn806   2.000   .     S
O800   Zn805   2.000   .     S
O801   Zn805   1.958   .     S
O802   Zn806   1.958   .     S
O803   Zn806   1.911   .     S
O804   Zn805   1.911   .     S
C807   C810    1.418   .     S
C807   O861    1.288   .     A
C807   O859    1.286   .     A
C808   C810    1.398   .     A
C808   H844    1.084   .     S
C808   C1023   1.370   .     S
C809   C837    1.396   .     A
C809   C838    1.398   .     A
C809   C818    1.418   .     S
C810   C836    1.396   .     A
C811   N858    1.358   .     A
C811   H852    1.082   .     S
C811   C875    1.415   .     S
C812   N857    1.358   .     A
C812   H840    1.082   .     S
C813   N857    1.383   .     A
C813   I855    2.118   .     S
C814   I856    2.118   .     S
C814   N858    1.383   .     A
C814   C874    1.415   .     S
C815   C817    1.455   .     S
C815   O863    1.293   .     A
C815   O865    1.298   .     A
C816   O866    1.297   .     A
C816   O864    1.295   .     A
C816   C819    1.455   .     S
C817   C824    1.388   .     A
C817   C822    1.396   .     A
C818   O862    1.288   .     A
C818   O860    1.286   .     A
C819   C823    1.398   .     A
C819   C825    1.386   .     A
C820   C828    1.415   .     A
C820   C822    1.393   .     A
C821   I854    2.127   .     S
C821   C830    1.417   .     A
C821   C823    1.398   .     A
C822   H849    1.083   .     S
C823   H848    1.083   .     S
C824   C826    1.396   .     A
C824   H847    1.078   .     S
C825   H846    1.080   .     S
C825   C827    1.393   .     A
C826   C828    1.424   .     A
C826   C831    1.419   .     A
C827   C832    1.416   .     A
C827   C830    1.421   .     A
C828   C276    1.395   1_556 S
C829   C834    1.387   .     A
C829   C832    1.415   .     A
C829   H850    1.079   .     S
C831   C833    1.416   .     A
C831   C274    1.410   1_556 S
C833   C835    1.390   .     A
C833   H851    1.078   .     S
C834   H839    1.081   .     S
C835   H845    1.081   .     S
C835   C272    1.396   1_556 S
C836   H841    1.084   .     S
C836   C1024   1.370   .     S
C837   H842    1.084   .     S
C838   H843    1.084   .     S
I853   C882    2.128   .     S
N857   Zn867   2.020   .     S
N858   Zn868   2.020   .     S
O859   Zn867   1.994   .     S
O860   Zn868   1.994   .     S
O861   Zn868   2.000   .     S
O862   Zn867   2.000   .     S
O863   Zn867   1.958   .     S
O864   Zn868   1.958   .     S
O865   Zn868   1.911   .     S
O866   Zn867   1.911   .     S
C869   C872    1.418   .     S
C869   O923    1.288   .     A
C869   O921    1.286   .     A
C870   C872    1.398   .     A
C870   H906    1.084   .     S
C870   C1085   1.370   .     S
C871   C899    1.396   .     A
C871   C900    1.398   .     A
C871   C880    1.418   .     S
C872   C898    1.396   .     A
C873   N920    1.358   .     A
C873   H914    1.082   .     S
C873   C751    1.415   1_655 S
C874   N919    1.358   .     A
C874   H902    1.082   .     S
C875   N919    1.383   .     A
C875   I917    2.118   .     S
C876   I918    2.118   .     S
C876   N920    1.383   .     A
C876   C750    1.415   1_655 S
C877   C879    1.455   .     S
C877   O925    1.293   .     A
C877   O927    1.298   .     A
C878   O928    1.297   .     A
C878   O926    1.295   .     A
C878   C881    1.455   .     S
C879   C886    1.388   .     A
C879   C884    1.396   .     A
C880   O924    1.288   .     A
C880   O922    1.286   .     A
C881   C885    1.398   .     A
C881   C887    1.386   .     A
C882   C890    1.415   .     A
C882   C884    1.393   .     A
C883   I916    2.127   .     S
C883   C892    1.417   .     A
C883   C885    1.398   .     A
C884   H911    1.083   .     S
C885   H910    1.083   .     S
C886   C888    1.396   .     A
C886   H909    1.078   .     S
C887   H908    1.080   .     S
C887   C889    1.393   .     A
C888   C890    1.424   .     A
C888   C893    1.419   .     A
C889   C894    1.416   .     A
C889   C892    1.421   .     A
C890   C338    1.395   1_556 S
C891   C896    1.387   .     A
C891   C894    1.415   .     A
C891   H912    1.079   .     S
C893   C895    1.416   .     A
C893   C336    1.410   1_556 S
C895   C897    1.390   .     A
C895   H913    1.078   .     S
C896   H901    1.081   .     S
C897   H907    1.081   .     S
C897   C334    1.396   1_556 S
C898   H903    1.084   .     S
C898   C1086   1.370   .     S
C899   H904    1.084   .     S
C900   H905    1.084   .     S
I915   C758    2.128   1_655 S
N919   Zn929   2.020   .     S
N920   Zn930   2.020   .     S
O921   Zn929   1.994   .     S
O922   Zn930   1.994   .     S
O923   Zn930   2.000   .     S
O924   Zn929   2.000   .     S
O925   Zn929   1.958   .     S
O926   Zn930   1.958   .     S
O927   Zn930   1.911   .     S
O928   Zn929   1.911   .     S
C931   C934    1.418   .     S
C931   O985    1.288   .     A
C931   O983    1.286   .     A
C932   C934    1.398   .     A
C932   H968    1.084   .     S
C932   C589    1.370   1_565 S
C933   C961    1.396   .     A
C933   C962    1.398   .     A
C933   C942    1.418   .     S
C934   C960    1.396   .     A
C935   N982    1.358   .     A
C935   H976    1.082   .     S
C935   C999    1.415   .     S
C936   N981    1.358   .     A
C936   H964    1.082   .     S
C936   C1062   1.415   1_455 S
C937   N981    1.383   .     A
C937   I979    2.118   .     S
C937   C1059   1.415   1_455 S
C938   I980    2.118   .     S
C938   N982    1.383   .     A
C938   C998    1.415   .     S
C939   C941    1.455   .     S
C939   O987    1.293   .     A
C939   O989    1.298   .     A
C940   O990    1.297   .     A
C940   O988    1.295   .     A
C940   C943    1.455   .     S
C941   C948    1.388   .     A
C941   C946    1.396   .     A
C942   O986    1.288   .     A
C942   O984    1.286   .     A
C943   C947    1.398   .     A
C943   C949    1.386   .     A
C944   C952    1.415   .     A
C944   C946    1.393   .     A
C944   I1101   2.128   1_455 S
C945   I978    2.127   .     S
C945   C954    1.417   .     A
C945   C947    1.398   .     A
C946   H973    1.083   .     S
C947   H972    1.083   .     S
C948   C950    1.396   .     A
C948   H971    1.078   .     S
C949   H970    1.080   .     S
C949   C951    1.393   .     A
C950   C952    1.424   .     A
C950   C955    1.419   .     A
C951   C956    1.416   .     A
C951   C954    1.421   .     A
C952   C400    1.395   1_556 S
C953   C958    1.387   .     A
C953   C956    1.415   .     A
C953   H974    1.079   .     S
C955   C957    1.416   .     A
C955   C398    1.410   1_556 S
C957   C959    1.390   .     A
C957   H975    1.078   .     S
C958   H963    1.081   .     S
C959   H969    1.081   .     S
C959   C396    1.396   1_556 S
C960   H965    1.084   .     S
C960   C590    1.370   1_565 S
C961   H966    1.084   .     S
C962   H967    1.084   .     S
I977   C1006   2.128   .     S
N981   Zn991   2.020   .     S
N982   Zn992   2.020   .     S
O983   Zn991   1.994   .     S
O984   Zn992   1.994   .     S
O985   Zn992   2.000   .     S
O986   Zn991   2.000   .     S
O987   Zn991   1.958   .     S
O988   Zn992   1.958   .     S
O989   Zn992   1.911   .     S
O990   Zn991   1.911   .     S
C993   C996    1.418   .     S
C993   O1047   1.288   .     A
C993   O1045   1.286   .     A
C994   C996    1.398   .     A
C994   H1030   1.084   .     S
C994   C651    1.370   1_565 S
C995   C1023   1.396   .     A
C995   C1024   1.398   .     A
C995   C1004   1.418   .     S
C996   C1022   1.396   .     A
C997   N1044   1.358   .     A
C997   H1038   1.082   .     S
C997   C1061   1.415   .     S
C998   N1043   1.358   .     A
C998   H1026   1.082   .     S
C999   N1043   1.383   .     A
C999   I1041   2.118   .     S
C1000  I1042   2.118   .     S
C1000  N1044   1.383   .     A
C1000  C1060   1.415   .     S
C1001  C1003   1.455   .     S
C1001  O1049   1.293   .     A
C1001  O1051   1.298   .     A
C1002  O1052   1.297   .     A
C1002  O1050   1.295   .     A
C1002  C1005   1.455   .     S
C1003  C1010   1.388   .     A
C1003  C1008   1.396   .     A
C1004  O1048   1.288   .     A
C1004  O1046   1.286   .     A
C1005  C1009   1.398   .     A
C1005  C1011   1.386   .     A
C1006  C1014   1.415   .     A
C1006  C1008   1.393   .     A
C1007  I1040   2.127   .     S
C1007  C1016   1.417   .     A
C1007  C1009   1.398   .     A
C1008  H1035   1.083   .     S
C1009  H1034   1.083   .     S
C1010  C1012   1.396   .     A
C1010  H1033   1.078   .     S
C1011  H1032   1.080   .     S
C1011  C1013   1.393   .     A
C1012  C1014   1.424   .     A
C1012  C1017   1.419   .     A
C1013  C1018   1.416   .     A
C1013  C1016   1.421   .     A
C1014  C462    1.395   1_556 S
C1015  C1020   1.387   .     A
C1015  C1018   1.415   .     A
C1015  H1036   1.079   .     S
C1017  C1019   1.416   .     A
C1017  C460    1.410   1_556 S
C1019  C1021   1.390   .     A
C1019  H1037   1.078   .     S
C1020  H1025   1.081   .     S
C1021  H1031   1.081   .     S
C1021  C458    1.396   1_556 S
C1022  H1027   1.084   .     S
C1022  C652    1.370   1_565 S
C1023  H1028   1.084   .     S
C1024  H1029   1.084   .     S
I1039  C1068   2.128   .     S
N1043  Zn1053  2.020   .     S
N1044  Zn1054  2.020   .     S
O1045  Zn1053  1.994   .     S
O1046  Zn1054  1.994   .     S
O1047  Zn1054  2.000   .     S
O1048  Zn1053  2.000   .     S
O1049  Zn1053  1.958   .     S
O1050  Zn1054  1.958   .     S
O1051  Zn1054  1.911   .     S
O1052  Zn1053  1.911   .     S
C1055  C1058   1.418   .     S
C1055  O1109   1.288   .     A
C1055  O1107   1.286   .     A
C1056  C1058   1.398   .     A
C1056  H1092   1.084   .     S
C1056  C713    1.370   1_565 S
C1057  C1085   1.396   .     A
C1057  C1086   1.398   .     A
C1057  C1066   1.418   .     S
C1058  C1084   1.396   .     A
C1059  N1106   1.358   .     A
C1059  H1100   1.082   .     S
C1059  C937    1.415   1_655 S
C1060  N1105   1.358   .     A
C1060  H1088   1.082   .     S
C1061  N1105   1.383   .     A
C1061  I1103   2.118   .     S
C1062  I1104   2.118   .     S
C1062  N1106   1.383   .     A
C1062  C936    1.415   1_655 S
C1063  C1065   1.455   .     S
C1063  O1111   1.293   .     A
C1063  O1113   1.298   .     A
C1064  O1114   1.297   .     A
C1064  O1112   1.295   .     A
C1064  C1067   1.455   .     S
C1065  C1072   1.388   .     A
C1065  C1070   1.396   .     A
C1066  O1110   1.288   .     A
C1066  O1108   1.286   .     A
C1067  C1071   1.398   .     A
C1067  C1073   1.386   .     A
C1068  C1076   1.415   .     A
C1068  C1070   1.393   .     A
C1069  I1102   2.127   .     S
C1069  C1078   1.417   .     A
C1069  C1071   1.398   .     A
C1070  H1097   1.083   .     S
C1071  H1096   1.083   .     S
C1072  C1074   1.396   .     A
C1072  H1095   1.078   .     S
C1073  H1094   1.080   .     S
C1073  C1075   1.393   .     A
C1074  C1076   1.424   .     A
C1074  C1079   1.419   .     A
C1075  C1080   1.416   .     A
C1075  C1078   1.421   .     A
C1076  C524    1.395   1_556 S
C1077  C1082   1.387   .     A
C1077  C1080   1.415   .     A
C1077  H1098   1.079   .     S
C1079  C1081   1.416   .     A
C1079  C522    1.410   1_556 S
C1081  C1083   1.390   .     A
C1081  H1099   1.078   .     S
C1082  H1087   1.081   .     S
C1083  H1093   1.081   .     S
C1083  C520    1.396   1_556 S
C1084  H1089   1.084   .     S
C1084  C714    1.370   1_565 S
C1085  H1090   1.084   .     S
C1086  H1091   1.084   .     S
I1101  C944    2.128   1_655 S
N1105  Zn1115  2.020   .     S
N1106  Zn1116  2.020   .     S
O1107  Zn1115  1.994   .     S
O1108  Zn1116  1.994   .     S
O1109  Zn1116  2.000   .     S
O1110  Zn1115  2.000   .     S
O1111  Zn1115  1.958   .     S
O1112  Zn1116  1.958   .     S
O1113  Zn1116  1.911   .     S
O1114  Zn1115  1.911   .     S
