data_str_m3_o2_o10_pcu_sym.25
_audit_creation_date              2020-01-03
_audit_creation_method            'Materials Studio'
_symmetry_space_group_name_H-M    'P1'
_symmetry_Int_Tables_number       1
_symmetry_cell_setting            triclinic
loop_
_symmetry_equiv_pos_as_xyz
  x,y,z
_cell_length_a                    25.8674
_cell_length_b                    29.8806
_cell_length_c                    28.6554
_cell_angle_alpha                 91.4043
_cell_angle_beta                  98.2730
_cell_angle_gamma                 93.3895
loop_
_atom_site_label
_atom_site_type_symbol
_atom_site_fract_x
_atom_site_fract_y
_atom_site_fract_z
_atom_site_U_iso_or_equiv
_atom_site_adp_type
_atom_site_occupancy
C1     C     0.17024   0.16419   0.24996   0.00000  Uiso   1.00
C2     C     0.12515   0.22617   0.44100   0.00000  Uiso   1.00
C3     C     0.16942   0.24864   0.02700   0.00000  Uiso   1.00
C4     C     0.16391   0.25135   0.47300   0.00000  Uiso   1.00
C5     C     0.06719   0.24907   0.23794   0.00000  Uiso   1.00
C6     C     0.26614   0.25093   0.26206   0.00000  Uiso   1.00
C7     C     0.01233   0.24028   0.23353   0.00000  Uiso   1.00
C8     C     0.32100   0.25971   0.26648   0.00000  Uiso   1.00
C9     C     0.20013   0.04865   0.28815   0.00000  Uiso   1.00
C10    C     0.13306   0.45131   0.21183   0.00000  Uiso   1.00
C11    C     0.20042   0.09501   0.28985   0.00000  Uiso   1.00
C12    C     0.16308   0.33581   0.25003   0.00000  Uiso   1.00
C13    C     0.13283   0.40496   0.21013   0.00000  Uiso   1.00
C14    C     0.17839   0.11665   0.24938   0.00000  Uiso   1.00
C15    C     0.15488   0.38334   0.25061   0.00000  Uiso   1.00
C16    C     0.16842   0.09255   0.20625   0.00000  Uiso   1.00
C17    C     0.16480   0.40745   0.29374   0.00000  Uiso   1.00
C18    C     0.16977   0.04638   0.20485   0.00000  Uiso   1.00
C19    C     0.16340   0.45361   0.29513   0.00000  Uiso   1.00
C20    C     0.17538   0.02389   0.24807   0.00000  Uiso   1.00
C21    C     0.15778   0.47609   0.25191   0.00000  Uiso   1.00
C22    C     0.30829   0.20783   0.15611   0.00000  Uiso   1.00
C23    C     0.13853   0.21724   0.04824   0.00000  Uiso   1.00
C24    C     0.02498   0.29212   0.34391   0.00000  Uiso   1.00
C25    C     0.19478   0.28277   0.45176   0.00000  Uiso   1.00
C26    C     0.13682   0.21853   0.09687   0.00000  Uiso   1.00
C27    C     0.19649   0.28148   0.40313   0.00000  Uiso   1.00
C28    C     0.20223   0.27789   0.10745   0.00000  Uiso   1.00
C29    C     0.13113   0.22208   0.39255   0.00000  Uiso   1.00
C30    C     0.20819   0.27381   0.05900   0.00000  Uiso   1.00
H31    H     0.21969   0.03240   0.31819   0.00000  Uiso   1.00
H32    H     0.00387   0.23079   0.14199   0.00000  Uiso   1.00
H33    H     0.32140   0.32605   0.28782   0.00000  Uiso   1.00
H34    H     0.06362   0.27809   0.35080   0.00000  Uiso   1.00
H35    H     0.32919   0.26941   0.35805   0.00000  Uiso   1.00
H36    H     0.02870   0.32497   0.36347   0.00000  Uiso   1.00
H37    H     0.11349   0.46756   0.18178   0.00000  Uiso   1.00
H38    H     0.16128   0.10950   0.17333   0.00000  Uiso   1.00
H39    H     0.17194   0.39049   0.32666   0.00000  Uiso   1.00
H40    H     0.11758   0.18947   0.02786   0.00000  Uiso   1.00
H41    H     0.21572   0.31054   0.47215   0.00000  Uiso   1.00
H42    H     0.01195   0.17394   0.21220   0.00000  Uiso   1.00
H43    H     0.26945   0.22154   0.14922   0.00000  Uiso   1.00
H44    H     0.30491   0.17500   0.13653   0.00000  Uiso   1.00
I45    I     0.23867   0.12822   0.35328   0.00000  Uiso   1.00
I46    I     0.04649   0.21474   0.45669   0.00000  Uiso   1.00
I47    I     0.09464   0.37173   0.14670   0.00000  Uiso   1.00
I48    I     0.18077   0.01866   0.13773   0.00000  Uiso   1.00
I49    I     0.15233   0.48134   0.36223   0.00000  Uiso   1.00
I50    I     0.08699   0.16845   0.12049   0.00000  Uiso   1.00
I51    I     0.24628   0.33161   0.37952   0.00000  Uiso   1.00
I52    I     0.25228   0.32720   0.15017   0.00000  Uiso   1.00
I53    I     0.08110   0.17275   0.34984   0.00000  Uiso   1.00
I54    I     0.28684   0.28524   0.04328   0.00000  Uiso   1.00
N55    N     0.16667   0.24999   0.12623   0.00000  Uiso   1.00
N56    N     0.16667   0.25001   0.37376   0.00000  Uiso   1.00
N57    N     0.32307   0.20135   0.20612   0.00000  Uiso   1.00
N58    N     0.01026   0.29863   0.29391   0.00000  Uiso   1.00
O59    O     0.16667   0.18453   0.28974   0.00000  Uiso   1.00
O60    O     0.16666   0.31546   0.21026   0.00000  Uiso   1.00
O61    O     0.16667   0.18453   0.21026   0.00000  Uiso   1.00
O62    O     0.16666   0.31547   0.28974   0.00000  Uiso   1.00
O63    O     0.09058   0.25000   0.28044   0.00000  Uiso   1.00
O64    O     0.24275   0.25000   0.21955   0.00000  Uiso   1.00
O65    O     0.09058   0.24999   0.20096   0.00000  Uiso   1.00
O66    O     0.24275   0.25000   0.29903   0.00000  Uiso   1.00
Zn67   Zn    0.16667   0.25000   0.30307   0.00000  Uiso   1.00
Zn68   Zn    0.16667   0.24999   0.19693   0.00000  Uiso   1.00
C69    C     0.50358   0.16419   0.24996   0.00000  Uiso   1.00
C70    C     0.45849   0.22617   0.44100   0.00000  Uiso   1.00
C71    C     0.50275   0.24864   0.02700   0.00000  Uiso   1.00
C72    C     0.49724   0.25135   0.47300   0.00000  Uiso   1.00
C73    C     0.40052   0.24907   0.23794   0.00000  Uiso   1.00
C74    C     0.59948   0.25093   0.26206   0.00000  Uiso   1.00
C75    C     0.34566   0.24028   0.23353   0.00000  Uiso   1.00
C76    C     0.65433   0.25971   0.26648   0.00000  Uiso   1.00
C77    C     0.53346   0.04865   0.28815   0.00000  Uiso   1.00
C78    C     0.46640   0.45131   0.21183   0.00000  Uiso   1.00
C79    C     0.53376   0.09501   0.28985   0.00000  Uiso   1.00
C80    C     0.49641   0.33581   0.25003   0.00000  Uiso   1.00
C81    C     0.46616   0.40496   0.21013   0.00000  Uiso   1.00
C82    C     0.51172   0.11665   0.24938   0.00000  Uiso   1.00
C83    C     0.48822   0.38334   0.25061   0.00000  Uiso   1.00
C84    C     0.50175   0.09255   0.20625   0.00000  Uiso   1.00
C85    C     0.49813   0.40745   0.29374   0.00000  Uiso   1.00
C86    C     0.50310   0.04638   0.20485   0.00000  Uiso   1.00
C87    C     0.49673   0.45361   0.29513   0.00000  Uiso   1.00
C88    C     0.50872   0.02389   0.24807   0.00000  Uiso   1.00
C89    C     0.49111   0.47609   0.25191   0.00000  Uiso   1.00
C90    C     0.64162   0.20783   0.15611   0.00000  Uiso   1.00
C91    C     0.47186   0.21724   0.04824   0.00000  Uiso   1.00
C92    C     0.35831   0.29212   0.34391   0.00000  Uiso   1.00
C93    C     0.52812   0.28277   0.45176   0.00000  Uiso   1.00
C94    C     0.47015   0.21853   0.09687   0.00000  Uiso   1.00
C95    C     0.52983   0.28148   0.40313   0.00000  Uiso   1.00
C96    C     0.53556   0.27789   0.10745   0.00000  Uiso   1.00
C97    C     0.46447   0.22208   0.39255   0.00000  Uiso   1.00
C98    C     0.54153   0.27381   0.05900   0.00000  Uiso   1.00
H99    H     0.55302   0.03240   0.31819   0.00000  Uiso   1.00
H100   H     0.33720   0.23079   0.14199   0.00000  Uiso   1.00
H101   H     0.65473   0.32605   0.28782   0.00000  Uiso   1.00
H102   H     0.39695   0.27809   0.35080   0.00000  Uiso   1.00
H103   H     0.66253   0.26941   0.35805   0.00000  Uiso   1.00
H104   H     0.36203   0.32497   0.36347   0.00000  Uiso   1.00
H105   H     0.44682   0.46756   0.18178   0.00000  Uiso   1.00
H106   H     0.49461   0.10950   0.17333   0.00000  Uiso   1.00
H107   H     0.50528   0.39049   0.32666   0.00000  Uiso   1.00
H108   H     0.45091   0.18947   0.02786   0.00000  Uiso   1.00
H109   H     0.54905   0.31054   0.47215   0.00000  Uiso   1.00
H110   H     0.34528   0.17394   0.21220   0.00000  Uiso   1.00
H111   H     0.60278   0.22154   0.14922   0.00000  Uiso   1.00
H112   H     0.63824   0.17500   0.13653   0.00000  Uiso   1.00
I113   I     0.57200   0.12822   0.35328   0.00000  Uiso   1.00
I114   I     0.37983   0.21474   0.45669   0.00000  Uiso   1.00
I115   I     0.42798   0.37173   0.14670   0.00000  Uiso   1.00
I116   I     0.51410   0.01866   0.13773   0.00000  Uiso   1.00
I117   I     0.48566   0.48134   0.36223   0.00000  Uiso   1.00
I118   I     0.42032   0.16845   0.12049   0.00000  Uiso   1.00
I119   I     0.57962   0.33161   0.37952   0.00000  Uiso   1.00
I120   I     0.58562   0.32720   0.15017   0.00000  Uiso   1.00
I121   I     0.41444   0.17275   0.34984   0.00000  Uiso   1.00
I122   I     0.62018   0.28524   0.04328   0.00000  Uiso   1.00
N123   N     0.50000   0.24999   0.12623   0.00000  Uiso   1.00
N124   N     0.50000   0.25001   0.37376   0.00000  Uiso   1.00
N125   N     0.65641   0.20135   0.20612   0.00000  Uiso   1.00
N126   N     0.34359   0.29863   0.29391   0.00000  Uiso   1.00
O127   O     0.50000   0.18453   0.28974   0.00000  Uiso   1.00
O128   O     0.50000   0.31546   0.21026   0.00000  Uiso   1.00
O129   O     0.50000   0.18453   0.21026   0.00000  Uiso   1.00
O130   O     0.50000   0.31547   0.28974   0.00000  Uiso   1.00
O131   O     0.42392   0.25000   0.28044   0.00000  Uiso   1.00
O132   O     0.57608   0.25000   0.21955   0.00000  Uiso   1.00
O133   O     0.42392   0.24999   0.20096   0.00000  Uiso   1.00
O134   O     0.57608   0.25000   0.29903   0.00000  Uiso   1.00
Zn135  Zn    0.50000   0.25000   0.30307   0.00000  Uiso   1.00
Zn136  Zn    0.50000   0.24999   0.19693   0.00000  Uiso   1.00
C137   C     0.83691   0.16419   0.24996   0.00000  Uiso   1.00
C138   C     0.79182   0.22617   0.44100   0.00000  Uiso   1.00
C139   C     0.83609   0.24864   0.02700   0.00000  Uiso   1.00
C140   C     0.83058   0.25135   0.47300   0.00000  Uiso   1.00
C141   C     0.73386   0.24907   0.23794   0.00000  Uiso   1.00
C142   C     0.93281   0.25093   0.26206   0.00000  Uiso   1.00
C143   C     0.67900   0.24028   0.23353   0.00000  Uiso   1.00
C144   C     0.98767   0.25971   0.26648   0.00000  Uiso   1.00
C145   C     0.86679   0.04865   0.28815   0.00000  Uiso   1.00
C146   C     0.79973   0.45131   0.21183   0.00000  Uiso   1.00
C147   C     0.86709   0.09501   0.28985   0.00000  Uiso   1.00
C148   C     0.82974   0.33581   0.25003   0.00000  Uiso   1.00
C149   C     0.79949   0.40496   0.21013   0.00000  Uiso   1.00
C150   C     0.84505   0.11665   0.24938   0.00000  Uiso   1.00
C151   C     0.82155   0.38334   0.25061   0.00000  Uiso   1.00
C152   C     0.83508   0.09255   0.20625   0.00000  Uiso   1.00
C153   C     0.83147   0.40745   0.29374   0.00000  Uiso   1.00
C154   C     0.83643   0.04638   0.20485   0.00000  Uiso   1.00
C155   C     0.83006   0.45361   0.29513   0.00000  Uiso   1.00
C156   C     0.84205   0.02389   0.24807   0.00000  Uiso   1.00
C157   C     0.82444   0.47609   0.25191   0.00000  Uiso   1.00
C158   C     0.97496   0.20783   0.15611   0.00000  Uiso   1.00
C159   C     0.80520   0.21724   0.04824   0.00000  Uiso   1.00
C160   C     0.69164   0.29212   0.34391   0.00000  Uiso   1.00
C161   C     0.86145   0.28277   0.45176   0.00000  Uiso   1.00
C162   C     0.80348   0.21853   0.09687   0.00000  Uiso   1.00
C163   C     0.86316   0.28148   0.40313   0.00000  Uiso   1.00
C164   C     0.86889   0.27789   0.10745   0.00000  Uiso   1.00
C165   C     0.79780   0.22208   0.39255   0.00000  Uiso   1.00
C166   C     0.87486   0.27381   0.05900   0.00000  Uiso   1.00
H167   H     0.88636   0.03240   0.31819   0.00000  Uiso   1.00
H168   H     0.67053   0.23079   0.14199   0.00000  Uiso   1.00
H169   H     0.98806   0.32605   0.28782   0.00000  Uiso   1.00
H170   H     0.73029   0.27809   0.35080   0.00000  Uiso   1.00
H171   H     0.99586   0.26941   0.35805   0.00000  Uiso   1.00
H172   H     0.69536   0.32497   0.36347   0.00000  Uiso   1.00
H173   H     0.78015   0.46756   0.18178   0.00000  Uiso   1.00
H174   H     0.82794   0.10950   0.17333   0.00000  Uiso   1.00
H175   H     0.83861   0.39049   0.32666   0.00000  Uiso   1.00
H176   H     0.78425   0.18947   0.02786   0.00000  Uiso   1.00
H177   H     0.88238   0.31054   0.47215   0.00000  Uiso   1.00
H178   H     0.67862   0.17394   0.21220   0.00000  Uiso   1.00
H179   H     0.93612   0.22154   0.14922   0.00000  Uiso   1.00
H180   H     0.97158   0.17500   0.13653   0.00000  Uiso   1.00
I181   I     0.90533   0.12822   0.35328   0.00000  Uiso   1.00
I182   I     0.71316   0.21474   0.45669   0.00000  Uiso   1.00
I183   I     0.76131   0.37173   0.14670   0.00000  Uiso   1.00
I184   I     0.84744   0.01866   0.13773   0.00000  Uiso   1.00
I185   I     0.81900   0.48134   0.36223   0.00000  Uiso   1.00
I186   I     0.75365   0.16845   0.12049   0.00000  Uiso   1.00
I187   I     0.91295   0.33161   0.37952   0.00000  Uiso   1.00
I188   I     0.91895   0.32720   0.15017   0.00000  Uiso   1.00
I189   I     0.74777   0.17275   0.34984   0.00000  Uiso   1.00
I190   I     0.95351   0.28524   0.04328   0.00000  Uiso   1.00
N191   N     0.83333   0.24999   0.12623   0.00000  Uiso   1.00
N192   N     0.83333   0.25001   0.37376   0.00000  Uiso   1.00
N193   N     0.98974   0.20135   0.20612   0.00000  Uiso   1.00
N194   N     0.67693   0.29863   0.29391   0.00000  Uiso   1.00
O195   O     0.83334   0.18453   0.28974   0.00000  Uiso   1.00
O196   O     0.83333   0.31546   0.21026   0.00000  Uiso   1.00
O197   O     0.83334   0.18453   0.21026   0.00000  Uiso   1.00
O198   O     0.83333   0.31547   0.28974   0.00000  Uiso   1.00
O199   O     0.75725   0.25000   0.28044   0.00000  Uiso   1.00
O200   O     0.90942   0.25000   0.21955   0.00000  Uiso   1.00
O201   O     0.75725   0.24999   0.20096   0.00000  Uiso   1.00
O202   O     0.90942   0.25000   0.29903   0.00000  Uiso   1.00
Zn203  Zn    0.83333   0.25000   0.30307   0.00000  Uiso   1.00
Zn204  Zn    0.83333   0.24999   0.19693   0.00000  Uiso   1.00
C205   C     0.17024   0.66419   0.24996   0.00000  Uiso   1.00
C206   C     0.12515   0.72617   0.44100   0.00000  Uiso   1.00
C207   C     0.16942   0.74864   0.02700   0.00000  Uiso   1.00
C208   C     0.16391   0.75135   0.47300   0.00000  Uiso   1.00
C209   C     0.06719   0.74907   0.23794   0.00000  Uiso   1.00
C210   C     0.26614   0.75093   0.26206   0.00000  Uiso   1.00
C211   C     0.01233   0.74028   0.23353   0.00000  Uiso   1.00
C212   C     0.32100   0.75971   0.26648   0.00000  Uiso   1.00
C213   C     0.20013   0.54865   0.28815   0.00000  Uiso   1.00
C214   C     0.13306   0.95131   0.21183   0.00000  Uiso   1.00
C215   C     0.20042   0.59501   0.28985   0.00000  Uiso   1.00
C216   C     0.16308   0.83581   0.25003   0.00000  Uiso   1.00
C217   C     0.13283   0.90496   0.21013   0.00000  Uiso   1.00
C218   C     0.17839   0.61665   0.24938   0.00000  Uiso   1.00
C219   C     0.15488   0.88334   0.25061   0.00000  Uiso   1.00
C220   C     0.16842   0.59255   0.20625   0.00000  Uiso   1.00
C221   C     0.16480   0.90745   0.29374   0.00000  Uiso   1.00
C222   C     0.16977   0.54638   0.20485   0.00000  Uiso   1.00
C223   C     0.16340   0.95361   0.29513   0.00000  Uiso   1.00
C224   C     0.17538   0.52389   0.24807   0.00000  Uiso   1.00
C225   C     0.15778   0.97609   0.25191   0.00000  Uiso   1.00
C226   C     0.30829   0.70783   0.15611   0.00000  Uiso   1.00
C227   C     0.13853   0.71724   0.04824   0.00000  Uiso   1.00
C228   C     0.02498   0.79212   0.34391   0.00000  Uiso   1.00
C229   C     0.19478   0.78277   0.45176   0.00000  Uiso   1.00
C230   C     0.13682   0.71853   0.09687   0.00000  Uiso   1.00
C231   C     0.19649   0.78148   0.40313   0.00000  Uiso   1.00
C232   C     0.20223   0.77789   0.10745   0.00000  Uiso   1.00
C233   C     0.13113   0.72208   0.39255   0.00000  Uiso   1.00
C234   C     0.20819   0.77381   0.05900   0.00000  Uiso   1.00
H235   H     0.21969   0.53240   0.31819   0.00000  Uiso   1.00
H236   H     0.00387   0.73079   0.14199   0.00000  Uiso   1.00
H237   H     0.32140   0.82605   0.28782   0.00000  Uiso   1.00
H238   H     0.06362   0.77809   0.35080   0.00000  Uiso   1.00
H239   H     0.32919   0.76941   0.35805   0.00000  Uiso   1.00
H240   H     0.02870   0.82497   0.36347   0.00000  Uiso   1.00
H241   H     0.11349   0.96756   0.18178   0.00000  Uiso   1.00
H242   H     0.16128   0.60950   0.17333   0.00000  Uiso   1.00
H243   H     0.17194   0.89049   0.32666   0.00000  Uiso   1.00
H244   H     0.11758   0.68947   0.02786   0.00000  Uiso   1.00
H245   H     0.21572   0.81054   0.47215   0.00000  Uiso   1.00
H246   H     0.01195   0.67394   0.21220   0.00000  Uiso   1.00
H247   H     0.26945   0.72154   0.14922   0.00000  Uiso   1.00
H248   H     0.30491   0.67500   0.13653   0.00000  Uiso   1.00
I249   I     0.23867   0.62822   0.35328   0.00000  Uiso   1.00
I250   I     0.04649   0.71474   0.45669   0.00000  Uiso   1.00
I251   I     0.09464   0.87173   0.14670   0.00000  Uiso   1.00
I252   I     0.18077   0.51866   0.13773   0.00000  Uiso   1.00
I253   I     0.15233   0.98134   0.36223   0.00000  Uiso   1.00
I254   I     0.08699   0.66845   0.12049   0.00000  Uiso   1.00
I255   I     0.24628   0.83161   0.37952   0.00000  Uiso   1.00
I256   I     0.25228   0.82720   0.15017   0.00000  Uiso   1.00
I257   I     0.08110   0.67275   0.34984   0.00000  Uiso   1.00
I258   I     0.28684   0.78524   0.04328   0.00000  Uiso   1.00
N259   N     0.16667   0.74999   0.12623   0.00000  Uiso   1.00
N260   N     0.16667   0.75001   0.37376   0.00000  Uiso   1.00
N261   N     0.32307   0.70135   0.20612   0.00000  Uiso   1.00
N262   N     0.01026   0.79863   0.29391   0.00000  Uiso   1.00
O263   O     0.16667   0.68453   0.28974   0.00000  Uiso   1.00
O264   O     0.16666   0.81546   0.21026   0.00000  Uiso   1.00
O265   O     0.16667   0.68453   0.21026   0.00000  Uiso   1.00
O266   O     0.16666   0.81547   0.28974   0.00000  Uiso   1.00
O267   O     0.09058   0.75000   0.28044   0.00000  Uiso   1.00
O268   O     0.24275   0.75000   0.21955   0.00000  Uiso   1.00
O269   O     0.09058   0.74999   0.20096   0.00000  Uiso   1.00
O270   O     0.24275   0.75000   0.29903   0.00000  Uiso   1.00
Zn271  Zn    0.16667   0.75000   0.30307   0.00000  Uiso   1.00
Zn272  Zn    0.16667   0.74999   0.19693   0.00000  Uiso   1.00
C273   C     0.50358   0.66419   0.24996   0.00000  Uiso   1.00
C274   C     0.45849   0.72617   0.44100   0.00000  Uiso   1.00
C275   C     0.50275   0.74864   0.02700   0.00000  Uiso   1.00
C276   C     0.49724   0.75135   0.47300   0.00000  Uiso   1.00
C277   C     0.40052   0.74907   0.23794   0.00000  Uiso   1.00
C278   C     0.59948   0.75093   0.26206   0.00000  Uiso   1.00
C279   C     0.34566   0.74028   0.23353   0.00000  Uiso   1.00
C280   C     0.65433   0.75971   0.26648   0.00000  Uiso   1.00
C281   C     0.53346   0.54865   0.28815   0.00000  Uiso   1.00
C282   C     0.46640   0.95131   0.21183   0.00000  Uiso   1.00
C283   C     0.53376   0.59501   0.28985   0.00000  Uiso   1.00
C284   C     0.49641   0.83581   0.25003   0.00000  Uiso   1.00
C285   C     0.46616   0.90496   0.21013   0.00000  Uiso   1.00
C286   C     0.51172   0.61665   0.24938   0.00000  Uiso   1.00
C287   C     0.48822   0.88334   0.25061   0.00000  Uiso   1.00
C288   C     0.50175   0.59255   0.20625   0.00000  Uiso   1.00
C289   C     0.49813   0.90745   0.29374   0.00000  Uiso   1.00
C290   C     0.50310   0.54638   0.20485   0.00000  Uiso   1.00
C291   C     0.49673   0.95361   0.29513   0.00000  Uiso   1.00
C292   C     0.50872   0.52389   0.24807   0.00000  Uiso   1.00
C293   C     0.49111   0.97609   0.25191   0.00000  Uiso   1.00
C294   C     0.64162   0.70783   0.15611   0.00000  Uiso   1.00
C295   C     0.47186   0.71724   0.04824   0.00000  Uiso   1.00
C296   C     0.35831   0.79212   0.34391   0.00000  Uiso   1.00
C297   C     0.52812   0.78277   0.45176   0.00000  Uiso   1.00
C298   C     0.47015   0.71853   0.09687   0.00000  Uiso   1.00
C299   C     0.52983   0.78148   0.40313   0.00000  Uiso   1.00
C300   C     0.53556   0.77789   0.10745   0.00000  Uiso   1.00
C301   C     0.46447   0.72208   0.39255   0.00000  Uiso   1.00
C302   C     0.54153   0.77381   0.05900   0.00000  Uiso   1.00
H303   H     0.55302   0.53240   0.31819   0.00000  Uiso   1.00
H304   H     0.33720   0.73079   0.14199   0.00000  Uiso   1.00
H305   H     0.65473   0.82605   0.28782   0.00000  Uiso   1.00
H306   H     0.39695   0.77809   0.35080   0.00000  Uiso   1.00
H307   H     0.66253   0.76941   0.35805   0.00000  Uiso   1.00
H308   H     0.36203   0.82497   0.36347   0.00000  Uiso   1.00
H309   H     0.44682   0.96756   0.18178   0.00000  Uiso   1.00
H310   H     0.49461   0.60950   0.17333   0.00000  Uiso   1.00
H311   H     0.50528   0.89049   0.32666   0.00000  Uiso   1.00
H312   H     0.45091   0.68947   0.02786   0.00000  Uiso   1.00
H313   H     0.54905   0.81054   0.47215   0.00000  Uiso   1.00
H314   H     0.34528   0.67394   0.21220   0.00000  Uiso   1.00
H315   H     0.60278   0.72154   0.14922   0.00000  Uiso   1.00
H316   H     0.63824   0.67500   0.13653   0.00000  Uiso   1.00
I317   I     0.57200   0.62822   0.35328   0.00000  Uiso   1.00
I318   I     0.37983   0.71474   0.45669   0.00000  Uiso   1.00
I319   I     0.42798   0.87173   0.14670   0.00000  Uiso   1.00
I320   I     0.51410   0.51866   0.13773   0.00000  Uiso   1.00
I321   I     0.48566   0.98134   0.36223   0.00000  Uiso   1.00
I322   I     0.42032   0.66845   0.12049   0.00000  Uiso   1.00
I323   I     0.57962   0.83161   0.37952   0.00000  Uiso   1.00
I324   I     0.58562   0.82720   0.15017   0.00000  Uiso   1.00
I325   I     0.41444   0.67275   0.34984   0.00000  Uiso   1.00
I326   I     0.62018   0.78524   0.04328   0.00000  Uiso   1.00
N327   N     0.50000   0.74999   0.12623   0.00000  Uiso   1.00
N328   N     0.50000   0.75001   0.37376   0.00000  Uiso   1.00
N329   N     0.65641   0.70135   0.20612   0.00000  Uiso   1.00
N330   N     0.34359   0.79863   0.29391   0.00000  Uiso   1.00
O331   O     0.50000   0.68453   0.28974   0.00000  Uiso   1.00
O332   O     0.50000   0.81546   0.21026   0.00000  Uiso   1.00
O333   O     0.50000   0.68453   0.21026   0.00000  Uiso   1.00
O334   O     0.50000   0.81547   0.28974   0.00000  Uiso   1.00
O335   O     0.42392   0.75000   0.28044   0.00000  Uiso   1.00
O336   O     0.57608   0.75000   0.21955   0.00000  Uiso   1.00
O337   O     0.42392   0.74999   0.20096   0.00000  Uiso   1.00
O338   O     0.57608   0.75000   0.29903   0.00000  Uiso   1.00
Zn339  Zn    0.50000   0.75000   0.30307   0.00000  Uiso   1.00
Zn340  Zn    0.50000   0.74999   0.19693   0.00000  Uiso   1.00
C341   C     0.83691   0.66419   0.24996   0.00000  Uiso   1.00
C342   C     0.79182   0.72617   0.44100   0.00000  Uiso   1.00
C343   C     0.83609   0.74864   0.02700   0.00000  Uiso   1.00
C344   C     0.83058   0.75135   0.47300   0.00000  Uiso   1.00
C345   C     0.73386   0.74907   0.23794   0.00000  Uiso   1.00
C346   C     0.93281   0.75093   0.26206   0.00000  Uiso   1.00
C347   C     0.67900   0.74028   0.23353   0.00000  Uiso   1.00
C348   C     0.98767   0.75971   0.26648   0.00000  Uiso   1.00
C349   C     0.86679   0.54865   0.28815   0.00000  Uiso   1.00
C350   C     0.79973   0.95131   0.21183   0.00000  Uiso   1.00
C351   C     0.86709   0.59501   0.28985   0.00000  Uiso   1.00
C352   C     0.82974   0.83581   0.25003   0.00000  Uiso   1.00
C353   C     0.79949   0.90496   0.21013   0.00000  Uiso   1.00
C354   C     0.84505   0.61665   0.24938   0.00000  Uiso   1.00
C355   C     0.82155   0.88334   0.25061   0.00000  Uiso   1.00
C356   C     0.83508   0.59255   0.20625   0.00000  Uiso   1.00
C357   C     0.83147   0.90745   0.29374   0.00000  Uiso   1.00
C358   C     0.83643   0.54638   0.20485   0.00000  Uiso   1.00
C359   C     0.83006   0.95361   0.29513   0.00000  Uiso   1.00
C360   C     0.84205   0.52389   0.24807   0.00000  Uiso   1.00
C361   C     0.82444   0.97609   0.25191   0.00000  Uiso   1.00
C362   C     0.97496   0.70783   0.15611   0.00000  Uiso   1.00
C363   C     0.80520   0.71724   0.04824   0.00000  Uiso   1.00
C364   C     0.69164   0.79212   0.34391   0.00000  Uiso   1.00
C365   C     0.86145   0.78277   0.45176   0.00000  Uiso   1.00
C366   C     0.80348   0.71853   0.09687   0.00000  Uiso   1.00
C367   C     0.86316   0.78148   0.40313   0.00000  Uiso   1.00
C368   C     0.86889   0.77789   0.10745   0.00000  Uiso   1.00
C369   C     0.79780   0.72208   0.39255   0.00000  Uiso   1.00
C370   C     0.87486   0.77381   0.05900   0.00000  Uiso   1.00
H371   H     0.88636   0.53240   0.31819   0.00000  Uiso   1.00
H372   H     0.67053   0.73079   0.14199   0.00000  Uiso   1.00
H373   H     0.98806   0.82605   0.28782   0.00000  Uiso   1.00
H374   H     0.73029   0.77809   0.35080   0.00000  Uiso   1.00
H375   H     0.99586   0.76941   0.35805   0.00000  Uiso   1.00
H376   H     0.69536   0.82497   0.36347   0.00000  Uiso   1.00
H377   H     0.78015   0.96756   0.18178   0.00000  Uiso   1.00
H378   H     0.82794   0.60950   0.17333   0.00000  Uiso   1.00
H379   H     0.83861   0.89049   0.32666   0.00000  Uiso   1.00
H380   H     0.78425   0.68947   0.02786   0.00000  Uiso   1.00
H381   H     0.88238   0.81054   0.47215   0.00000  Uiso   1.00
H382   H     0.67862   0.67394   0.21220   0.00000  Uiso   1.00
H383   H     0.93612   0.72154   0.14922   0.00000  Uiso   1.00
H384   H     0.97158   0.67500   0.13653   0.00000  Uiso   1.00
I385   I     0.90533   0.62822   0.35328   0.00000  Uiso   1.00
I386   I     0.71316   0.71474   0.45669   0.00000  Uiso   1.00
I387   I     0.76131   0.87173   0.14670   0.00000  Uiso   1.00
I388   I     0.84744   0.51866   0.13773   0.00000  Uiso   1.00
I389   I     0.81900   0.98134   0.36223   0.00000  Uiso   1.00
I390   I     0.75365   0.66845   0.12049   0.00000  Uiso   1.00
I391   I     0.91295   0.83161   0.37952   0.00000  Uiso   1.00
I392   I     0.91895   0.82720   0.15017   0.00000  Uiso   1.00
I393   I     0.74777   0.67275   0.34984   0.00000  Uiso   1.00
I394   I     0.95351   0.78524   0.04328   0.00000  Uiso   1.00
N395   N     0.83333   0.74999   0.12623   0.00000  Uiso   1.00
N396   N     0.83333   0.75001   0.37376   0.00000  Uiso   1.00
N397   N     0.98974   0.70135   0.20612   0.00000  Uiso   1.00
N398   N     0.67693   0.79863   0.29391   0.00000  Uiso   1.00
O399   O     0.83334   0.68453   0.28974   0.00000  Uiso   1.00
O400   O     0.83333   0.81546   0.21026   0.00000  Uiso   1.00
O401   O     0.83334   0.68453   0.21026   0.00000  Uiso   1.00
O402   O     0.83333   0.81547   0.28974   0.00000  Uiso   1.00
O403   O     0.75725   0.75000   0.28044   0.00000  Uiso   1.00
O404   O     0.90942   0.75000   0.21955   0.00000  Uiso   1.00
O405   O     0.75725   0.74999   0.20096   0.00000  Uiso   1.00
O406   O     0.90942   0.75000   0.29903   0.00000  Uiso   1.00
Zn407  Zn    0.83333   0.75000   0.30307   0.00000  Uiso   1.00
Zn408  Zn    0.83333   0.74999   0.19693   0.00000  Uiso   1.00
C409   C     0.17024   0.16419   0.74996   0.00000  Uiso   1.00
C410   C     0.12515   0.22617   0.94100   0.00000  Uiso   1.00
C411   C     0.16942   0.24864   0.52700   0.00000  Uiso   1.00
C412   C     0.16391   0.25135   0.97300   0.00000  Uiso   1.00
C413   C     0.06719   0.24907   0.73794   0.00000  Uiso   1.00
C414   C     0.26614   0.25093   0.76206   0.00000  Uiso   1.00
C415   C     0.01233   0.24028   0.73353   0.00000  Uiso   1.00
C416   C     0.32100   0.25971   0.76648   0.00000  Uiso   1.00
C417   C     0.20013   0.04865   0.78815   0.00000  Uiso   1.00
C418   C     0.13306   0.45131   0.71183   0.00000  Uiso   1.00
C419   C     0.20042   0.09501   0.78985   0.00000  Uiso   1.00
C420   C     0.16308   0.33581   0.75003   0.00000  Uiso   1.00
C421   C     0.13283   0.40496   0.71013   0.00000  Uiso   1.00
C422   C     0.17839   0.11665   0.74938   0.00000  Uiso   1.00
C423   C     0.15488   0.38334   0.75061   0.00000  Uiso   1.00
C424   C     0.16842   0.09255   0.70625   0.00000  Uiso   1.00
C425   C     0.16480   0.40745   0.79374   0.00000  Uiso   1.00
C426   C     0.16977   0.04638   0.70485   0.00000  Uiso   1.00
C427   C     0.16340   0.45361   0.79513   0.00000  Uiso   1.00
C428   C     0.17538   0.02389   0.74807   0.00000  Uiso   1.00
C429   C     0.15778   0.47609   0.75191   0.00000  Uiso   1.00
C430   C     0.30829   0.20783   0.65611   0.00000  Uiso   1.00
C431   C     0.13853   0.21724   0.54824   0.00000  Uiso   1.00
C432   C     0.02498   0.29212   0.84391   0.00000  Uiso   1.00
C433   C     0.19478   0.28277   0.95176   0.00000  Uiso   1.00
C434   C     0.13682   0.21853   0.59687   0.00000  Uiso   1.00
C435   C     0.19649   0.28148   0.90313   0.00000  Uiso   1.00
C436   C     0.20223   0.27789   0.60745   0.00000  Uiso   1.00
C437   C     0.13113   0.22208   0.89255   0.00000  Uiso   1.00
C438   C     0.20819   0.27381   0.55900   0.00000  Uiso   1.00
H439   H     0.21969   0.03240   0.81819   0.00000  Uiso   1.00
H440   H     0.00387   0.23079   0.64199   0.00000  Uiso   1.00
H441   H     0.32140   0.32605   0.78782   0.00000  Uiso   1.00
H442   H     0.06362   0.27809   0.85080   0.00000  Uiso   1.00
H443   H     0.32919   0.26941   0.85805   0.00000  Uiso   1.00
H444   H     0.02870   0.32497   0.86347   0.00000  Uiso   1.00
H445   H     0.11349   0.46756   0.68178   0.00000  Uiso   1.00
H446   H     0.16128   0.10950   0.67333   0.00000  Uiso   1.00
H447   H     0.17194   0.39049   0.82666   0.00000  Uiso   1.00
H448   H     0.11758   0.18947   0.52786   0.00000  Uiso   1.00
H449   H     0.21572   0.31054   0.97215   0.00000  Uiso   1.00
H450   H     0.01195   0.17394   0.71220   0.00000  Uiso   1.00
H451   H     0.26945   0.22154   0.64922   0.00000  Uiso   1.00
H452   H     0.30491   0.17500   0.63653   0.00000  Uiso   1.00
I453   I     0.23867   0.12822   0.85328   0.00000  Uiso   1.00
I454   I     0.04649   0.21474   0.95669   0.00000  Uiso   1.00
I455   I     0.09464   0.37173   0.64670   0.00000  Uiso   1.00
I456   I     0.18077   0.01866   0.63773   0.00000  Uiso   1.00
I457   I     0.15233   0.48134   0.86223   0.00000  Uiso   1.00
I458   I     0.08699   0.16845   0.62049   0.00000  Uiso   1.00
I459   I     0.24628   0.33161   0.87952   0.00000  Uiso   1.00
I460   I     0.25228   0.32720   0.65017   0.00000  Uiso   1.00
I461   I     0.08110   0.17275   0.84984   0.00000  Uiso   1.00
I462   I     0.28684   0.28524   0.54328   0.00000  Uiso   1.00
N463   N     0.16667   0.24999   0.62623   0.00000  Uiso   1.00
N464   N     0.16667   0.25001   0.87376   0.00000  Uiso   1.00
N465   N     0.32307   0.20135   0.70612   0.00000  Uiso   1.00
N466   N     0.01026   0.29863   0.79391   0.00000  Uiso   1.00
O467   O     0.16667   0.18453   0.78974   0.00000  Uiso   1.00
O468   O     0.16666   0.31546   0.71026   0.00000  Uiso   1.00
O469   O     0.16667   0.18453   0.71026   0.00000  Uiso   1.00
O470   O     0.16666   0.31547   0.78974   0.00000  Uiso   1.00
O471   O     0.09058   0.25000   0.78044   0.00000  Uiso   1.00
O472   O     0.24275   0.25000   0.71955   0.00000  Uiso   1.00
O473   O     0.09058   0.24999   0.70096   0.00000  Uiso   1.00
O474   O     0.24275   0.25000   0.79903   0.00000  Uiso   1.00
Zn475  Zn    0.16667   0.25000   0.80307   0.00000  Uiso   1.00
Zn476  Zn    0.16667   0.24999   0.69693   0.00000  Uiso   1.00
C477   C     0.50358   0.16419   0.74996   0.00000  Uiso   1.00
C478   C     0.45849   0.22617   0.94100   0.00000  Uiso   1.00
C479   C     0.50275   0.24864   0.52700   0.00000  Uiso   1.00
C480   C     0.49724   0.25135   0.97300   0.00000  Uiso   1.00
C481   C     0.40052   0.24907   0.73794   0.00000  Uiso   1.00
C482   C     0.59948   0.25093   0.76206   0.00000  Uiso   1.00
C483   C     0.34566   0.24028   0.73353   0.00000  Uiso   1.00
C484   C     0.65433   0.25971   0.76648   0.00000  Uiso   1.00
C485   C     0.53346   0.04865   0.78815   0.00000  Uiso   1.00
C486   C     0.46640   0.45131   0.71183   0.00000  Uiso   1.00
C487   C     0.53376   0.09501   0.78985   0.00000  Uiso   1.00
C488   C     0.49641   0.33581   0.75003   0.00000  Uiso   1.00
C489   C     0.46616   0.40496   0.71013   0.00000  Uiso   1.00
C490   C     0.51172   0.11665   0.74938   0.00000  Uiso   1.00
C491   C     0.48822   0.38334   0.75061   0.00000  Uiso   1.00
C492   C     0.50175   0.09255   0.70625   0.00000  Uiso   1.00
C493   C     0.49813   0.40745   0.79374   0.00000  Uiso   1.00
C494   C     0.50310   0.04638   0.70485   0.00000  Uiso   1.00
C495   C     0.49673   0.45361   0.79513   0.00000  Uiso   1.00
C496   C     0.50872   0.02389   0.74807   0.00000  Uiso   1.00
C497   C     0.49111   0.47609   0.75191   0.00000  Uiso   1.00
C498   C     0.64162   0.20783   0.65611   0.00000  Uiso   1.00
C499   C     0.47186   0.21724   0.54824   0.00000  Uiso   1.00
C500   C     0.35831   0.29212   0.84391   0.00000  Uiso   1.00
C501   C     0.52812   0.28277   0.95176   0.00000  Uiso   1.00
C502   C     0.47015   0.21853   0.59687   0.00000  Uiso   1.00
C503   C     0.52983   0.28148   0.90313   0.00000  Uiso   1.00
C504   C     0.53556   0.27789   0.60745   0.00000  Uiso   1.00
C505   C     0.46447   0.22208   0.89255   0.00000  Uiso   1.00
C506   C     0.54153   0.27381   0.55900   0.00000  Uiso   1.00
H507   H     0.55302   0.03240   0.81819   0.00000  Uiso   1.00
H508   H     0.33720   0.23079   0.64199   0.00000  Uiso   1.00
H509   H     0.65473   0.32605   0.78782   0.00000  Uiso   1.00
H510   H     0.39695   0.27809   0.85080   0.00000  Uiso   1.00
H511   H     0.66253   0.26941   0.85805   0.00000  Uiso   1.00
H512   H     0.36203   0.32497   0.86347   0.00000  Uiso   1.00
H513   H     0.44682   0.46756   0.68178   0.00000  Uiso   1.00
H514   H     0.49461   0.10950   0.67333   0.00000  Uiso   1.00
H515   H     0.50528   0.39049   0.82666   0.00000  Uiso   1.00
H516   H     0.45091   0.18947   0.52786   0.00000  Uiso   1.00
H517   H     0.54905   0.31054   0.97215   0.00000  Uiso   1.00
H518   H     0.34528   0.17394   0.71220   0.00000  Uiso   1.00
H519   H     0.60278   0.22154   0.64922   0.00000  Uiso   1.00
H520   H     0.63824   0.17500   0.63653   0.00000  Uiso   1.00
I521   I     0.57200   0.12822   0.85328   0.00000  Uiso   1.00
I522   I     0.37983   0.21474   0.95669   0.00000  Uiso   1.00
I523   I     0.42798   0.37173   0.64670   0.00000  Uiso   1.00
I524   I     0.51410   0.01866   0.63773   0.00000  Uiso   1.00
I525   I     0.48566   0.48134   0.86223   0.00000  Uiso   1.00
I526   I     0.42032   0.16845   0.62049   0.00000  Uiso   1.00
I527   I     0.57962   0.33161   0.87952   0.00000  Uiso   1.00
I528   I     0.58562   0.32720   0.65017   0.00000  Uiso   1.00
I529   I     0.41444   0.17275   0.84984   0.00000  Uiso   1.00
I530   I     0.62018   0.28524   0.54328   0.00000  Uiso   1.00
N531   N     0.50000   0.24999   0.62623   0.00000  Uiso   1.00
N532   N     0.50000   0.25001   0.87376   0.00000  Uiso   1.00
N533   N     0.65641   0.20135   0.70612   0.00000  Uiso   1.00
N534   N     0.34359   0.29863   0.79391   0.00000  Uiso   1.00
O535   O     0.50000   0.18453   0.78974   0.00000  Uiso   1.00
O536   O     0.50000   0.31546   0.71026   0.00000  Uiso   1.00
O537   O     0.50000   0.18453   0.71026   0.00000  Uiso   1.00
O538   O     0.50000   0.31547   0.78974   0.00000  Uiso   1.00
O539   O     0.42392   0.25000   0.78044   0.00000  Uiso   1.00
O540   O     0.57608   0.25000   0.71955   0.00000  Uiso   1.00
O541   O     0.42392   0.24999   0.70096   0.00000  Uiso   1.00
O542   O     0.57608   0.25000   0.79903   0.00000  Uiso   1.00
Zn543  Zn    0.50000   0.25000   0.80307   0.00000  Uiso   1.00
Zn544  Zn    0.50000   0.24999   0.69693   0.00000  Uiso   1.00
C545   C     0.83691   0.16419   0.74996   0.00000  Uiso   1.00
C546   C     0.79182   0.22617   0.94100   0.00000  Uiso   1.00
C547   C     0.83609   0.24864   0.52700   0.00000  Uiso   1.00
C548   C     0.83058   0.25135   0.97300   0.00000  Uiso   1.00
C549   C     0.73386   0.24907   0.73794   0.00000  Uiso   1.00
C550   C     0.93281   0.25093   0.76206   0.00000  Uiso   1.00
C551   C     0.67900   0.24028   0.73353   0.00000  Uiso   1.00
C552   C     0.98767   0.25971   0.76648   0.00000  Uiso   1.00
C553   C     0.86679   0.04865   0.78815   0.00000  Uiso   1.00
C554   C     0.79973   0.45131   0.71183   0.00000  Uiso   1.00
C555   C     0.86709   0.09501   0.78985   0.00000  Uiso   1.00
C556   C     0.82974   0.33581   0.75003   0.00000  Uiso   1.00
C557   C     0.79949   0.40496   0.71013   0.00000  Uiso   1.00
C558   C     0.84505   0.11665   0.74938   0.00000  Uiso   1.00
C559   C     0.82155   0.38334   0.75061   0.00000  Uiso   1.00
C560   C     0.83508   0.09255   0.70625   0.00000  Uiso   1.00
C561   C     0.83147   0.40745   0.79374   0.00000  Uiso   1.00
C562   C     0.83643   0.04638   0.70485   0.00000  Uiso   1.00
C563   C     0.83006   0.45361   0.79513   0.00000  Uiso   1.00
C564   C     0.84205   0.02389   0.74807   0.00000  Uiso   1.00
C565   C     0.82444   0.47609   0.75191   0.00000  Uiso   1.00
C566   C     0.97496   0.20783   0.65611   0.00000  Uiso   1.00
C567   C     0.80520   0.21724   0.54824   0.00000  Uiso   1.00
C568   C     0.69164   0.29212   0.84391   0.00000  Uiso   1.00
C569   C     0.86145   0.28277   0.95176   0.00000  Uiso   1.00
C570   C     0.80348   0.21853   0.59687   0.00000  Uiso   1.00
C571   C     0.86316   0.28148   0.90313   0.00000  Uiso   1.00
C572   C     0.86889   0.27789   0.60745   0.00000  Uiso   1.00
C573   C     0.79780   0.22208   0.89255   0.00000  Uiso   1.00
C574   C     0.87486   0.27381   0.55900   0.00000  Uiso   1.00
H575   H     0.88636   0.03240   0.81819   0.00000  Uiso   1.00
H576   H     0.67053   0.23079   0.64199   0.00000  Uiso   1.00
H577   H     0.98806   0.32605   0.78782   0.00000  Uiso   1.00
H578   H     0.73029   0.27809   0.85080   0.00000  Uiso   1.00
H579   H     0.99586   0.26941   0.85805   0.00000  Uiso   1.00
H580   H     0.69536   0.32497   0.86347   0.00000  Uiso   1.00
H581   H     0.78015   0.46756   0.68178   0.00000  Uiso   1.00
H582   H     0.82794   0.10950   0.67333   0.00000  Uiso   1.00
H583   H     0.83861   0.39049   0.82666   0.00000  Uiso   1.00
H584   H     0.78425   0.18947   0.52786   0.00000  Uiso   1.00
H585   H     0.88238   0.31054   0.97215   0.00000  Uiso   1.00
H586   H     0.67862   0.17394   0.71220   0.00000  Uiso   1.00
H587   H     0.93612   0.22154   0.64922   0.00000  Uiso   1.00
H588   H     0.97158   0.17500   0.63653   0.00000  Uiso   1.00
I589   I     0.90533   0.12822   0.85328   0.00000  Uiso   1.00
I590   I     0.71316   0.21474   0.95669   0.00000  Uiso   1.00
I591   I     0.76131   0.37173   0.64670   0.00000  Uiso   1.00
I592   I     0.84744   0.01866   0.63773   0.00000  Uiso   1.00
I593   I     0.81900   0.48134   0.86223   0.00000  Uiso   1.00
I594   I     0.75365   0.16845   0.62049   0.00000  Uiso   1.00
I595   I     0.91295   0.33161   0.87952   0.00000  Uiso   1.00
I596   I     0.91895   0.32720   0.65017   0.00000  Uiso   1.00
I597   I     0.74777   0.17275   0.84984   0.00000  Uiso   1.00
I598   I     0.95351   0.28524   0.54328   0.00000  Uiso   1.00
N599   N     0.83333   0.24999   0.62623   0.00000  Uiso   1.00
N600   N     0.83333   0.25001   0.87376   0.00000  Uiso   1.00
N601   N     0.98974   0.20135   0.70612   0.00000  Uiso   1.00
N602   N     0.67693   0.29863   0.79391   0.00000  Uiso   1.00
O603   O     0.83334   0.18453   0.78974   0.00000  Uiso   1.00
O604   O     0.83333   0.31546   0.71026   0.00000  Uiso   1.00
O605   O     0.83334   0.18453   0.71026   0.00000  Uiso   1.00
O606   O     0.83333   0.31547   0.78974   0.00000  Uiso   1.00
O607   O     0.75725   0.25000   0.78044   0.00000  Uiso   1.00
O608   O     0.90942   0.25000   0.71955   0.00000  Uiso   1.00
O609   O     0.75725   0.24999   0.70096   0.00000  Uiso   1.00
O610   O     0.90942   0.25000   0.79903   0.00000  Uiso   1.00
Zn611  Zn    0.83333   0.25000   0.80307   0.00000  Uiso   1.00
Zn612  Zn    0.83333   0.24999   0.69693   0.00000  Uiso   1.00
C613   C     0.17024   0.66419   0.74996   0.00000  Uiso   1.00
C614   C     0.12515   0.72617   0.94100   0.00000  Uiso   1.00
C615   C     0.16942   0.74864   0.52700   0.00000  Uiso   1.00
C616   C     0.16391   0.75135   0.97300   0.00000  Uiso   1.00
C617   C     0.06719   0.74907   0.73794   0.00000  Uiso   1.00
C618   C     0.26614   0.75093   0.76206   0.00000  Uiso   1.00
C619   C     0.01233   0.74028   0.73353   0.00000  Uiso   1.00
C620   C     0.32100   0.75971   0.76648   0.00000  Uiso   1.00
C621   C     0.20013   0.54865   0.78815   0.00000  Uiso   1.00
C622   C     0.13306   0.95131   0.71183   0.00000  Uiso   1.00
C623   C     0.20042   0.59501   0.78985   0.00000  Uiso   1.00
C624   C     0.16308   0.83581   0.75003   0.00000  Uiso   1.00
C625   C     0.13283   0.90496   0.71013   0.00000  Uiso   1.00
C626   C     0.17839   0.61665   0.74938   0.00000  Uiso   1.00
C627   C     0.15488   0.88334   0.75061   0.00000  Uiso   1.00
C628   C     0.16842   0.59255   0.70625   0.00000  Uiso   1.00
C629   C     0.16480   0.90745   0.79374   0.00000  Uiso   1.00
C630   C     0.16977   0.54638   0.70485   0.00000  Uiso   1.00
C631   C     0.16340   0.95361   0.79513   0.00000  Uiso   1.00
C632   C     0.17538   0.52389   0.74807   0.00000  Uiso   1.00
C633   C     0.15778   0.97609   0.75191   0.00000  Uiso   1.00
C634   C     0.30829   0.70783   0.65611   0.00000  Uiso   1.00
C635   C     0.13853   0.71724   0.54824   0.00000  Uiso   1.00
C636   C     0.02498   0.79212   0.84391   0.00000  Uiso   1.00
C637   C     0.19478   0.78277   0.95176   0.00000  Uiso   1.00
C638   C     0.13682   0.71853   0.59687   0.00000  Uiso   1.00
C639   C     0.19649   0.78148   0.90313   0.00000  Uiso   1.00
C640   C     0.20223   0.77789   0.60745   0.00000  Uiso   1.00
C641   C     0.13113   0.72208   0.89255   0.00000  Uiso   1.00
C642   C     0.20819   0.77381   0.55900   0.00000  Uiso   1.00
H643   H     0.21969   0.53240   0.81819   0.00000  Uiso   1.00
H644   H     0.00387   0.73079   0.64199   0.00000  Uiso   1.00
H645   H     0.32140   0.82605   0.78782   0.00000  Uiso   1.00
H646   H     0.06362   0.77809   0.85080   0.00000  Uiso   1.00
H647   H     0.32919   0.76941   0.85805   0.00000  Uiso   1.00
H648   H     0.02870   0.82497   0.86347   0.00000  Uiso   1.00
H649   H     0.11349   0.96756   0.68178   0.00000  Uiso   1.00
H650   H     0.16128   0.60950   0.67333   0.00000  Uiso   1.00
H651   H     0.17194   0.89049   0.82666   0.00000  Uiso   1.00
H652   H     0.11758   0.68947   0.52786   0.00000  Uiso   1.00
H653   H     0.21572   0.81054   0.97215   0.00000  Uiso   1.00
H654   H     0.01195   0.67394   0.71220   0.00000  Uiso   1.00
H655   H     0.26945   0.72154   0.64922   0.00000  Uiso   1.00
H656   H     0.30491   0.67500   0.63653   0.00000  Uiso   1.00
I657   I     0.23867   0.62822   0.85328   0.00000  Uiso   1.00
I658   I     0.04649   0.71474   0.95669   0.00000  Uiso   1.00
I659   I     0.09464   0.87173   0.64670   0.00000  Uiso   1.00
I660   I     0.18077   0.51866   0.63773   0.00000  Uiso   1.00
I661   I     0.15233   0.98134   0.86223   0.00000  Uiso   1.00
I662   I     0.08699   0.66845   0.62049   0.00000  Uiso   1.00
I663   I     0.24628   0.83161   0.87952   0.00000  Uiso   1.00
I664   I     0.25228   0.82720   0.65017   0.00000  Uiso   1.00
I665   I     0.08110   0.67275   0.84984   0.00000  Uiso   1.00
I666   I     0.28684   0.78524   0.54328   0.00000  Uiso   1.00
N667   N     0.16667   0.74999   0.62623   0.00000  Uiso   1.00
N668   N     0.16667   0.75001   0.87376   0.00000  Uiso   1.00
N669   N     0.32307   0.70135   0.70612   0.00000  Uiso   1.00
N670   N     0.01026   0.79863   0.79391   0.00000  Uiso   1.00
O671   O     0.16667   0.68453   0.78974   0.00000  Uiso   1.00
O672   O     0.16666   0.81546   0.71026   0.00000  Uiso   1.00
O673   O     0.16667   0.68453   0.71026   0.00000  Uiso   1.00
O674   O     0.16666   0.81547   0.78974   0.00000  Uiso   1.00
O675   O     0.09058   0.75000   0.78044   0.00000  Uiso   1.00
O676   O     0.24275   0.75000   0.71955   0.00000  Uiso   1.00
O677   O     0.09058   0.74999   0.70096   0.00000  Uiso   1.00
O678   O     0.24275   0.75000   0.79903   0.00000  Uiso   1.00
Zn679  Zn    0.16667   0.75000   0.80307   0.00000  Uiso   1.00
Zn680  Zn    0.16667   0.74999   0.69693   0.00000  Uiso   1.00
C681   C     0.50358   0.66419   0.74996   0.00000  Uiso   1.00
C682   C     0.45849   0.72617   0.94100   0.00000  Uiso   1.00
C683   C     0.50275   0.74864   0.52700   0.00000  Uiso   1.00
C684   C     0.49724   0.75135   0.97300   0.00000  Uiso   1.00
C685   C     0.40052   0.74907   0.73794   0.00000  Uiso   1.00
C686   C     0.59948   0.75093   0.76206   0.00000  Uiso   1.00
C687   C     0.34566   0.74028   0.73353   0.00000  Uiso   1.00
C688   C     0.65433   0.75971   0.76648   0.00000  Uiso   1.00
C689   C     0.53346   0.54865   0.78815   0.00000  Uiso   1.00
C690   C     0.46640   0.95131   0.71183   0.00000  Uiso   1.00
C691   C     0.53376   0.59501   0.78985   0.00000  Uiso   1.00
C692   C     0.49641   0.83581   0.75003   0.00000  Uiso   1.00
C693   C     0.46616   0.90496   0.71013   0.00000  Uiso   1.00
C694   C     0.51172   0.61665   0.74938   0.00000  Uiso   1.00
C695   C     0.48822   0.88334   0.75061   0.00000  Uiso   1.00
C696   C     0.50175   0.59255   0.70625   0.00000  Uiso   1.00
C697   C     0.49813   0.90745   0.79374   0.00000  Uiso   1.00
C698   C     0.50310   0.54638   0.70485   0.00000  Uiso   1.00
C699   C     0.49673   0.95361   0.79513   0.00000  Uiso   1.00
C700   C     0.50872   0.52389   0.74807   0.00000  Uiso   1.00
C701   C     0.49111   0.97609   0.75191   0.00000  Uiso   1.00
C702   C     0.64162   0.70783   0.65611   0.00000  Uiso   1.00
C703   C     0.47186   0.71724   0.54824   0.00000  Uiso   1.00
C704   C     0.35831   0.79212   0.84391   0.00000  Uiso   1.00
C705   C     0.52812   0.78277   0.95176   0.00000  Uiso   1.00
C706   C     0.47015   0.71853   0.59687   0.00000  Uiso   1.00
C707   C     0.52983   0.78148   0.90313   0.00000  Uiso   1.00
C708   C     0.53556   0.77789   0.60745   0.00000  Uiso   1.00
C709   C     0.46447   0.72208   0.89255   0.00000  Uiso   1.00
C710   C     0.54153   0.77381   0.55900   0.00000  Uiso   1.00
H711   H     0.55302   0.53240   0.81819   0.00000  Uiso   1.00
H712   H     0.33720   0.73079   0.64199   0.00000  Uiso   1.00
H713   H     0.65473   0.82605   0.78782   0.00000  Uiso   1.00
H714   H     0.39695   0.77809   0.85080   0.00000  Uiso   1.00
H715   H     0.66253   0.76941   0.85805   0.00000  Uiso   1.00
H716   H     0.36203   0.82497   0.86347   0.00000  Uiso   1.00
H717   H     0.44682   0.96756   0.68178   0.00000  Uiso   1.00
H718   H     0.49461   0.60950   0.67333   0.00000  Uiso   1.00
H719   H     0.50528   0.89049   0.82666   0.00000  Uiso   1.00
H720   H     0.45091   0.68947   0.52786   0.00000  Uiso   1.00
H721   H     0.54905   0.81054   0.97215   0.00000  Uiso   1.00
H722   H     0.34528   0.67394   0.71220   0.00000  Uiso   1.00
H723   H     0.60278   0.72154   0.64922   0.00000  Uiso   1.00
H724   H     0.63824   0.67500   0.63653   0.00000  Uiso   1.00
I725   I     0.57200   0.62822   0.85328   0.00000  Uiso   1.00
I726   I     0.37983   0.71474   0.95669   0.00000  Uiso   1.00
I727   I     0.42798   0.87173   0.64670   0.00000  Uiso   1.00
I728   I     0.51410   0.51866   0.63773   0.00000  Uiso   1.00
I729   I     0.48566   0.98134   0.86223   0.00000  Uiso   1.00
I730   I     0.42032   0.66845   0.62049   0.00000  Uiso   1.00
I731   I     0.57962   0.83161   0.87952   0.00000  Uiso   1.00
I732   I     0.58562   0.82720   0.65017   0.00000  Uiso   1.00
I733   I     0.41444   0.67275   0.84984   0.00000  Uiso   1.00
I734   I     0.62018   0.78524   0.54328   0.00000  Uiso   1.00
N735   N     0.50000   0.74999   0.62623   0.00000  Uiso   1.00
N736   N     0.50000   0.75001   0.87376   0.00000  Uiso   1.00
N737   N     0.65641   0.70135   0.70612   0.00000  Uiso   1.00
N738   N     0.34359   0.79863   0.79391   0.00000  Uiso   1.00
O739   O     0.50000   0.68453   0.78974   0.00000  Uiso   1.00
O740   O     0.50000   0.81546   0.71026   0.00000  Uiso   1.00
O741   O     0.50000   0.68453   0.71026   0.00000  Uiso   1.00
O742   O     0.50000   0.81547   0.78974   0.00000  Uiso   1.00
O743   O     0.42392   0.75000   0.78044   0.00000  Uiso   1.00
O744   O     0.57608   0.75000   0.71955   0.00000  Uiso   1.00
O745   O     0.42392   0.74999   0.70096   0.00000  Uiso   1.00
O746   O     0.57608   0.75000   0.79903   0.00000  Uiso   1.00
Zn747  Zn    0.50000   0.75000   0.80307   0.00000  Uiso   1.00
Zn748  Zn    0.50000   0.74999   0.69693   0.00000  Uiso   1.00
C749   C     0.83691   0.66419   0.74996   0.00000  Uiso   1.00
C750   C     0.79182   0.72617   0.94100   0.00000  Uiso   1.00
C751   C     0.83609   0.74864   0.52700   0.00000  Uiso   1.00
C752   C     0.83058   0.75135   0.97300   0.00000  Uiso   1.00
C753   C     0.73386   0.74907   0.73794   0.00000  Uiso   1.00
C754   C     0.93281   0.75093   0.76206   0.00000  Uiso   1.00
C755   C     0.67900   0.74028   0.73353   0.00000  Uiso   1.00
C756   C     0.98767   0.75971   0.76648   0.00000  Uiso   1.00
C757   C     0.86679   0.54865   0.78815   0.00000  Uiso   1.00
C758   C     0.79973   0.95131   0.71183   0.00000  Uiso   1.00
C759   C     0.86709   0.59501   0.78985   0.00000  Uiso   1.00
C760   C     0.82974   0.83581   0.75003   0.00000  Uiso   1.00
C761   C     0.79949   0.90496   0.71013   0.00000  Uiso   1.00
C762   C     0.84505   0.61665   0.74938   0.00000  Uiso   1.00
C763   C     0.82155   0.88334   0.75061   0.00000  Uiso   1.00
C764   C     0.83508   0.59255   0.70625   0.00000  Uiso   1.00
C765   C     0.83147   0.90745   0.79374   0.00000  Uiso   1.00
C766   C     0.83643   0.54638   0.70485   0.00000  Uiso   1.00
C767   C     0.83006   0.95361   0.79513   0.00000  Uiso   1.00
C768   C     0.84205   0.52389   0.74807   0.00000  Uiso   1.00
C769   C     0.82444   0.97609   0.75191   0.00000  Uiso   1.00
C770   C     0.97496   0.70783   0.65611   0.00000  Uiso   1.00
C771   C     0.80520   0.71724   0.54824   0.00000  Uiso   1.00
C772   C     0.69164   0.79212   0.84391   0.00000  Uiso   1.00
C773   C     0.86145   0.78277   0.95176   0.00000  Uiso   1.00
C774   C     0.80348   0.71853   0.59687   0.00000  Uiso   1.00
C775   C     0.86316   0.78148   0.90313   0.00000  Uiso   1.00
C776   C     0.86889   0.77789   0.60745   0.00000  Uiso   1.00
C777   C     0.79780   0.72208   0.89255   0.00000  Uiso   1.00
C778   C     0.87486   0.77381   0.55900   0.00000  Uiso   1.00
H779   H     0.88636   0.53240   0.81819   0.00000  Uiso   1.00
H780   H     0.67053   0.73079   0.64199   0.00000  Uiso   1.00
H781   H     0.98806   0.82605   0.78782   0.00000  Uiso   1.00
H782   H     0.73029   0.77809   0.85080   0.00000  Uiso   1.00
H783   H     0.99586   0.76941   0.85805   0.00000  Uiso   1.00
H784   H     0.69536   0.82497   0.86347   0.00000  Uiso   1.00
H785   H     0.78015   0.96756   0.68178   0.00000  Uiso   1.00
H786   H     0.82794   0.60950   0.67333   0.00000  Uiso   1.00
H787   H     0.83861   0.89049   0.82666   0.00000  Uiso   1.00
H788   H     0.78425   0.68947   0.52786   0.00000  Uiso   1.00
H789   H     0.88238   0.81054   0.97215   0.00000  Uiso   1.00
H790   H     0.67862   0.67394   0.71220   0.00000  Uiso   1.00
H791   H     0.93612   0.72154   0.64922   0.00000  Uiso   1.00
H792   H     0.97158   0.67500   0.63653   0.00000  Uiso   1.00
I793   I     0.90533   0.62822   0.85328   0.00000  Uiso   1.00
I794   I     0.71316   0.71474   0.95669   0.00000  Uiso   1.00
I795   I     0.76131   0.87173   0.64670   0.00000  Uiso   1.00
I796   I     0.84744   0.51866   0.63773   0.00000  Uiso   1.00
I797   I     0.81900   0.98134   0.86223   0.00000  Uiso   1.00
I798   I     0.75365   0.66845   0.62049   0.00000  Uiso   1.00
I799   I     0.91295   0.83161   0.87952   0.00000  Uiso   1.00
I800   I     0.91895   0.82720   0.65017   0.00000  Uiso   1.00
I801   I     0.74777   0.67275   0.84984   0.00000  Uiso   1.00
I802   I     0.95351   0.78524   0.54328   0.00000  Uiso   1.00
N803   N     0.83333   0.74999   0.62623   0.00000  Uiso   1.00
N804   N     0.83333   0.75001   0.87376   0.00000  Uiso   1.00
N805   N     0.98974   0.70135   0.70612   0.00000  Uiso   1.00
N806   N     0.67693   0.79863   0.79391   0.00000  Uiso   1.00
O807   O     0.83334   0.68453   0.78974   0.00000  Uiso   1.00
O808   O     0.83333   0.81546   0.71026   0.00000  Uiso   1.00
O809   O     0.83334   0.68453   0.71026   0.00000  Uiso   1.00
O810   O     0.83333   0.81547   0.78974   0.00000  Uiso   1.00
O811   O     0.75725   0.75000   0.78044   0.00000  Uiso   1.00
O812   O     0.90942   0.75000   0.71955   0.00000  Uiso   1.00
O813   O     0.75725   0.74999   0.70096   0.00000  Uiso   1.00
O814   O     0.90942   0.75000   0.79903   0.00000  Uiso   1.00
Zn815  Zn    0.83333   0.75000   0.80307   0.00000  Uiso   1.00
Zn816  Zn    0.83333   0.74999   0.69693   0.00000  Uiso   1.00
loop_
_geom_bond_atom_site_label_1
_geom_bond_atom_site_label_2
_geom_bond_distance
_geom_bond_site_symmetry_2
_ccdc_geom_bond_type
C1     O59     1.296   .     A
C1     C14     1.448   .     S
C1     O61     1.297   .     A
C2     C4      1.423   .     A
C2     I46     2.156   .     S
C2     C29     1.422   .     A
C3     C30     1.423   .     A
C3     C23     1.403   .     A
C3     C412    1.538   1_554 S
C4     C25     1.403   .     A
C4     C411    1.538   .     S
C5     C7      1.415   .     S
C5     O63     1.279   .     A
C5     O65     1.294   .     A
C6     O66     1.294   .     A
C6     O64     1.279   .     A
C6     C8      1.415   .     S
C7     C144    1.351   1_455 S
C7     N193    1.433   1_455 S
C8     C75     1.351   .     S
C8     N126    1.433   .     S
C9     C20     1.403   .     A
C9     C11     1.384   .     A
C9     H31     1.076   .     S
C10    C21     1.403   .     A
C10    H37     1.076   .     S
C10    C13     1.384   .     A
C11    C14     1.406   .     A
C11    I45     2.132   .     S
C12    O62     1.297   .     A
C12    C15     1.448   .     S
C12    O60     1.296   .     A
C13    C15     1.406   .     A
C13    I47     2.132   .     S
C14    C16     1.398   .     A
C15    C17     1.398   .     A
C16    C18     1.382   .     A
C16    H38     1.079   .     S
C17    C19     1.382   .     A
C17    H39     1.079   .     S
C18    C20     1.417   .     A
C18    I48     2.139   .     S
C19    I49     2.139   .     S
C19    C21     1.417   .     A
C20    C225    1.485   1_545 S
C21    C224    1.485   .     S
C22    H43     1.101   .     S
C22    N57     1.450   .     S
C22    H44     1.111   .     S
C22    H100    1.111   .     S
C23    C26     1.400   .     A
C23    H40     1.075   .     S
C24    H36     1.111   .     S
C24    N58     1.450   .     S
C24    H34     1.100   .     S
C24    H171    1.110   1_455 S
C25    C27     1.400   .     A
C25    H41     1.075   .     S
C26    N55     1.370   .     A
C26    I50     2.105   .     S
C27    I51     2.105   .     S
C27    N56     1.370   .     A
C28    I52     2.139   .     S
C28    C30     1.422   .     A
C28    N55     1.380   .     A
C29    N56     1.380   .     A
C29    I53     2.139   .     S
C30    I54     2.156   .     S
H32    C158    1.111   1_455 S
H33    N126    1.032   .     S
H35    C92     1.110   .     S
H42    N193    1.032   1_455 S
N55    Zn68    2.026   .     S
N56    Zn67    2.026   .     S
N57    H110    1.032   .     S
N57    C75     1.433   .     S
N58    C144    1.433   1_455 S
N58    H169    1.032   1_455 S
O59    Zn67    1.984   .     S
O60    Zn68    1.984   .     S
O61    Zn68    2.002   .     S
O62    Zn67    2.002   .     S
O63    Zn67    1.982   .     S
O64    Zn68    1.982   .     S
O65    Zn68    1.988   .     S
O66    Zn67    1.988   .     S
C69    O127    1.296   .     A
C69    C82     1.448   .     S
C69    O129    1.297   .     A
C70    C72     1.423   .     A
C70    I114    2.156   .     S
C70    C97     1.422   .     A
C71    C98     1.423   .     A
C71    C91     1.403   .     A
C71    C480    1.538   1_554 S
C72    C93     1.403   .     A
C72    C479    1.538   .     S
C73    C75     1.415   .     S
C73    O131    1.279   .     A
C73    O133    1.294   .     A
C74    O134    1.294   .     A
C74    O132    1.279   .     A
C74    C76     1.415   .     S
C76    C143    1.351   .     S
C76    N194    1.433   .     S
C77    C88     1.403   .     A
C77    C79     1.384   .     A
C77    H99     1.076   .     S
C78    C89     1.403   .     A
C78    H105    1.076   .     S
C78    C81     1.384   .     A
C79    C82     1.406   .     A
C79    I113    2.132   .     S
C80    O130    1.297   .     A
C80    C83     1.448   .     S
C80    O128    1.296   .     A
C81    C83     1.406   .     A
C81    I115    2.132   .     S
C82    C84     1.398   .     A
C83    C85     1.398   .     A
C84    C86     1.382   .     A
C84    H106    1.079   .     S
C85    C87     1.382   .     A
C85    H107    1.079   .     S
C86    C88     1.417   .     A
C86    I116    2.139   .     S
C87    I117    2.139   .     S
C87    C89     1.417   .     A
C88    C293    1.485   1_545 S
C89    C292    1.485   .     S
C90    H111    1.101   .     S
C90    N125    1.450   .     S
C90    H112    1.111   .     S
C90    H168    1.111   .     S
C91    C94     1.400   .     A
C91    H108    1.075   .     S
C92    H104    1.111   .     S
C92    N126    1.450   .     S
C92    H102    1.100   .     S
C93    C95     1.400   .     A
C93    H109    1.075   .     S
C94    N123    1.370   .     A
C94    I118    2.105   .     S
C95    I119    2.105   .     S
C95    N124    1.370   .     A
C96    I120    2.139   .     S
C96    C98     1.422   .     A
C96    N123    1.380   .     A
C97    N124    1.380   .     A
C97    I121    2.139   .     S
C98    I122    2.156   .     S
H101   N194    1.032   .     S
H103   C160    1.110   .     S
N123   Zn136   2.026   .     S
N124   Zn135   2.026   .     S
N125   H178    1.032   .     S
N125   C143    1.433   .     S
O127   Zn135   1.984   .     S
O128   Zn136   1.984   .     S
O129   Zn136   2.002   .     S
O130   Zn135   2.002   .     S
O131   Zn135   1.982   .     S
O132   Zn136   1.982   .     S
O133   Zn136   1.988   .     S
O134   Zn135   1.988   .     S
C137   O195    1.296   .     A
C137   C150    1.448   .     S
C137   O197    1.297   .     A
C138   C140    1.423   .     A
C138   I182    2.156   .     S
C138   C165    1.422   .     A
C139   C166    1.423   .     A
C139   C159    1.403   .     A
C139   C548    1.538   1_554 S
C140   C161    1.403   .     A
C140   C547    1.538   .     S
C141   C143    1.415   .     S
C141   O199    1.279   .     A
C141   O201    1.294   .     A
C142   O202    1.294   .     A
C142   O200    1.279   .     A
C142   C144    1.415   .     S
C144   C7      1.351   1_655 S
C144   N58     1.433   1_655 S
C145   C156    1.403   .     A
C145   C147    1.384   .     A
C145   H167    1.076   .     S
C146   C157    1.403   .     A
C146   H173    1.076   .     S
C146   C149    1.384   .     A
C147   C150    1.406   .     A
C147   I181    2.132   .     S
C148   O198    1.297   .     A
C148   C151    1.448   .     S
C148   O196    1.296   .     A
C149   C151    1.406   .     A
C149   I183    2.132   .     S
C150   C152    1.398   .     A
C151   C153    1.398   .     A
C152   C154    1.382   .     A
C152   H174    1.079   .     S
C153   C155    1.382   .     A
C153   H175    1.079   .     S
C154   C156    1.417   .     A
C154   I184    2.139   .     S
C155   I185    2.139   .     S
C155   C157    1.417   .     A
C156   C361    1.485   1_545 S
C157   C360    1.485   .     S
C158   H179    1.101   .     S
C158   N193    1.450   .     S
C158   H180    1.111   .     S
C158   H32     1.111   1_655 S
C159   C162    1.400   .     A
C159   H176    1.075   .     S
C160   H172    1.111   .     S
C160   N194    1.450   .     S
C160   H170    1.100   .     S
C161   C163    1.400   .     A
C161   H177    1.075   .     S
C162   N191    1.370   .     A
C162   I186    2.105   .     S
C163   I187    2.105   .     S
C163   N192    1.370   .     A
C164   I188    2.139   .     S
C164   C166    1.422   .     A
C164   N191    1.380   .     A
C165   N192    1.380   .     A
C165   I189    2.139   .     S
C166   I190    2.156   .     S
H169   N58     1.032   1_655 S
H171   C24     1.110   1_655 S
N191   Zn204   2.026   .     S
N192   Zn203   2.026   .     S
N193   H42     1.032   1_655 S
N193   C7      1.433   1_655 S
O195   Zn203   1.984   .     S
O196   Zn204   1.984   .     S
O197   Zn204   2.002   .     S
O198   Zn203   2.002   .     S
O199   Zn203   1.982   .     S
O200   Zn204   1.982   .     S
O201   Zn204   1.988   .     S
O202   Zn203   1.988   .     S
C205   O263    1.296   .     A
C205   C218    1.448   .     S
C205   O265    1.297   .     A
C206   C208    1.423   .     A
C206   I250    2.156   .     S
C206   C233    1.422   .     A
C207   C234    1.423   .     A
C207   C227    1.403   .     A
C207   C616    1.538   1_554 S
C208   C229    1.403   .     A
C208   C615    1.538   .     S
C209   C211    1.415   .     S
C209   O267    1.279   .     A
C209   O269    1.294   .     A
C210   O270    1.294   .     A
C210   O268    1.279   .     A
C210   C212    1.415   .     S
C211   C348    1.351   1_455 S
C211   N397    1.433   1_455 S
C212   C279    1.351   .     S
C212   N330    1.433   .     S
C213   C224    1.403   .     A
C213   C215    1.384   .     A
C213   H235    1.076   .     S
C214   C225    1.403   .     A
C214   H241    1.076   .     S
C214   C217    1.384   .     A
C215   C218    1.406   .     A
C215   I249    2.132   .     S
C216   O266    1.297   .     A
C216   C219    1.448   .     S
C216   O264    1.296   .     A
C217   C219    1.406   .     A
C217   I251    2.132   .     S
C218   C220    1.398   .     A
C219   C221    1.398   .     A
C220   C222    1.382   .     A
C220   H242    1.079   .     S
C221   C223    1.382   .     A
C221   H243    1.079   .     S
C222   C224    1.417   .     A
C222   I252    2.139   .     S
C223   I253    2.139   .     S
C223   C225    1.417   .     A
C225   C20     1.485   1_565 S
C226   H247    1.101   .     S
C226   N261    1.450   .     S
C226   H248    1.111   .     S
C226   H304    1.111   .     S
C227   C230    1.400   .     A
C227   H244    1.075   .     S
C228   H240    1.111   .     S
C228   N262    1.450   .     S
C228   H238    1.100   .     S
C228   H375    1.110   1_455 S
C229   C231    1.400   .     A
C229   H245    1.075   .     S
C230   N259    1.370   .     A
C230   I254    2.105   .     S
C231   I255    2.105   .     S
C231   N260    1.370   .     A
C232   I256    2.139   .     S
C232   C234    1.422   .     A
C232   N259    1.380   .     A
C233   N260    1.380   .     A
C233   I257    2.139   .     S
C234   I258    2.156   .     S
H236   C362    1.111   1_455 S
H237   N330    1.032   .     S
H239   C296    1.110   .     S
H246   N397    1.032   1_455 S
N259   Zn272   2.026   .     S
N260   Zn271   2.026   .     S
N261   H314    1.032   .     S
N261   C279    1.433   .     S
N262   C348    1.433   1_455 S
N262   H373    1.032   1_455 S
O263   Zn271   1.984   .     S
O264   Zn272   1.984   .     S
O265   Zn272   2.002   .     S
O266   Zn271   2.002   .     S
O267   Zn271   1.982   .     S
O268   Zn272   1.982   .     S
O269   Zn272   1.988   .     S
O270   Zn271   1.988   .     S
C273   O331    1.296   .     A
C273   C286    1.448   .     S
C273   O333    1.297   .     A
C274   C276    1.423   .     A
C274   I318    2.156   .     S
C274   C301    1.422   .     A
C275   C302    1.423   .     A
C275   C295    1.403   .     A
C275   C684    1.538   1_554 S
C276   C297    1.403   .     A
C276   C683    1.538   .     S
C277   C279    1.415   .     S
C277   O335    1.279   .     A
C277   O337    1.294   .     A
C278   O338    1.294   .     A
C278   O336    1.279   .     A
C278   C280    1.415   .     S
C280   C347    1.351   .     S
C280   N398    1.433   .     S
C281   C292    1.403   .     A
C281   C283    1.384   .     A
C281   H303    1.076   .     S
C282   C293    1.403   .     A
C282   H309    1.076   .     S
C282   C285    1.384   .     A
C283   C286    1.406   .     A
C283   I317    2.132   .     S
C284   O334    1.297   .     A
C284   C287    1.448   .     S
C284   O332    1.296   .     A
C285   C287    1.406   .     A
C285   I319    2.132   .     S
C286   C288    1.398   .     A
C287   C289    1.398   .     A
C288   C290    1.382   .     A
C288   H310    1.079   .     S
C289   C291    1.382   .     A
C289   H311    1.079   .     S
C290   C292    1.417   .     A
C290   I320    2.139   .     S
C291   I321    2.139   .     S
C291   C293    1.417   .     A
C293   C88     1.485   1_565 S
C294   H315    1.101   .     S
C294   N329    1.450   .     S
C294   H316    1.111   .     S
C294   H372    1.111   .     S
C295   C298    1.400   .     A
C295   H312    1.075   .     S
C296   H308    1.111   .     S
C296   N330    1.450   .     S
C296   H306    1.100   .     S
C297   C299    1.400   .     A
C297   H313    1.075   .     S
C298   N327    1.370   .     A
C298   I322    2.105   .     S
C299   I323    2.105   .     S
C299   N328    1.370   .     A
C300   I324    2.139   .     S
C300   C302    1.422   .     A
C300   N327    1.380   .     A
C301   N328    1.380   .     A
C301   I325    2.139   .     S
C302   I326    2.156   .     S
H305   N398    1.032   .     S
H307   C364    1.110   .     S
N327   Zn340   2.026   .     S
N328   Zn339   2.026   .     S
N329   H382    1.032   .     S
N329   C347    1.433   .     S
O331   Zn339   1.984   .     S
O332   Zn340   1.984   .     S
O333   Zn340   2.002   .     S
O334   Zn339   2.002   .     S
O335   Zn339   1.982   .     S
O336   Zn340   1.982   .     S
O337   Zn340   1.988   .     S
O338   Zn339   1.988   .     S
C341   O399    1.296   .     A
C341   C354    1.448   .     S
C341   O401    1.297   .     A
C342   C344    1.423   .     A
C342   I386    2.156   .     S
C342   C369    1.422   .     A
C343   C370    1.423   .     A
C343   C363    1.403   .     A
C343   C752    1.538   1_554 S
C344   C365    1.403   .     A
C344   C751    1.538   .     S
C345   C347    1.415   .     S
C345   O403    1.279   .     A
C345   O405    1.294   .     A
C346   O406    1.294   .     A
C346   O404    1.279   .     A
C346   C348    1.415   .     S
C348   C211    1.351   1_655 S
C348   N262    1.433   1_655 S
C349   C360    1.403   .     A
C349   C351    1.384   .     A
C349   H371    1.076   .     S
C350   C361    1.403   .     A
C350   H377    1.076   .     S
C350   C353    1.384   .     A
C351   C354    1.406   .     A
C351   I385    2.132   .     S
C352   O402    1.297   .     A
C352   C355    1.448   .     S
C352   O400    1.296   .     A
C353   C355    1.406   .     A
C353   I387    2.132   .     S
C354   C356    1.398   .     A
C355   C357    1.398   .     A
C356   C358    1.382   .     A
C356   H378    1.079   .     S
C357   C359    1.382   .     A
C357   H379    1.079   .     S
C358   C360    1.417   .     A
C358   I388    2.139   .     S
C359   I389    2.139   .     S
C359   C361    1.417   .     A
C361   C156    1.485   1_565 S
C362   H383    1.101   .     S
C362   N397    1.450   .     S
C362   H384    1.111   .     S
C362   H236    1.111   1_655 S
C363   C366    1.400   .     A
C363   H380    1.075   .     S
C364   H376    1.111   .     S
C364   N398    1.450   .     S
C364   H374    1.100   .     S
C365   C367    1.400   .     A
C365   H381    1.075   .     S
C366   N395    1.370   .     A
C366   I390    2.105   .     S
C367   I391    2.105   .     S
C367   N396    1.370   .     A
C368   I392    2.139   .     S
C368   C370    1.422   .     A
C368   N395    1.380   .     A
C369   N396    1.380   .     A
C369   I393    2.139   .     S
C370   I394    2.156   .     S
H373   N262    1.032   1_655 S
H375   C228    1.110   1_655 S
N395   Zn408   2.026   .     S
N396   Zn407   2.026   .     S
N397   H246    1.032   1_655 S
N397   C211    1.433   1_655 S
O399   Zn407   1.984   .     S
O400   Zn408   1.984   .     S
O401   Zn408   2.002   .     S
O402   Zn407   2.002   .     S
O403   Zn407   1.982   .     S
O404   Zn408   1.982   .     S
O405   Zn408   1.988   .     S
O406   Zn407   1.988   .     S
C409   O467    1.296   .     A
C409   C422    1.448   .     S
C409   O469    1.297   .     A
C410   C412    1.423   .     A
C410   I454    2.156   .     S
C410   C437    1.422   .     A
C411   C438    1.423   .     A
C411   C431    1.403   .     A
C412   C433    1.403   .     A
C412   C3      1.538   1_556 S
C413   C415    1.415   .     S
C413   O471    1.279   .     A
C413   O473    1.294   .     A
C414   O474    1.294   .     A
C414   O472    1.279   .     A
C414   C416    1.415   .     S
C415   C552    1.351   1_455 S
C415   N601    1.433   1_455 S
C416   C483    1.351   .     S
C416   N534    1.433   .     S
C417   C428    1.403   .     A
C417   C419    1.384   .     A
C417   H439    1.076   .     S
C418   C429    1.403   .     A
C418   H445    1.076   .     S
C418   C421    1.384   .     A
C419   C422    1.406   .     A
C419   I453    2.132   .     S
C420   O470    1.297   .     A
C420   C423    1.448   .     S
C420   O468    1.296   .     A
C421   C423    1.406   .     A
C421   I455    2.132   .     S
C422   C424    1.398   .     A
C423   C425    1.398   .     A
C424   C426    1.382   .     A
C424   H446    1.079   .     S
C425   C427    1.382   .     A
C425   H447    1.079   .     S
C426   C428    1.417   .     A
C426   I456    2.139   .     S
C427   I457    2.139   .     S
C427   C429    1.417   .     A
C428   C633    1.485   1_545 S
C429   C632    1.485   .     S
C430   H451    1.101   .     S
C430   N465    1.450   .     S
C430   H452    1.111   .     S
C430   H508    1.111   .     S
C431   C434    1.400   .     A
C431   H448    1.075   .     S
C432   H444    1.111   .     S
C432   N466    1.450   .     S
C432   H442    1.100   .     S
C432   H579    1.110   1_455 S
C433   C435    1.400   .     A
C433   H449    1.075   .     S
C434   N463    1.370   .     A
C434   I458    2.105   .     S
C435   I459    2.105   .     S
C435   N464    1.370   .     A
C436   I460    2.139   .     S
C436   C438    1.422   .     A
C436   N463    1.380   .     A
C437   N464    1.380   .     A
C437   I461    2.139   .     S
C438   I462    2.156   .     S
H440   C566    1.111   1_455 S
H441   N534    1.032   .     S
H443   C500    1.110   .     S
H450   N601    1.032   1_455 S
N463   Zn476   2.026   .     S
N464   Zn475   2.026   .     S
N465   H518    1.032   .     S
N465   C483    1.433   .     S
N466   C552    1.433   1_455 S
N466   H577    1.032   1_455 S
O467   Zn475   1.984   .     S
O468   Zn476   1.984   .     S
O469   Zn476   2.002   .     S
O470   Zn475   2.002   .     S
O471   Zn475   1.982   .     S
O472   Zn476   1.982   .     S
O473   Zn476   1.988   .     S
O474   Zn475   1.988   .     S
C477   O535    1.296   .     A
C477   C490    1.448   .     S
C477   O537    1.297   .     A
C478   C480    1.423   .     A
C478   I522    2.156   .     S
C478   C505    1.422   .     A
C479   C506    1.423   .     A
C479   C499    1.403   .     A
C480   C501    1.403   .     A
C480   C71     1.538   1_556 S
C481   C483    1.415   .     S
C481   O539    1.279   .     A
C481   O541    1.294   .     A
C482   O542    1.294   .     A
C482   O540    1.279   .     A
C482   C484    1.415   .     S
C484   C551    1.351   .     S
C484   N602    1.433   .     S
C485   C496    1.403   .     A
C485   C487    1.384   .     A
C485   H507    1.076   .     S
C486   C497    1.403   .     A
C486   H513    1.076   .     S
C486   C489    1.384   .     A
C487   C490    1.406   .     A
C487   I521    2.132   .     S
C488   O538    1.297   .     A
C488   C491    1.448   .     S
C488   O536    1.296   .     A
C489   C491    1.406   .     A
C489   I523    2.132   .     S
C490   C492    1.398   .     A
C491   C493    1.398   .     A
C492   C494    1.382   .     A
C492   H514    1.079   .     S
C493   C495    1.382   .     A
C493   H515    1.079   .     S
C494   C496    1.417   .     A
C494   I524    2.139   .     S
C495   I525    2.139   .     S
C495   C497    1.417   .     A
C496   C701    1.485   1_545 S
C497   C700    1.485   .     S
C498   H519    1.101   .     S
C498   N533    1.450   .     S
C498   H520    1.111   .     S
C498   H576    1.111   .     S
C499   C502    1.400   .     A
C499   H516    1.075   .     S
C500   H512    1.111   .     S
C500   N534    1.450   .     S
C500   H510    1.100   .     S
C501   C503    1.400   .     A
C501   H517    1.075   .     S
C502   N531    1.370   .     A
C502   I526    2.105   .     S
C503   I527    2.105   .     S
C503   N532    1.370   .     A
C504   I528    2.139   .     S
C504   C506    1.422   .     A
C504   N531    1.380   .     A
C505   N532    1.380   .     A
C505   I529    2.139   .     S
C506   I530    2.156   .     S
H509   N602    1.032   .     S
H511   C568    1.110   .     S
N531   Zn544   2.026   .     S
N532   Zn543   2.026   .     S
N533   H586    1.032   .     S
N533   C551    1.433   .     S
O535   Zn543   1.984   .     S
O536   Zn544   1.984   .     S
O537   Zn544   2.002   .     S
O538   Zn543   2.002   .     S
O539   Zn543   1.982   .     S
O540   Zn544   1.982   .     S
O541   Zn544   1.988   .     S
O542   Zn543   1.988   .     S
C545   O603    1.296   .     A
C545   C558    1.448   .     S
C545   O605    1.297   .     A
C546   C548    1.423   .     A
C546   I590    2.156   .     S
C546   C573    1.422   .     A
C547   C574    1.423   .     A
C547   C567    1.403   .     A
C548   C569    1.403   .     A
C548   C139    1.538   1_556 S
C549   C551    1.415   .     S
C549   O607    1.279   .     A
C549   O609    1.294   .     A
C550   O610    1.294   .     A
C550   O608    1.279   .     A
C550   C552    1.415   .     S
C552   C415    1.351   1_655 S
C552   N466    1.433   1_655 S
C553   C564    1.403   .     A
C553   C555    1.384   .     A
C553   H575    1.076   .     S
C554   C565    1.403   .     A
C554   H581    1.076   .     S
C554   C557    1.384   .     A
C555   C558    1.406   .     A
C555   I589    2.132   .     S
C556   O606    1.297   .     A
C556   C559    1.448   .     S
C556   O604    1.296   .     A
C557   C559    1.406   .     A
C557   I591    2.132   .     S
C558   C560    1.398   .     A
C559   C561    1.398   .     A
C560   C562    1.382   .     A
C560   H582    1.079   .     S
C561   C563    1.382   .     A
C561   H583    1.079   .     S
C562   C564    1.417   .     A
C562   I592    2.139   .     S
C563   I593    2.139   .     S
C563   C565    1.417   .     A
C564   C769    1.485   1_545 S
C565   C768    1.485   .     S
C566   H587    1.101   .     S
C566   N601    1.450   .     S
C566   H588    1.111   .     S
C566   H440    1.111   1_655 S
C567   C570    1.400   .     A
C567   H584    1.075   .     S
C568   H580    1.111   .     S
C568   N602    1.450   .     S
C568   H578    1.100   .     S
C569   C571    1.400   .     A
C569   H585    1.075   .     S
C570   N599    1.370   .     A
C570   I594    2.105   .     S
C571   I595    2.105   .     S
C571   N600    1.370   .     A
C572   I596    2.139   .     S
C572   C574    1.422   .     A
C572   N599    1.380   .     A
C573   N600    1.380   .     A
C573   I597    2.139   .     S
C574   I598    2.156   .     S
H577   N466    1.032   1_655 S
H579   C432    1.110   1_655 S
N599   Zn612   2.026   .     S
N600   Zn611   2.026   .     S
N601   H450    1.032   1_655 S
N601   C415    1.433   1_655 S
O603   Zn611   1.984   .     S
O604   Zn612   1.984   .     S
O605   Zn612   2.002   .     S
O606   Zn611   2.002   .     S
O607   Zn611   1.982   .     S
O608   Zn612   1.982   .     S
O609   Zn612   1.988   .     S
O610   Zn611   1.988   .     S
C613   O671    1.296   .     A
C613   C626    1.448   .     S
C613   O673    1.297   .     A
C614   C616    1.423   .     A
C614   I658    2.156   .     S
C614   C641    1.422   .     A
C615   C642    1.423   .     A
C615   C635    1.403   .     A
C616   C637    1.403   .     A
C616   C207    1.538   1_556 S
C617   C619    1.415   .     S
C617   O675    1.279   .     A
C617   O677    1.294   .     A
C618   O678    1.294   .     A
C618   O676    1.279   .     A
C618   C620    1.415   .     S
C619   C756    1.351   1_455 S
C619   N805    1.433   1_455 S
C620   C687    1.351   .     S
C620   N738    1.433   .     S
C621   C632    1.403   .     A
C621   C623    1.384   .     A
C621   H643    1.076   .     S
C622   C633    1.403   .     A
C622   H649    1.076   .     S
C622   C625    1.384   .     A
C623   C626    1.406   .     A
C623   I657    2.132   .     S
C624   O674    1.297   .     A
C624   C627    1.448   .     S
C624   O672    1.296   .     A
C625   C627    1.406   .     A
C625   I659    2.132   .     S
C626   C628    1.398   .     A
C627   C629    1.398   .     A
C628   C630    1.382   .     A
C628   H650    1.079   .     S
C629   C631    1.382   .     A
C629   H651    1.079   .     S
C630   C632    1.417   .     A
C630   I660    2.139   .     S
C631   I661    2.139   .     S
C631   C633    1.417   .     A
C633   C428    1.485   1_565 S
C634   H655    1.101   .     S
C634   N669    1.450   .     S
C634   H656    1.111   .     S
C634   H712    1.111   .     S
C635   C638    1.400   .     A
C635   H652    1.075   .     S
C636   H648    1.111   .     S
C636   N670    1.450   .     S
C636   H646    1.100   .     S
C636   H783    1.110   1_455 S
C637   C639    1.400   .     A
C637   H653    1.075   .     S
C638   N667    1.370   .     A
C638   I662    2.105   .     S
C639   I663    2.105   .     S
C639   N668    1.370   .     A
C640   I664    2.139   .     S
C640   C642    1.422   .     A
C640   N667    1.380   .     A
C641   N668    1.380   .     A
C641   I665    2.139   .     S
C642   I666    2.156   .     S
H644   C770    1.111   1_455 S
H645   N738    1.032   .     S
H647   C704    1.110   .     S
H654   N805    1.032   1_455 S
N667   Zn680   2.026   .     S
N668   Zn679   2.026   .     S
N669   H722    1.032   .     S
N669   C687    1.433   .     S
N670   C756    1.433   1_455 S
N670   H781    1.032   1_455 S
O671   Zn679   1.984   .     S
O672   Zn680   1.984   .     S
O673   Zn680   2.002   .     S
O674   Zn679   2.002   .     S
O675   Zn679   1.982   .     S
O676   Zn680   1.982   .     S
O677   Zn680   1.988   .     S
O678   Zn679   1.988   .     S
C681   O739    1.296   .     A
C681   C694    1.448   .     S
C681   O741    1.297   .     A
C682   C684    1.423   .     A
C682   I726    2.156   .     S
C682   C709    1.422   .     A
C683   C710    1.423   .     A
C683   C703    1.403   .     A
C684   C705    1.403   .     A
C684   C275    1.538   1_556 S
C685   C687    1.415   .     S
C685   O743    1.279   .     A
C685   O745    1.294   .     A
C686   O746    1.294   .     A
C686   O744    1.279   .     A
C686   C688    1.415   .     S
C688   C755    1.351   .     S
C688   N806    1.433   .     S
C689   C700    1.403   .     A
C689   C691    1.384   .     A
C689   H711    1.076   .     S
C690   C701    1.403   .     A
C690   H717    1.076   .     S
C690   C693    1.384   .     A
C691   C694    1.406   .     A
C691   I725    2.132   .     S
C692   O742    1.297   .     A
C692   C695    1.448   .     S
C692   O740    1.296   .     A
C693   C695    1.406   .     A
C693   I727    2.132   .     S
C694   C696    1.398   .     A
C695   C697    1.398   .     A
C696   C698    1.382   .     A
C696   H718    1.079   .     S
C697   C699    1.382   .     A
C697   H719    1.079   .     S
C698   C700    1.417   .     A
C698   I728    2.139   .     S
C699   I729    2.139   .     S
C699   C701    1.417   .     A
C701   C496    1.485   1_565 S
C702   H723    1.101   .     S
C702   N737    1.450   .     S
C702   H724    1.111   .     S
C702   H780    1.111   .     S
C703   C706    1.400   .     A
C703   H720    1.075   .     S
C704   H716    1.111   .     S
C704   N738    1.450   .     S
C704   H714    1.100   .     S
C705   C707    1.400   .     A
C705   H721    1.075   .     S
C706   N735    1.370   .     A
C706   I730    2.105   .     S
C707   I731    2.105   .     S
C707   N736    1.370   .     A
C708   I732    2.139   .     S
C708   C710    1.422   .     A
C708   N735    1.380   .     A
C709   N736    1.380   .     A
C709   I733    2.139   .     S
C710   I734    2.156   .     S
H713   N806    1.032   .     S
H715   C772    1.110   .     S
N735   Zn748   2.026   .     S
N736   Zn747   2.026   .     S
N737   H790    1.032   .     S
N737   C755    1.433   .     S
O739   Zn747   1.984   .     S
O740   Zn748   1.984   .     S
O741   Zn748   2.002   .     S
O742   Zn747   2.002   .     S
O743   Zn747   1.982   .     S
O744   Zn748   1.982   .     S
O745   Zn748   1.988   .     S
O746   Zn747   1.988   .     S
C749   O807    1.296   .     A
C749   C762    1.448   .     S
C749   O809    1.297   .     A
C750   C752    1.423   .     A
C750   I794    2.156   .     S
C750   C777    1.422   .     A
C751   C778    1.423   .     A
C751   C771    1.403   .     A
C752   C773    1.403   .     A
C752   C343    1.538   1_556 S
C753   C755    1.415   .     S
C753   O811    1.279   .     A
C753   O813    1.294   .     A
C754   O814    1.294   .     A
C754   O812    1.279   .     A
C754   C756    1.415   .     S
C756   C619    1.351   1_655 S
C756   N670    1.433   1_655 S
C757   C768    1.403   .     A
C757   C759    1.384   .     A
C757   H779    1.076   .     S
C758   C769    1.403   .     A
C758   H785    1.076   .     S
C758   C761    1.384   .     A
C759   C762    1.406   .     A
C759   I793    2.132   .     S
C760   O810    1.297   .     A
C760   C763    1.448   .     S
C760   O808    1.296   .     A
C761   C763    1.406   .     A
C761   I795    2.132   .     S
C762   C764    1.398   .     A
C763   C765    1.398   .     A
C764   C766    1.382   .     A
C764   H786    1.079   .     S
C765   C767    1.382   .     A
C765   H787    1.079   .     S
C766   C768    1.417   .     A
C766   I796    2.139   .     S
C767   I797    2.139   .     S
C767   C769    1.417   .     A
C769   C564    1.485   1_565 S
C770   H791    1.101   .     S
C770   N805    1.450   .     S
C770   H792    1.111   .     S
C770   H644    1.111   1_655 S
C771   C774    1.400   .     A
C771   H788    1.075   .     S
C772   H784    1.111   .     S
C772   N806    1.450   .     S
C772   H782    1.100   .     S
C773   C775    1.400   .     A
C773   H789    1.075   .     S
C774   N803    1.370   .     A
C774   I798    2.105   .     S
C775   I799    2.105   .     S
C775   N804    1.370   .     A
C776   I800    2.139   .     S
C776   C778    1.422   .     A
C776   N803    1.380   .     A
C777   N804    1.380   .     A
C777   I801    2.139   .     S
C778   I802    2.156   .     S
H781   N670    1.032   1_655 S
H783   C636    1.110   1_655 S
N803   Zn816   2.026   .     S
N804   Zn815   2.026   .     S
N805   H654    1.032   1_655 S
N805   C619    1.433   1_655 S
O807   Zn815   1.984   .     S
O808   Zn816   1.984   .     S
O809   Zn816   2.002   .     S
O810   Zn815   2.002   .     S
O811   Zn815   1.982   .     S
O812   Zn816   1.982   .     S
O813   Zn816   1.988   .     S
O814   Zn815   1.988   .     S
