data_str_m3_o10_o18_pcu_sym.123
_audit_creation_date              2020-01-03
_audit_creation_method            'Materials Studio'
_symmetry_space_group_name_H-M    'P1'
_symmetry_Int_Tables_number       1
_symmetry_cell_setting            triclinic
loop_
_symmetry_equiv_pos_as_xyz
  x,y,z
_cell_length_a                    23.8352
_cell_length_b                    25.7169
_cell_length_c                    27.3559
_cell_angle_alpha                 95.1772
_cell_angle_beta                  93.3370
_cell_angle_gamma                 92.7795
loop_
_atom_site_label
_atom_site_type_symbol
_atom_site_fract_x
_atom_site_fract_y
_atom_site_fract_z
_atom_site_U_iso_or_equiv
_atom_site_adp_type
_atom_site_occupancy
C1     C     0.01412   0.26446   0.24855   0.00000  Uiso   1.00
C2     C     0.31252   0.16274   0.15895   0.00000  Uiso   1.00
C3     C     0.03086   0.17778   0.39400   0.00000  Uiso   1.00
C4     C     0.30248   0.15555   0.10600   0.00000  Uiso   1.00
C5     C     0.02175   0.22788   0.47152   0.00000  Uiso   1.00
C6     C     0.31158   0.10546   0.02848   0.00000  Uiso   1.00
C7     C     0.00240   0.21431   0.42283   0.00000  Uiso   1.00
C8     C     0.33094   0.11902   0.07717   0.00000  Uiso   1.00
C9     C     0.07602   0.15362   0.41437   0.00000  Uiso   1.00
C10    C     0.25732   0.17972   0.08563   0.00000  Uiso   1.00
C11    C     0.10269   0.17413   0.45908   0.00000  Uiso   1.00
C12    C     0.31921   0.06887   0.25145   0.00000  Uiso   1.00
C13    C     0.23064   0.15920   0.04091   0.00000  Uiso   1.00
C14    C     0.07226   0.20849   0.48959   0.00000  Uiso   1.00
C15    C     0.26108   0.12484   0.01041   0.00000  Uiso   1.00
C16    C     0.15748   0.16029   0.47476   0.00000  Uiso   1.00
C17    C     0.17585   0.17305   0.02524   0.00000  Uiso   1.00
C18    C     0.14120   0.19703   0.11302   0.00000  Uiso   1.00
C19    C     0.19213   0.13631   0.38698   0.00000  Uiso   1.00
C20    C     0.04612   0.32704   0.19139   0.00000  Uiso   1.00
C21    C     0.28721   0.00629   0.30861   0.00000  Uiso   1.00
C22    C     0.16164   0.10178   0.21616   0.00000  Uiso   1.00
C23    C     0.13823   0.19845   0.05782   0.00000  Uiso   1.00
C24    C     0.17170   0.23155   0.28384   0.00000  Uiso   1.00
C25    C     0.19511   0.13488   0.44218   0.00000  Uiso   1.00
C26    C     0.09040   0.22031   0.03844   0.00000  Uiso   1.00
C27    C     0.24293   0.11302   0.46156   0.00000  Uiso   1.00
C28    C     0.01690   0.31678   0.23790   0.00000  Uiso   1.00
C29    C     0.31643   0.01656   0.26209   0.00000  Uiso   1.00
C30    C     0.02082   0.17060   0.34105   0.00000  Uiso   1.00
H31    H     0.06418   0.24272   0.06275   0.00000  Uiso   1.00
H32    H     0.16048   0.23429   0.13170   0.00000  Uiso   1.00
H33    H     0.09834   0.19288   0.12589   0.00000  Uiso   1.00
H34    H     0.17285   0.09904   0.36830   0.00000  Uiso   1.00
H35    H     0.17039   0.17074   0.37542   0.00000  Uiso   1.00
H36    H     0.23499   0.14045   0.37411   0.00000  Uiso   1.00
H37    H     0.04005   0.29232   0.16390   0.00000  Uiso   1.00
H38    H     0.02917   0.02668   0.17269   0.00000  Uiso   1.00
H39    H     0.09194   0.00062   0.20055   0.00000  Uiso   1.00
H40    H     0.29325   0.04102   0.33609   0.00000  Uiso   1.00
H41    H     0.24140   0.33267   0.29944   0.00000  Uiso   1.00
H42    H     0.26916   0.09061   0.43725   0.00000  Uiso   1.00
H43    H     0.30419   0.30667   0.32732   0.00000  Uiso   1.00
H44    H     0.12571   0.08482   0.19145   0.00000  Uiso   1.00
H45    H     0.19751   0.10475   0.19281   0.00000  Uiso   1.00
H46    H     0.16950   0.07541   0.24550   0.00000  Uiso   1.00
H47    H     0.20763   0.24851   0.30856   0.00000  Uiso   1.00
H48    H     0.16384   0.25793   0.25450   0.00000  Uiso   1.00
H49    H     0.13582   0.22858   0.30719   0.00000  Uiso   1.00
H50    H     0.24268   0.21343   0.10629   0.00000  Uiso   1.00
H51    H     0.09065   0.11990   0.39371   0.00000  Uiso   1.00
H52    H     0.03369   0.10053   0.09241   0.00000  Uiso   1.00
H53    H     0.29964   0.23280   0.40759   0.00000  Uiso   1.00
H54    H     0.33178   0.25462   0.49445   0.00000  Uiso   1.00
H55    H     0.00155   0.07871   0.00555   0.00000  Uiso   1.00
H56    H     0.16294   0.16259   0.12458   0.00000  Uiso   1.00
N57    N     0.14695   0.15216   0.23739   0.00000  Uiso   1.00
N58    N     0.18638   0.18117   0.26260   0.00000  Uiso   1.00
O59    O     0.29719   0.24631   0.25309   0.00000  Uiso   1.00
O60    O     0.03614   0.08702   0.24690   0.00000  Uiso   1.00
O61    O     0.05822   0.23702   0.24501   0.00000  Uiso   1.00
O62    O     0.27512   0.09632   0.25498   0.00000  Uiso   1.00
O63    O     0.30328   0.17397   0.32247   0.00000  Uiso   1.00
O64    O     0.03005   0.15937   0.17753   0.00000  Uiso   1.00
O65    O     0.06431   0.16467   0.31439   0.00000  Uiso   1.00
O66    O     0.26902   0.16866   0.18561   0.00000  Uiso   1.00
Zn67   Zn    0.27033   0.17287   0.25539   0.00000  Uiso   1.00
Zn68   Zn    0.06300   0.16046   0.24460   0.00000  Uiso   1.00
C69    C     0.34745   0.26446   0.24855   0.00000  Uiso   1.00
C70    C     0.64585   0.16274   0.15895   0.00000  Uiso   1.00
C71    C     0.36419   0.17778   0.39400   0.00000  Uiso   1.00
C72    C     0.63581   0.15555   0.10600   0.00000  Uiso   1.00
C73    C     0.35508   0.22788   0.47152   0.00000  Uiso   1.00
C74    C     0.64492   0.10546   0.02848   0.00000  Uiso   1.00
C75    C     0.33573   0.21431   0.42283   0.00000  Uiso   1.00
C76    C     0.66427   0.11902   0.07717   0.00000  Uiso   1.00
C77    C     0.40935   0.15362   0.41437   0.00000  Uiso   1.00
C78    C     0.59065   0.17972   0.08563   0.00000  Uiso   1.00
C79    C     0.43602   0.17413   0.45908   0.00000  Uiso   1.00
C80    C     0.65254   0.06887   0.25145   0.00000  Uiso   1.00
C81    C     0.56397   0.15920   0.04091   0.00000  Uiso   1.00
C82    C     0.40559   0.20849   0.48959   0.00000  Uiso   1.00
C83    C     0.59441   0.12484   0.01041   0.00000  Uiso   1.00
C84    C     0.49081   0.16029   0.47476   0.00000  Uiso   1.00
C85    C     0.50919   0.17305   0.02524   0.00000  Uiso   1.00
C86    C     0.47454   0.19703   0.11302   0.00000  Uiso   1.00
C87    C     0.52546   0.13631   0.38698   0.00000  Uiso   1.00
C88    C     0.37945   0.32704   0.19139   0.00000  Uiso   1.00
C89    C     0.62054   0.00629   0.30861   0.00000  Uiso   1.00
C90    C     0.49497   0.10178   0.21616   0.00000  Uiso   1.00
C91    C     0.47156   0.19845   0.05782   0.00000  Uiso   1.00
C92    C     0.50503   0.23155   0.28384   0.00000  Uiso   1.00
C93    C     0.52844   0.13488   0.44218   0.00000  Uiso   1.00
C94    C     0.42374   0.22031   0.03844   0.00000  Uiso   1.00
C95    C     0.57626   0.11302   0.46156   0.00000  Uiso   1.00
C96    C     0.35023   0.31678   0.23790   0.00000  Uiso   1.00
C97    C     0.64977   0.01656   0.26209   0.00000  Uiso   1.00
C98    C     0.35415   0.17060   0.34105   0.00000  Uiso   1.00
H99    H     0.39751   0.24272   0.06275   0.00000  Uiso   1.00
H100   H     0.49381   0.23429   0.13170   0.00000  Uiso   1.00
H101   H     0.43168   0.19288   0.12589   0.00000  Uiso   1.00
H102   H     0.50618   0.09904   0.36830   0.00000  Uiso   1.00
H103   H     0.50373   0.17074   0.37542   0.00000  Uiso   1.00
H104   H     0.56832   0.14045   0.37411   0.00000  Uiso   1.00
H105   H     0.37338   0.29232   0.16390   0.00000  Uiso   1.00
H106   H     0.36250   0.02668   0.17269   0.00000  Uiso   1.00
H107   H     0.42527   0.00062   0.20055   0.00000  Uiso   1.00
H108   H     0.62658   0.04102   0.33609   0.00000  Uiso   1.00
H109   H     0.57473   0.33267   0.29944   0.00000  Uiso   1.00
H110   H     0.60249   0.09061   0.43725   0.00000  Uiso   1.00
H111   H     0.63752   0.30667   0.32732   0.00000  Uiso   1.00
H112   H     0.45904   0.08482   0.19145   0.00000  Uiso   1.00
H113   H     0.53085   0.10475   0.19281   0.00000  Uiso   1.00
H114   H     0.50283   0.07541   0.24550   0.00000  Uiso   1.00
H115   H     0.54096   0.24851   0.30856   0.00000  Uiso   1.00
H116   H     0.49717   0.25793   0.25450   0.00000  Uiso   1.00
H117   H     0.46915   0.22858   0.30719   0.00000  Uiso   1.00
H118   H     0.57602   0.21343   0.10629   0.00000  Uiso   1.00
H119   H     0.42398   0.11990   0.39371   0.00000  Uiso   1.00
H120   H     0.36702   0.10053   0.09241   0.00000  Uiso   1.00
H121   H     0.63298   0.23280   0.40759   0.00000  Uiso   1.00
H122   H     0.66512   0.25462   0.49445   0.00000  Uiso   1.00
H123   H     0.33488   0.07871   0.00555   0.00000  Uiso   1.00
H124   H     0.49627   0.16259   0.12458   0.00000  Uiso   1.00
N125   N     0.48029   0.15216   0.23739   0.00000  Uiso   1.00
N126   N     0.51971   0.18117   0.26260   0.00000  Uiso   1.00
O127   O     0.63052   0.24631   0.25309   0.00000  Uiso   1.00
O128   O     0.36948   0.08702   0.24690   0.00000  Uiso   1.00
O129   O     0.39155   0.23702   0.24501   0.00000  Uiso   1.00
O130   O     0.60845   0.09632   0.25498   0.00000  Uiso   1.00
O131   O     0.63662   0.17397   0.32247   0.00000  Uiso   1.00
O132   O     0.36338   0.15937   0.17753   0.00000  Uiso   1.00
O133   O     0.39764   0.16467   0.31439   0.00000  Uiso   1.00
O134   O     0.60236   0.16866   0.18561   0.00000  Uiso   1.00
Zn135  Zn    0.60366   0.17287   0.25539   0.00000  Uiso   1.00
Zn136  Zn    0.39634   0.16046   0.24460   0.00000  Uiso   1.00
C137   C     0.68079   0.26446   0.24855   0.00000  Uiso   1.00
C138   C     0.97918   0.16274   0.15895   0.00000  Uiso   1.00
C139   C     0.69752   0.17778   0.39400   0.00000  Uiso   1.00
C140   C     0.96914   0.15555   0.10600   0.00000  Uiso   1.00
C141   C     0.68842   0.22788   0.47152   0.00000  Uiso   1.00
C142   C     0.97825   0.10546   0.02848   0.00000  Uiso   1.00
C143   C     0.66906   0.21431   0.42283   0.00000  Uiso   1.00
C144   C     0.99760   0.11902   0.07717   0.00000  Uiso   1.00
C145   C     0.74268   0.15362   0.41437   0.00000  Uiso   1.00
C146   C     0.92398   0.17972   0.08563   0.00000  Uiso   1.00
C147   C     0.76936   0.17413   0.45908   0.00000  Uiso   1.00
C148   C     0.98588   0.06887   0.25145   0.00000  Uiso   1.00
C149   C     0.89731   0.15920   0.04091   0.00000  Uiso   1.00
C150   C     0.73892   0.20849   0.48959   0.00000  Uiso   1.00
C151   C     0.92774   0.12484   0.01041   0.00000  Uiso   1.00
C152   C     0.82415   0.16029   0.47476   0.00000  Uiso   1.00
C153   C     0.84252   0.17305   0.02524   0.00000  Uiso   1.00
C154   C     0.80787   0.19703   0.11302   0.00000  Uiso   1.00
C155   C     0.85880   0.13631   0.38698   0.00000  Uiso   1.00
C156   C     0.71278   0.32704   0.19139   0.00000  Uiso   1.00
C157   C     0.95388   0.00629   0.30861   0.00000  Uiso   1.00
C158   C     0.82830   0.10178   0.21616   0.00000  Uiso   1.00
C159   C     0.80489   0.19845   0.05782   0.00000  Uiso   1.00
C160   C     0.83836   0.23155   0.28384   0.00000  Uiso   1.00
C161   C     0.86177   0.13488   0.44218   0.00000  Uiso   1.00
C162   C     0.75707   0.22031   0.03844   0.00000  Uiso   1.00
C163   C     0.90960   0.11302   0.46156   0.00000  Uiso   1.00
C164   C     0.68357   0.31678   0.23790   0.00000  Uiso   1.00
C165   C     0.98310   0.01656   0.26209   0.00000  Uiso   1.00
C166   C     0.68748   0.17060   0.34105   0.00000  Uiso   1.00
H167   H     0.73084   0.24272   0.06275   0.00000  Uiso   1.00
H168   H     0.82715   0.23429   0.13170   0.00000  Uiso   1.00
H169   H     0.76501   0.19288   0.12589   0.00000  Uiso   1.00
H170   H     0.83952   0.09904   0.36830   0.00000  Uiso   1.00
H171   H     0.83706   0.17074   0.37542   0.00000  Uiso   1.00
H172   H     0.90166   0.14045   0.37411   0.00000  Uiso   1.00
H173   H     0.70672   0.29232   0.16390   0.00000  Uiso   1.00
H174   H     0.69583   0.02668   0.17269   0.00000  Uiso   1.00
H175   H     0.75860   0.00062   0.20055   0.00000  Uiso   1.00
H176   H     0.95991   0.04102   0.33609   0.00000  Uiso   1.00
H177   H     0.90806   0.33267   0.29944   0.00000  Uiso   1.00
H178   H     0.93582   0.09061   0.43725   0.00000  Uiso   1.00
H179   H     0.97085   0.30667   0.32732   0.00000  Uiso   1.00
H180   H     0.79237   0.08482   0.19145   0.00000  Uiso   1.00
H181   H     0.86418   0.10475   0.19281   0.00000  Uiso   1.00
H182   H     0.83617   0.07541   0.24550   0.00000  Uiso   1.00
H183   H     0.87429   0.24851   0.30856   0.00000  Uiso   1.00
H184   H     0.83051   0.25793   0.25450   0.00000  Uiso   1.00
H185   H     0.80248   0.22858   0.30719   0.00000  Uiso   1.00
H186   H     0.90935   0.21343   0.10629   0.00000  Uiso   1.00
H187   H     0.75732   0.11990   0.39371   0.00000  Uiso   1.00
H188   H     0.70036   0.10053   0.09241   0.00000  Uiso   1.00
H189   H     0.96631   0.23280   0.40759   0.00000  Uiso   1.00
H190   H     0.99845   0.25462   0.49445   0.00000  Uiso   1.00
H191   H     0.66822   0.07871   0.00555   0.00000  Uiso   1.00
H192   H     0.82961   0.16259   0.12458   0.00000  Uiso   1.00
N193   N     0.81362   0.15216   0.23739   0.00000  Uiso   1.00
N194   N     0.85305   0.18117   0.26260   0.00000  Uiso   1.00
O195   O     0.96386   0.24631   0.25309   0.00000  Uiso   1.00
O196   O     0.70281   0.08702   0.24690   0.00000  Uiso   1.00
O197   O     0.72488   0.23702   0.24501   0.00000  Uiso   1.00
O198   O     0.94178   0.09632   0.25498   0.00000  Uiso   1.00
O199   O     0.96995   0.17397   0.32247   0.00000  Uiso   1.00
O200   O     0.69672   0.15937   0.17753   0.00000  Uiso   1.00
O201   O     0.73098   0.16467   0.31439   0.00000  Uiso   1.00
O202   O     0.93569   0.16866   0.18561   0.00000  Uiso   1.00
Zn203  Zn    0.93700   0.17287   0.25539   0.00000  Uiso   1.00
Zn204  Zn    0.72967   0.16046   0.24460   0.00000  Uiso   1.00
C205   C     0.01412   0.59780   0.24855   0.00000  Uiso   1.00
C206   C     0.31252   0.49607   0.15895   0.00000  Uiso   1.00
C207   C     0.03086   0.51111   0.39400   0.00000  Uiso   1.00
C208   C     0.30248   0.48889   0.10600   0.00000  Uiso   1.00
C209   C     0.02175   0.56121   0.47152   0.00000  Uiso   1.00
C210   C     0.31158   0.43879   0.02848   0.00000  Uiso   1.00
C211   C     0.00240   0.54764   0.42283   0.00000  Uiso   1.00
C212   C     0.33094   0.45235   0.07717   0.00000  Uiso   1.00
C213   C     0.07602   0.48695   0.41437   0.00000  Uiso   1.00
C214   C     0.25732   0.51305   0.08563   0.00000  Uiso   1.00
C215   C     0.10269   0.50747   0.45908   0.00000  Uiso   1.00
C216   C     0.31921   0.40220   0.25145   0.00000  Uiso   1.00
C217   C     0.23064   0.49253   0.04091   0.00000  Uiso   1.00
C218   C     0.07226   0.54183   0.48959   0.00000  Uiso   1.00
C219   C     0.26108   0.45817   0.01041   0.00000  Uiso   1.00
C220   C     0.15748   0.49362   0.47476   0.00000  Uiso   1.00
C221   C     0.17585   0.50638   0.02524   0.00000  Uiso   1.00
C222   C     0.14120   0.53036   0.11302   0.00000  Uiso   1.00
C223   C     0.19213   0.46964   0.38698   0.00000  Uiso   1.00
C224   C     0.04612   0.66037   0.19139   0.00000  Uiso   1.00
C225   C     0.28721   0.33963   0.30861   0.00000  Uiso   1.00
C226   C     0.16164   0.43512   0.21616   0.00000  Uiso   1.00
C227   C     0.13823   0.53178   0.05782   0.00000  Uiso   1.00
C228   C     0.17170   0.56488   0.28384   0.00000  Uiso   1.00
C229   C     0.19511   0.46822   0.44218   0.00000  Uiso   1.00
C230   C     0.09040   0.55364   0.03844   0.00000  Uiso   1.00
C231   C     0.24293   0.44636   0.46156   0.00000  Uiso   1.00
C232   C     0.01690   0.65011   0.23790   0.00000  Uiso   1.00
C233   C     0.31643   0.34989   0.26209   0.00000  Uiso   1.00
C234   C     0.02082   0.50393   0.34105   0.00000  Uiso   1.00
H235   H     0.06418   0.57605   0.06275   0.00000  Uiso   1.00
H236   H     0.16048   0.56762   0.13170   0.00000  Uiso   1.00
H237   H     0.09834   0.52621   0.12589   0.00000  Uiso   1.00
H238   H     0.17285   0.43237   0.36830   0.00000  Uiso   1.00
H239   H     0.17039   0.50408   0.37542   0.00000  Uiso   1.00
H240   H     0.23499   0.47378   0.37411   0.00000  Uiso   1.00
H241   H     0.04005   0.62565   0.16390   0.00000  Uiso   1.00
H242   H     0.02917   0.36001   0.17269   0.00000  Uiso   1.00
H243   H     0.09194   0.33396   0.20055   0.00000  Uiso   1.00
H244   H     0.29325   0.37436   0.33609   0.00000  Uiso   1.00
H245   H     0.24140   0.66601   0.29944   0.00000  Uiso   1.00
H246   H     0.26916   0.42395   0.43725   0.00000  Uiso   1.00
H247   H     0.30419   0.64000   0.32732   0.00000  Uiso   1.00
H248   H     0.12571   0.41815   0.19145   0.00000  Uiso   1.00
H249   H     0.19751   0.43808   0.19281   0.00000  Uiso   1.00
H250   H     0.16950   0.40874   0.24550   0.00000  Uiso   1.00
H251   H     0.20763   0.58184   0.30856   0.00000  Uiso   1.00
H252   H     0.16384   0.59126   0.25450   0.00000  Uiso   1.00
H253   H     0.13582   0.56192   0.30719   0.00000  Uiso   1.00
H254   H     0.24268   0.54677   0.10629   0.00000  Uiso   1.00
H255   H     0.09065   0.45323   0.39371   0.00000  Uiso   1.00
H256   H     0.03369   0.43386   0.09241   0.00000  Uiso   1.00
H257   H     0.29964   0.56614   0.40759   0.00000  Uiso   1.00
H258   H     0.33178   0.58796   0.49445   0.00000  Uiso   1.00
H259   H     0.00155   0.41204   0.00555   0.00000  Uiso   1.00
H260   H     0.16294   0.49592   0.12458   0.00000  Uiso   1.00
N261   N     0.14695   0.48550   0.23739   0.00000  Uiso   1.00
N262   N     0.18638   0.51450   0.26260   0.00000  Uiso   1.00
O263   O     0.29719   0.57964   0.25309   0.00000  Uiso   1.00
O264   O     0.03614   0.42036   0.24690   0.00000  Uiso   1.00
O265   O     0.05822   0.57035   0.24501   0.00000  Uiso   1.00
O266   O     0.27512   0.42965   0.25498   0.00000  Uiso   1.00
O267   O     0.30328   0.50730   0.32247   0.00000  Uiso   1.00
O268   O     0.03005   0.49270   0.17753   0.00000  Uiso   1.00
O269   O     0.06431   0.49801   0.31439   0.00000  Uiso   1.00
O270   O     0.26902   0.50199   0.18561   0.00000  Uiso   1.00
Zn271  Zn    0.27033   0.50621   0.25539   0.00000  Uiso   1.00
Zn272  Zn    0.06300   0.49379   0.24460   0.00000  Uiso   1.00
C273   C     0.34745   0.59780   0.24855   0.00000  Uiso   1.00
C274   C     0.64585   0.49607   0.15895   0.00000  Uiso   1.00
C275   C     0.36419   0.51111   0.39400   0.00000  Uiso   1.00
C276   C     0.63581   0.48889   0.10600   0.00000  Uiso   1.00
C277   C     0.35508   0.56121   0.47152   0.00000  Uiso   1.00
C278   C     0.64492   0.43879   0.02848   0.00000  Uiso   1.00
C279   C     0.33573   0.54764   0.42283   0.00000  Uiso   1.00
C280   C     0.66427   0.45235   0.07717   0.00000  Uiso   1.00
C281   C     0.40935   0.48695   0.41437   0.00000  Uiso   1.00
C282   C     0.59065   0.51305   0.08563   0.00000  Uiso   1.00
C283   C     0.43602   0.50747   0.45908   0.00000  Uiso   1.00
C284   C     0.65254   0.40220   0.25145   0.00000  Uiso   1.00
C285   C     0.56397   0.49253   0.04091   0.00000  Uiso   1.00
C286   C     0.40559   0.54183   0.48959   0.00000  Uiso   1.00
C287   C     0.59441   0.45817   0.01041   0.00000  Uiso   1.00
C288   C     0.49081   0.49362   0.47476   0.00000  Uiso   1.00
C289   C     0.50919   0.50638   0.02524   0.00000  Uiso   1.00
C290   C     0.47454   0.53036   0.11302   0.00000  Uiso   1.00
C291   C     0.52546   0.46964   0.38698   0.00000  Uiso   1.00
C292   C     0.37945   0.66037   0.19139   0.00000  Uiso   1.00
C293   C     0.62054   0.33963   0.30861   0.00000  Uiso   1.00
C294   C     0.49497   0.43512   0.21616   0.00000  Uiso   1.00
C295   C     0.47156   0.53178   0.05782   0.00000  Uiso   1.00
C296   C     0.50503   0.56488   0.28384   0.00000  Uiso   1.00
C297   C     0.52844   0.46822   0.44218   0.00000  Uiso   1.00
C298   C     0.42374   0.55364   0.03844   0.00000  Uiso   1.00
C299   C     0.57626   0.44636   0.46156   0.00000  Uiso   1.00
C300   C     0.35023   0.65011   0.23790   0.00000  Uiso   1.00
C301   C     0.64977   0.34989   0.26209   0.00000  Uiso   1.00
C302   C     0.35415   0.50393   0.34105   0.00000  Uiso   1.00
H303   H     0.39751   0.57605   0.06275   0.00000  Uiso   1.00
H304   H     0.49381   0.56762   0.13170   0.00000  Uiso   1.00
H305   H     0.43168   0.52621   0.12589   0.00000  Uiso   1.00
H306   H     0.50618   0.43237   0.36830   0.00000  Uiso   1.00
H307   H     0.50373   0.50408   0.37542   0.00000  Uiso   1.00
H308   H     0.56832   0.47378   0.37411   0.00000  Uiso   1.00
H309   H     0.37338   0.62565   0.16390   0.00000  Uiso   1.00
H310   H     0.36250   0.36001   0.17269   0.00000  Uiso   1.00
H311   H     0.42527   0.33396   0.20055   0.00000  Uiso   1.00
H312   H     0.62658   0.37436   0.33609   0.00000  Uiso   1.00
H313   H     0.57473   0.66601   0.29944   0.00000  Uiso   1.00
H314   H     0.60249   0.42395   0.43725   0.00000  Uiso   1.00
H315   H     0.63752   0.64000   0.32732   0.00000  Uiso   1.00
H316   H     0.45904   0.41815   0.19145   0.00000  Uiso   1.00
H317   H     0.53085   0.43808   0.19281   0.00000  Uiso   1.00
H318   H     0.50283   0.40874   0.24550   0.00000  Uiso   1.00
H319   H     0.54096   0.58184   0.30856   0.00000  Uiso   1.00
H320   H     0.49717   0.59126   0.25450   0.00000  Uiso   1.00
H321   H     0.46915   0.56192   0.30719   0.00000  Uiso   1.00
H322   H     0.57602   0.54677   0.10629   0.00000  Uiso   1.00
H323   H     0.42398   0.45323   0.39371   0.00000  Uiso   1.00
H324   H     0.36702   0.43386   0.09241   0.00000  Uiso   1.00
H325   H     0.63298   0.56614   0.40759   0.00000  Uiso   1.00
H326   H     0.66512   0.58796   0.49445   0.00000  Uiso   1.00
H327   H     0.33488   0.41204   0.00555   0.00000  Uiso   1.00
H328   H     0.49627   0.49592   0.12458   0.00000  Uiso   1.00
N329   N     0.48029   0.48550   0.23739   0.00000  Uiso   1.00
N330   N     0.51971   0.51450   0.26260   0.00000  Uiso   1.00
O331   O     0.63052   0.57964   0.25309   0.00000  Uiso   1.00
O332   O     0.36948   0.42036   0.24690   0.00000  Uiso   1.00
O333   O     0.39155   0.57035   0.24501   0.00000  Uiso   1.00
O334   O     0.60845   0.42965   0.25498   0.00000  Uiso   1.00
O335   O     0.63662   0.50730   0.32247   0.00000  Uiso   1.00
O336   O     0.36338   0.49270   0.17753   0.00000  Uiso   1.00
O337   O     0.39764   0.49801   0.31439   0.00000  Uiso   1.00
O338   O     0.60236   0.50199   0.18561   0.00000  Uiso   1.00
Zn339  Zn    0.60366   0.50621   0.25539   0.00000  Uiso   1.00
Zn340  Zn    0.39634   0.49379   0.24460   0.00000  Uiso   1.00
C341   C     0.68079   0.59780   0.24855   0.00000  Uiso   1.00
C342   C     0.97918   0.49607   0.15895   0.00000  Uiso   1.00
C343   C     0.69752   0.51111   0.39400   0.00000  Uiso   1.00
C344   C     0.96914   0.48889   0.10600   0.00000  Uiso   1.00
C345   C     0.68842   0.56121   0.47152   0.00000  Uiso   1.00
C346   C     0.97825   0.43879   0.02848   0.00000  Uiso   1.00
C347   C     0.66906   0.54764   0.42283   0.00000  Uiso   1.00
C348   C     0.99760   0.45235   0.07717   0.00000  Uiso   1.00
C349   C     0.74268   0.48695   0.41437   0.00000  Uiso   1.00
C350   C     0.92398   0.51305   0.08563   0.00000  Uiso   1.00
C351   C     0.76936   0.50747   0.45908   0.00000  Uiso   1.00
C352   C     0.98588   0.40220   0.25145   0.00000  Uiso   1.00
C353   C     0.89731   0.49253   0.04091   0.00000  Uiso   1.00
C354   C     0.73892   0.54183   0.48959   0.00000  Uiso   1.00
C355   C     0.92774   0.45817   0.01041   0.00000  Uiso   1.00
C356   C     0.82415   0.49362   0.47476   0.00000  Uiso   1.00
C357   C     0.84252   0.50638   0.02524   0.00000  Uiso   1.00
C358   C     0.80787   0.53036   0.11302   0.00000  Uiso   1.00
C359   C     0.85880   0.46964   0.38698   0.00000  Uiso   1.00
C360   C     0.71278   0.66037   0.19139   0.00000  Uiso   1.00
C361   C     0.95388   0.33963   0.30861   0.00000  Uiso   1.00
C362   C     0.82830   0.43512   0.21616   0.00000  Uiso   1.00
C363   C     0.80489   0.53178   0.05782   0.00000  Uiso   1.00
C364   C     0.83836   0.56488   0.28384   0.00000  Uiso   1.00
C365   C     0.86177   0.46822   0.44218   0.00000  Uiso   1.00
C366   C     0.75707   0.55364   0.03844   0.00000  Uiso   1.00
C367   C     0.90960   0.44636   0.46156   0.00000  Uiso   1.00
C368   C     0.68357   0.65011   0.23790   0.00000  Uiso   1.00
C369   C     0.98310   0.34989   0.26209   0.00000  Uiso   1.00
C370   C     0.68748   0.50393   0.34105   0.00000  Uiso   1.00
H371   H     0.73084   0.57605   0.06275   0.00000  Uiso   1.00
H372   H     0.82715   0.56762   0.13170   0.00000  Uiso   1.00
H373   H     0.76501   0.52621   0.12589   0.00000  Uiso   1.00
H374   H     0.83952   0.43237   0.36830   0.00000  Uiso   1.00
H375   H     0.83706   0.50408   0.37542   0.00000  Uiso   1.00
H376   H     0.90166   0.47378   0.37411   0.00000  Uiso   1.00
H377   H     0.70672   0.62565   0.16390   0.00000  Uiso   1.00
H378   H     0.69583   0.36001   0.17269   0.00000  Uiso   1.00
H379   H     0.75860   0.33396   0.20055   0.00000  Uiso   1.00
H380   H     0.95991   0.37436   0.33609   0.00000  Uiso   1.00
H381   H     0.90806   0.66601   0.29944   0.00000  Uiso   1.00
H382   H     0.93582   0.42395   0.43725   0.00000  Uiso   1.00
H383   H     0.97085   0.64000   0.32732   0.00000  Uiso   1.00
H384   H     0.79237   0.41815   0.19145   0.00000  Uiso   1.00
H385   H     0.86418   0.43808   0.19281   0.00000  Uiso   1.00
H386   H     0.83617   0.40874   0.24550   0.00000  Uiso   1.00
H387   H     0.87429   0.58184   0.30856   0.00000  Uiso   1.00
H388   H     0.83051   0.59126   0.25450   0.00000  Uiso   1.00
H389   H     0.80248   0.56192   0.30719   0.00000  Uiso   1.00
H390   H     0.90935   0.54677   0.10629   0.00000  Uiso   1.00
H391   H     0.75732   0.45323   0.39371   0.00000  Uiso   1.00
H392   H     0.70036   0.43386   0.09241   0.00000  Uiso   1.00
H393   H     0.96631   0.56614   0.40759   0.00000  Uiso   1.00
H394   H     0.99845   0.58796   0.49445   0.00000  Uiso   1.00
H395   H     0.66822   0.41204   0.00555   0.00000  Uiso   1.00
H396   H     0.82961   0.49592   0.12458   0.00000  Uiso   1.00
N397   N     0.81362   0.48550   0.23739   0.00000  Uiso   1.00
N398   N     0.85305   0.51450   0.26260   0.00000  Uiso   1.00
O399   O     0.96386   0.57964   0.25309   0.00000  Uiso   1.00
O400   O     0.70281   0.42036   0.24690   0.00000  Uiso   1.00
O401   O     0.72488   0.57035   0.24501   0.00000  Uiso   1.00
O402   O     0.94178   0.42965   0.25498   0.00000  Uiso   1.00
O403   O     0.96995   0.50730   0.32247   0.00000  Uiso   1.00
O404   O     0.69672   0.49270   0.17753   0.00000  Uiso   1.00
O405   O     0.73098   0.49801   0.31439   0.00000  Uiso   1.00
O406   O     0.93569   0.50199   0.18561   0.00000  Uiso   1.00
Zn407  Zn    0.93700   0.50621   0.25539   0.00000  Uiso   1.00
Zn408  Zn    0.72967   0.49379   0.24460   0.00000  Uiso   1.00
C409   C     0.01412   0.93113   0.24855   0.00000  Uiso   1.00
C410   C     0.31252   0.82940   0.15895   0.00000  Uiso   1.00
C411   C     0.03086   0.84445   0.39400   0.00000  Uiso   1.00
C412   C     0.30248   0.82222   0.10600   0.00000  Uiso   1.00
C413   C     0.02175   0.89454   0.47152   0.00000  Uiso   1.00
C414   C     0.31158   0.77212   0.02848   0.00000  Uiso   1.00
C415   C     0.00240   0.88098   0.42283   0.00000  Uiso   1.00
C416   C     0.33094   0.78569   0.07717   0.00000  Uiso   1.00
C417   C     0.07602   0.82028   0.41437   0.00000  Uiso   1.00
C418   C     0.25732   0.84638   0.08563   0.00000  Uiso   1.00
C419   C     0.10269   0.84080   0.45908   0.00000  Uiso   1.00
C420   C     0.31921   0.73554   0.25145   0.00000  Uiso   1.00
C421   C     0.23064   0.82587   0.04091   0.00000  Uiso   1.00
C422   C     0.07226   0.87516   0.48959   0.00000  Uiso   1.00
C423   C     0.26108   0.79151   0.01041   0.00000  Uiso   1.00
C424   C     0.15748   0.82695   0.47476   0.00000  Uiso   1.00
C425   C     0.17585   0.83971   0.02524   0.00000  Uiso   1.00
C426   C     0.14120   0.86369   0.11302   0.00000  Uiso   1.00
C427   C     0.19213   0.80297   0.38698   0.00000  Uiso   1.00
C428   C     0.04612   0.99370   0.19139   0.00000  Uiso   1.00
C429   C     0.28721   0.67296   0.30861   0.00000  Uiso   1.00
C430   C     0.16164   0.76845   0.21616   0.00000  Uiso   1.00
C431   C     0.13823   0.86512   0.05782   0.00000  Uiso   1.00
C432   C     0.17170   0.89821   0.28384   0.00000  Uiso   1.00
C433   C     0.19511   0.80155   0.44218   0.00000  Uiso   1.00
C434   C     0.09040   0.88698   0.03844   0.00000  Uiso   1.00
C435   C     0.24293   0.77969   0.46156   0.00000  Uiso   1.00
C436   C     0.01690   0.98344   0.23790   0.00000  Uiso   1.00
C437   C     0.31643   0.68322   0.26209   0.00000  Uiso   1.00
C438   C     0.02082   0.83726   0.34105   0.00000  Uiso   1.00
H439   H     0.06418   0.90939   0.06275   0.00000  Uiso   1.00
H440   H     0.16048   0.90096   0.13170   0.00000  Uiso   1.00
H441   H     0.09834   0.85955   0.12589   0.00000  Uiso   1.00
H442   H     0.17285   0.76571   0.36830   0.00000  Uiso   1.00
H443   H     0.17039   0.83741   0.37542   0.00000  Uiso   1.00
H444   H     0.23499   0.80712   0.37411   0.00000  Uiso   1.00
H445   H     0.04005   0.95898   0.16390   0.00000  Uiso   1.00
H446   H     0.02917   0.69334   0.17269   0.00000  Uiso   1.00
H447   H     0.09194   0.66729   0.20055   0.00000  Uiso   1.00
H448   H     0.29325   0.70769   0.33609   0.00000  Uiso   1.00
H449   H     0.24140   0.99934   0.29944   0.00000  Uiso   1.00
H450   H     0.26916   0.75728   0.43725   0.00000  Uiso   1.00
H451   H     0.30419   0.97334   0.32732   0.00000  Uiso   1.00
H452   H     0.12571   0.75149   0.19145   0.00000  Uiso   1.00
H453   H     0.19751   0.77141   0.19281   0.00000  Uiso   1.00
H454   H     0.16950   0.74207   0.24550   0.00000  Uiso   1.00
H455   H     0.20763   0.91517   0.30856   0.00000  Uiso   1.00
H456   H     0.16384   0.92460   0.25450   0.00000  Uiso   1.00
H457   H     0.13582   0.89525   0.30719   0.00000  Uiso   1.00
H458   H     0.24268   0.88010   0.10629   0.00000  Uiso   1.00
H459   H     0.09065   0.78657   0.39371   0.00000  Uiso   1.00
H460   H     0.03369   0.76720   0.09241   0.00000  Uiso   1.00
H461   H     0.29964   0.89947   0.40759   0.00000  Uiso   1.00
H462   H     0.33178   0.92129   0.49445   0.00000  Uiso   1.00
H463   H     0.00155   0.74538   0.00555   0.00000  Uiso   1.00
H464   H     0.16294   0.82926   0.12458   0.00000  Uiso   1.00
N465   N     0.14695   0.81883   0.23739   0.00000  Uiso   1.00
N466   N     0.18638   0.84784   0.26260   0.00000  Uiso   1.00
O467   O     0.29719   0.91298   0.25309   0.00000  Uiso   1.00
O468   O     0.03614   0.75369   0.24690   0.00000  Uiso   1.00
O469   O     0.05822   0.90368   0.24501   0.00000  Uiso   1.00
O470   O     0.27512   0.76298   0.25498   0.00000  Uiso   1.00
O471   O     0.30328   0.84063   0.32247   0.00000  Uiso   1.00
O472   O     0.03005   0.82603   0.17753   0.00000  Uiso   1.00
O473   O     0.06431   0.83134   0.31439   0.00000  Uiso   1.00
O474   O     0.26902   0.83533   0.18561   0.00000  Uiso   1.00
Zn475  Zn    0.27033   0.83954   0.25539   0.00000  Uiso   1.00
Zn476  Zn    0.06300   0.82713   0.24460   0.00000  Uiso   1.00
C477   C     0.34745   0.93113   0.24855   0.00000  Uiso   1.00
C478   C     0.64585   0.82940   0.15895   0.00000  Uiso   1.00
C479   C     0.36419   0.84445   0.39400   0.00000  Uiso   1.00
C480   C     0.63581   0.82222   0.10600   0.00000  Uiso   1.00
C481   C     0.35508   0.89454   0.47152   0.00000  Uiso   1.00
C482   C     0.64492   0.77212   0.02848   0.00000  Uiso   1.00
C483   C     0.33573   0.88098   0.42283   0.00000  Uiso   1.00
C484   C     0.66427   0.78569   0.07717   0.00000  Uiso   1.00
C485   C     0.40935   0.82028   0.41437   0.00000  Uiso   1.00
C486   C     0.59065   0.84638   0.08563   0.00000  Uiso   1.00
C487   C     0.43602   0.84080   0.45908   0.00000  Uiso   1.00
C488   C     0.65254   0.73554   0.25145   0.00000  Uiso   1.00
C489   C     0.56397   0.82587   0.04091   0.00000  Uiso   1.00
C490   C     0.40559   0.87516   0.48959   0.00000  Uiso   1.00
C491   C     0.59441   0.79151   0.01041   0.00000  Uiso   1.00
C492   C     0.49081   0.82695   0.47476   0.00000  Uiso   1.00
C493   C     0.50919   0.83971   0.02524   0.00000  Uiso   1.00
C494   C     0.47454   0.86369   0.11302   0.00000  Uiso   1.00
C495   C     0.52546   0.80297   0.38698   0.00000  Uiso   1.00
C496   C     0.37945   0.99370   0.19139   0.00000  Uiso   1.00
C497   C     0.62054   0.67296   0.30861   0.00000  Uiso   1.00
C498   C     0.49497   0.76845   0.21616   0.00000  Uiso   1.00
C499   C     0.47156   0.86512   0.05782   0.00000  Uiso   1.00
C500   C     0.50503   0.89821   0.28384   0.00000  Uiso   1.00
C501   C     0.52844   0.80155   0.44218   0.00000  Uiso   1.00
C502   C     0.42374   0.88698   0.03844   0.00000  Uiso   1.00
C503   C     0.57626   0.77969   0.46156   0.00000  Uiso   1.00
C504   C     0.35023   0.98344   0.23790   0.00000  Uiso   1.00
C505   C     0.64977   0.68322   0.26209   0.00000  Uiso   1.00
C506   C     0.35415   0.83726   0.34105   0.00000  Uiso   1.00
H507   H     0.39751   0.90939   0.06275   0.00000  Uiso   1.00
H508   H     0.49381   0.90096   0.13170   0.00000  Uiso   1.00
H509   H     0.43168   0.85955   0.12589   0.00000  Uiso   1.00
H510   H     0.50618   0.76571   0.36830   0.00000  Uiso   1.00
H511   H     0.50373   0.83741   0.37542   0.00000  Uiso   1.00
H512   H     0.56832   0.80712   0.37411   0.00000  Uiso   1.00
H513   H     0.37338   0.95898   0.16390   0.00000  Uiso   1.00
H514   H     0.36250   0.69334   0.17269   0.00000  Uiso   1.00
H515   H     0.42527   0.66729   0.20055   0.00000  Uiso   1.00
H516   H     0.62658   0.70769   0.33609   0.00000  Uiso   1.00
H517   H     0.57473   0.99934   0.29944   0.00000  Uiso   1.00
H518   H     0.60249   0.75728   0.43725   0.00000  Uiso   1.00
H519   H     0.63752   0.97334   0.32732   0.00000  Uiso   1.00
H520   H     0.45904   0.75149   0.19145   0.00000  Uiso   1.00
H521   H     0.53085   0.77141   0.19281   0.00000  Uiso   1.00
H522   H     0.50283   0.74207   0.24550   0.00000  Uiso   1.00
H523   H     0.54096   0.91517   0.30856   0.00000  Uiso   1.00
H524   H     0.49717   0.92460   0.25450   0.00000  Uiso   1.00
H525   H     0.46915   0.89525   0.30719   0.00000  Uiso   1.00
H526   H     0.57602   0.88010   0.10629   0.00000  Uiso   1.00
H527   H     0.42398   0.78657   0.39371   0.00000  Uiso   1.00
H528   H     0.36702   0.76720   0.09241   0.00000  Uiso   1.00
H529   H     0.63298   0.89947   0.40759   0.00000  Uiso   1.00
H530   H     0.66512   0.92129   0.49445   0.00000  Uiso   1.00
H531   H     0.33488   0.74538   0.00555   0.00000  Uiso   1.00
H532   H     0.49627   0.82926   0.12458   0.00000  Uiso   1.00
N533   N     0.48029   0.81883   0.23739   0.00000  Uiso   1.00
N534   N     0.51971   0.84784   0.26260   0.00000  Uiso   1.00
O535   O     0.63052   0.91298   0.25309   0.00000  Uiso   1.00
O536   O     0.36948   0.75369   0.24690   0.00000  Uiso   1.00
O537   O     0.39155   0.90368   0.24501   0.00000  Uiso   1.00
O538   O     0.60845   0.76298   0.25498   0.00000  Uiso   1.00
O539   O     0.63662   0.84063   0.32247   0.00000  Uiso   1.00
O540   O     0.36338   0.82603   0.17753   0.00000  Uiso   1.00
O541   O     0.39764   0.83134   0.31439   0.00000  Uiso   1.00
O542   O     0.60236   0.83533   0.18561   0.00000  Uiso   1.00
Zn543  Zn    0.60366   0.83954   0.25539   0.00000  Uiso   1.00
Zn544  Zn    0.39634   0.82713   0.24460   0.00000  Uiso   1.00
C545   C     0.68079   0.93113   0.24855   0.00000  Uiso   1.00
C546   C     0.97918   0.82940   0.15895   0.00000  Uiso   1.00
C547   C     0.69752   0.84445   0.39400   0.00000  Uiso   1.00
C548   C     0.96914   0.82222   0.10600   0.00000  Uiso   1.00
C549   C     0.68842   0.89454   0.47152   0.00000  Uiso   1.00
C550   C     0.97825   0.77212   0.02848   0.00000  Uiso   1.00
C551   C     0.66906   0.88098   0.42283   0.00000  Uiso   1.00
C552   C     0.99760   0.78569   0.07717   0.00000  Uiso   1.00
C553   C     0.74268   0.82028   0.41437   0.00000  Uiso   1.00
C554   C     0.92398   0.84638   0.08563   0.00000  Uiso   1.00
C555   C     0.76936   0.84080   0.45908   0.00000  Uiso   1.00
C556   C     0.98588   0.73554   0.25145   0.00000  Uiso   1.00
C557   C     0.89731   0.82587   0.04091   0.00000  Uiso   1.00
C558   C     0.73892   0.87516   0.48959   0.00000  Uiso   1.00
C559   C     0.92774   0.79151   0.01041   0.00000  Uiso   1.00
C560   C     0.82415   0.82695   0.47476   0.00000  Uiso   1.00
C561   C     0.84252   0.83971   0.02524   0.00000  Uiso   1.00
C562   C     0.80787   0.86369   0.11302   0.00000  Uiso   1.00
C563   C     0.85880   0.80297   0.38698   0.00000  Uiso   1.00
C564   C     0.71278   0.99370   0.19139   0.00000  Uiso   1.00
C565   C     0.95388   0.67296   0.30861   0.00000  Uiso   1.00
C566   C     0.82830   0.76845   0.21616   0.00000  Uiso   1.00
C567   C     0.80489   0.86512   0.05782   0.00000  Uiso   1.00
C568   C     0.83836   0.89821   0.28384   0.00000  Uiso   1.00
C569   C     0.86177   0.80155   0.44218   0.00000  Uiso   1.00
C570   C     0.75707   0.88698   0.03844   0.00000  Uiso   1.00
C571   C     0.90960   0.77969   0.46156   0.00000  Uiso   1.00
C572   C     0.68357   0.98344   0.23790   0.00000  Uiso   1.00
C573   C     0.98310   0.68322   0.26209   0.00000  Uiso   1.00
C574   C     0.68748   0.83726   0.34105   0.00000  Uiso   1.00
H575   H     0.73084   0.90939   0.06275   0.00000  Uiso   1.00
H576   H     0.82715   0.90096   0.13170   0.00000  Uiso   1.00
H577   H     0.76501   0.85955   0.12589   0.00000  Uiso   1.00
H578   H     0.83952   0.76571   0.36830   0.00000  Uiso   1.00
H579   H     0.83706   0.83741   0.37542   0.00000  Uiso   1.00
H580   H     0.90166   0.80712   0.37411   0.00000  Uiso   1.00
H581   H     0.70672   0.95898   0.16390   0.00000  Uiso   1.00
H582   H     0.69583   0.69334   0.17269   0.00000  Uiso   1.00
H583   H     0.75860   0.66729   0.20055   0.00000  Uiso   1.00
H584   H     0.95991   0.70769   0.33609   0.00000  Uiso   1.00
H585   H     0.90806   0.99934   0.29944   0.00000  Uiso   1.00
H586   H     0.93582   0.75728   0.43725   0.00000  Uiso   1.00
H587   H     0.97085   0.97334   0.32732   0.00000  Uiso   1.00
H588   H     0.79237   0.75149   0.19145   0.00000  Uiso   1.00
H589   H     0.86418   0.77141   0.19281   0.00000  Uiso   1.00
H590   H     0.83617   0.74207   0.24550   0.00000  Uiso   1.00
H591   H     0.87429   0.91517   0.30856   0.00000  Uiso   1.00
H592   H     0.83051   0.92460   0.25450   0.00000  Uiso   1.00
H593   H     0.80248   0.89525   0.30719   0.00000  Uiso   1.00
H594   H     0.90935   0.88010   0.10629   0.00000  Uiso   1.00
H595   H     0.75732   0.78657   0.39371   0.00000  Uiso   1.00
H596   H     0.70036   0.76720   0.09241   0.00000  Uiso   1.00
H597   H     0.96631   0.89947   0.40759   0.00000  Uiso   1.00
H598   H     0.99845   0.92129   0.49445   0.00000  Uiso   1.00
H599   H     0.66822   0.74538   0.00555   0.00000  Uiso   1.00
H600   H     0.82961   0.82926   0.12458   0.00000  Uiso   1.00
N601   N     0.81362   0.81883   0.23739   0.00000  Uiso   1.00
N602   N     0.85305   0.84784   0.26260   0.00000  Uiso   1.00
O603   O     0.96386   0.91298   0.25309   0.00000  Uiso   1.00
O604   O     0.70281   0.75369   0.24690   0.00000  Uiso   1.00
O605   O     0.72488   0.90368   0.24501   0.00000  Uiso   1.00
O606   O     0.94178   0.76298   0.25498   0.00000  Uiso   1.00
O607   O     0.96995   0.84063   0.32247   0.00000  Uiso   1.00
O608   O     0.69672   0.82603   0.17753   0.00000  Uiso   1.00
O609   O     0.73098   0.83134   0.31439   0.00000  Uiso   1.00
O610   O     0.93569   0.83533   0.18561   0.00000  Uiso   1.00
Zn611  Zn    0.93700   0.83954   0.25539   0.00000  Uiso   1.00
Zn612  Zn    0.72967   0.82713   0.24460   0.00000  Uiso   1.00
C613   C     0.01412   0.26446   0.74855   0.00000  Uiso   1.00
C614   C     0.31252   0.16274   0.65895   0.00000  Uiso   1.00
C615   C     0.03086   0.17778   0.89400   0.00000  Uiso   1.00
C616   C     0.30248   0.15555   0.60600   0.00000  Uiso   1.00
C617   C     0.02175   0.22788   0.97152   0.00000  Uiso   1.00
C618   C     0.31158   0.10546   0.52848   0.00000  Uiso   1.00
C619   C     0.00240   0.21431   0.92283   0.00000  Uiso   1.00
C620   C     0.33094   0.11902   0.57717   0.00000  Uiso   1.00
C621   C     0.07602   0.15362   0.91437   0.00000  Uiso   1.00
C622   C     0.25732   0.17972   0.58563   0.00000  Uiso   1.00
C623   C     0.10269   0.17413   0.95908   0.00000  Uiso   1.00
C624   C     0.31921   0.06887   0.75145   0.00000  Uiso   1.00
C625   C     0.23064   0.15920   0.54091   0.00000  Uiso   1.00
C626   C     0.07226   0.20849   0.98959   0.00000  Uiso   1.00
C627   C     0.26108   0.12484   0.51041   0.00000  Uiso   1.00
C628   C     0.15748   0.16029   0.97476   0.00000  Uiso   1.00
C629   C     0.17585   0.17305   0.52524   0.00000  Uiso   1.00
C630   C     0.14120   0.19703   0.61302   0.00000  Uiso   1.00
C631   C     0.19213   0.13631   0.88698   0.00000  Uiso   1.00
C632   C     0.04612   0.32704   0.69139   0.00000  Uiso   1.00
C633   C     0.28721   0.00629   0.80861   0.00000  Uiso   1.00
C634   C     0.16164   0.10178   0.71616   0.00000  Uiso   1.00
C635   C     0.13823   0.19845   0.55782   0.00000  Uiso   1.00
C636   C     0.17170   0.23155   0.78384   0.00000  Uiso   1.00
C637   C     0.19511   0.13488   0.94218   0.00000  Uiso   1.00
C638   C     0.09040   0.22031   0.53844   0.00000  Uiso   1.00
C639   C     0.24293   0.11302   0.96156   0.00000  Uiso   1.00
C640   C     0.01690   0.31678   0.73790   0.00000  Uiso   1.00
C641   C     0.31643   0.01656   0.76209   0.00000  Uiso   1.00
C642   C     0.02082   0.17060   0.84105   0.00000  Uiso   1.00
H643   H     0.06418   0.24272   0.56275   0.00000  Uiso   1.00
H644   H     0.16048   0.23429   0.63170   0.00000  Uiso   1.00
H645   H     0.09834   0.19288   0.62589   0.00000  Uiso   1.00
H646   H     0.17285   0.09904   0.86830   0.00000  Uiso   1.00
H647   H     0.17039   0.17074   0.87542   0.00000  Uiso   1.00
H648   H     0.23499   0.14045   0.87411   0.00000  Uiso   1.00
H649   H     0.04005   0.29232   0.66390   0.00000  Uiso   1.00
H650   H     0.02917   0.02668   0.67269   0.00000  Uiso   1.00
H651   H     0.09194   0.00062   0.70055   0.00000  Uiso   1.00
H652   H     0.29325   0.04102   0.83609   0.00000  Uiso   1.00
H653   H     0.24140   0.33267   0.79944   0.00000  Uiso   1.00
H654   H     0.26916   0.09061   0.93725   0.00000  Uiso   1.00
H655   H     0.30419   0.30667   0.82732   0.00000  Uiso   1.00
H656   H     0.12571   0.08482   0.69145   0.00000  Uiso   1.00
H657   H     0.19751   0.10475   0.69281   0.00000  Uiso   1.00
H658   H     0.16950   0.07541   0.74550   0.00000  Uiso   1.00
H659   H     0.20763   0.24851   0.80856   0.00000  Uiso   1.00
H660   H     0.16384   0.25793   0.75450   0.00000  Uiso   1.00
H661   H     0.13582   0.22858   0.80719   0.00000  Uiso   1.00
H662   H     0.24268   0.21343   0.60629   0.00000  Uiso   1.00
H663   H     0.09065   0.11990   0.89371   0.00000  Uiso   1.00
H664   H     0.03369   0.10053   0.59241   0.00000  Uiso   1.00
H665   H     0.29964   0.23280   0.90759   0.00000  Uiso   1.00
H666   H     0.33178   0.25462   0.99445   0.00000  Uiso   1.00
H667   H     0.00155   0.07871   0.50555   0.00000  Uiso   1.00
H668   H     0.16294   0.16259   0.62458   0.00000  Uiso   1.00
N669   N     0.14695   0.15216   0.73739   0.00000  Uiso   1.00
N670   N     0.18638   0.18117   0.76260   0.00000  Uiso   1.00
O671   O     0.29719   0.24631   0.75309   0.00000  Uiso   1.00
O672   O     0.03614   0.08702   0.74690   0.00000  Uiso   1.00
O673   O     0.05822   0.23702   0.74501   0.00000  Uiso   1.00
O674   O     0.27512   0.09632   0.75498   0.00000  Uiso   1.00
O675   O     0.30328   0.17397   0.82247   0.00000  Uiso   1.00
O676   O     0.03005   0.15937   0.67753   0.00000  Uiso   1.00
O677   O     0.06431   0.16467   0.81439   0.00000  Uiso   1.00
O678   O     0.26902   0.16866   0.68561   0.00000  Uiso   1.00
Zn679  Zn    0.27033   0.17287   0.75539   0.00000  Uiso   1.00
Zn680  Zn    0.06300   0.16046   0.74460   0.00000  Uiso   1.00
C681   C     0.34745   0.26446   0.74855   0.00000  Uiso   1.00
C682   C     0.64585   0.16274   0.65895   0.00000  Uiso   1.00
C683   C     0.36419   0.17778   0.89400   0.00000  Uiso   1.00
C684   C     0.63581   0.15555   0.60600   0.00000  Uiso   1.00
C685   C     0.35508   0.22788   0.97152   0.00000  Uiso   1.00
C686   C     0.64492   0.10546   0.52848   0.00000  Uiso   1.00
C687   C     0.33573   0.21431   0.92283   0.00000  Uiso   1.00
C688   C     0.66427   0.11902   0.57717   0.00000  Uiso   1.00
C689   C     0.40935   0.15362   0.91437   0.00000  Uiso   1.00
C690   C     0.59065   0.17972   0.58563   0.00000  Uiso   1.00
C691   C     0.43602   0.17413   0.95908   0.00000  Uiso   1.00
C692   C     0.65254   0.06887   0.75145   0.00000  Uiso   1.00
C693   C     0.56397   0.15920   0.54091   0.00000  Uiso   1.00
C694   C     0.40559   0.20849   0.98959   0.00000  Uiso   1.00
C695   C     0.59441   0.12484   0.51041   0.00000  Uiso   1.00
C696   C     0.49081   0.16029   0.97476   0.00000  Uiso   1.00
C697   C     0.50919   0.17305   0.52524   0.00000  Uiso   1.00
C698   C     0.47454   0.19703   0.61302   0.00000  Uiso   1.00
C699   C     0.52546   0.13631   0.88698   0.00000  Uiso   1.00
C700   C     0.37945   0.32704   0.69139   0.00000  Uiso   1.00
C701   C     0.62054   0.00629   0.80861   0.00000  Uiso   1.00
C702   C     0.49497   0.10178   0.71616   0.00000  Uiso   1.00
C703   C     0.47156   0.19845   0.55782   0.00000  Uiso   1.00
C704   C     0.50503   0.23155   0.78384   0.00000  Uiso   1.00
C705   C     0.52844   0.13488   0.94218   0.00000  Uiso   1.00
C706   C     0.42374   0.22031   0.53844   0.00000  Uiso   1.00
C707   C     0.57626   0.11302   0.96156   0.00000  Uiso   1.00
C708   C     0.35023   0.31678   0.73790   0.00000  Uiso   1.00
C709   C     0.64977   0.01656   0.76209   0.00000  Uiso   1.00
C710   C     0.35415   0.17060   0.84105   0.00000  Uiso   1.00
H711   H     0.39751   0.24272   0.56275   0.00000  Uiso   1.00
H712   H     0.49381   0.23429   0.63170   0.00000  Uiso   1.00
H713   H     0.43168   0.19288   0.62589   0.00000  Uiso   1.00
H714   H     0.50618   0.09904   0.86830   0.00000  Uiso   1.00
H715   H     0.50373   0.17074   0.87542   0.00000  Uiso   1.00
H716   H     0.56832   0.14045   0.87411   0.00000  Uiso   1.00
H717   H     0.37338   0.29232   0.66390   0.00000  Uiso   1.00
H718   H     0.36250   0.02668   0.67269   0.00000  Uiso   1.00
H719   H     0.42527   0.00062   0.70055   0.00000  Uiso   1.00
H720   H     0.62658   0.04102   0.83609   0.00000  Uiso   1.00
H721   H     0.57473   0.33267   0.79944   0.00000  Uiso   1.00
H722   H     0.60249   0.09061   0.93725   0.00000  Uiso   1.00
H723   H     0.63752   0.30667   0.82732   0.00000  Uiso   1.00
H724   H     0.45904   0.08482   0.69145   0.00000  Uiso   1.00
H725   H     0.53085   0.10475   0.69281   0.00000  Uiso   1.00
H726   H     0.50283   0.07541   0.74550   0.00000  Uiso   1.00
H727   H     0.54096   0.24851   0.80856   0.00000  Uiso   1.00
H728   H     0.49717   0.25793   0.75450   0.00000  Uiso   1.00
H729   H     0.46915   0.22858   0.80719   0.00000  Uiso   1.00
H730   H     0.57602   0.21343   0.60629   0.00000  Uiso   1.00
H731   H     0.42398   0.11990   0.89371   0.00000  Uiso   1.00
H732   H     0.36702   0.10053   0.59241   0.00000  Uiso   1.00
H733   H     0.63298   0.23280   0.90759   0.00000  Uiso   1.00
H734   H     0.66512   0.25462   0.99445   0.00000  Uiso   1.00
H735   H     0.33488   0.07871   0.50555   0.00000  Uiso   1.00
H736   H     0.49627   0.16259   0.62458   0.00000  Uiso   1.00
N737   N     0.48029   0.15216   0.73739   0.00000  Uiso   1.00
N738   N     0.51971   0.18117   0.76260   0.00000  Uiso   1.00
O739   O     0.63052   0.24631   0.75309   0.00000  Uiso   1.00
O740   O     0.36948   0.08702   0.74690   0.00000  Uiso   1.00
O741   O     0.39155   0.23702   0.74501   0.00000  Uiso   1.00
O742   O     0.60845   0.09632   0.75498   0.00000  Uiso   1.00
O743   O     0.63662   0.17397   0.82247   0.00000  Uiso   1.00
O744   O     0.36338   0.15937   0.67753   0.00000  Uiso   1.00
O745   O     0.39764   0.16467   0.81439   0.00000  Uiso   1.00
O746   O     0.60236   0.16866   0.68561   0.00000  Uiso   1.00
Zn747  Zn    0.60366   0.17287   0.75539   0.00000  Uiso   1.00
Zn748  Zn    0.39634   0.16046   0.74460   0.00000  Uiso   1.00
C749   C     0.68079   0.26446   0.74855   0.00000  Uiso   1.00
C750   C     0.97918   0.16274   0.65895   0.00000  Uiso   1.00
C751   C     0.69752   0.17778   0.89400   0.00000  Uiso   1.00
C752   C     0.96914   0.15555   0.60600   0.00000  Uiso   1.00
C753   C     0.68842   0.22788   0.97152   0.00000  Uiso   1.00
C754   C     0.97825   0.10546   0.52848   0.00000  Uiso   1.00
C755   C     0.66906   0.21431   0.92283   0.00000  Uiso   1.00
C756   C     0.99760   0.11902   0.57717   0.00000  Uiso   1.00
C757   C     0.74268   0.15362   0.91437   0.00000  Uiso   1.00
C758   C     0.92398   0.17972   0.58563   0.00000  Uiso   1.00
C759   C     0.76936   0.17413   0.95908   0.00000  Uiso   1.00
C760   C     0.98588   0.06887   0.75145   0.00000  Uiso   1.00
C761   C     0.89731   0.15920   0.54091   0.00000  Uiso   1.00
C762   C     0.73892   0.20849   0.98959   0.00000  Uiso   1.00
C763   C     0.92774   0.12484   0.51041   0.00000  Uiso   1.00
C764   C     0.82415   0.16029   0.97476   0.00000  Uiso   1.00
C765   C     0.84252   0.17305   0.52524   0.00000  Uiso   1.00
C766   C     0.80787   0.19703   0.61302   0.00000  Uiso   1.00
C767   C     0.85880   0.13631   0.88698   0.00000  Uiso   1.00
C768   C     0.71278   0.32704   0.69139   0.00000  Uiso   1.00
C769   C     0.95388   0.00629   0.80861   0.00000  Uiso   1.00
C770   C     0.82830   0.10178   0.71616   0.00000  Uiso   1.00
C771   C     0.80489   0.19845   0.55782   0.00000  Uiso   1.00
C772   C     0.83836   0.23155   0.78384   0.00000  Uiso   1.00
C773   C     0.86177   0.13488   0.94218   0.00000  Uiso   1.00
C774   C     0.75707   0.22031   0.53844   0.00000  Uiso   1.00
C775   C     0.90960   0.11302   0.96156   0.00000  Uiso   1.00
C776   C     0.68357   0.31678   0.73790   0.00000  Uiso   1.00
C777   C     0.98310   0.01656   0.76209   0.00000  Uiso   1.00
C778   C     0.68748   0.17060   0.84105   0.00000  Uiso   1.00
H779   H     0.73084   0.24272   0.56275   0.00000  Uiso   1.00
H780   H     0.82715   0.23429   0.63170   0.00000  Uiso   1.00
H781   H     0.76501   0.19288   0.62589   0.00000  Uiso   1.00
H782   H     0.83952   0.09904   0.86830   0.00000  Uiso   1.00
H783   H     0.83706   0.17074   0.87542   0.00000  Uiso   1.00
H784   H     0.90166   0.14045   0.87411   0.00000  Uiso   1.00
H785   H     0.70672   0.29232   0.66390   0.00000  Uiso   1.00
H786   H     0.69583   0.02668   0.67269   0.00000  Uiso   1.00
H787   H     0.75860   0.00062   0.70055   0.00000  Uiso   1.00
H788   H     0.95991   0.04102   0.83609   0.00000  Uiso   1.00
H789   H     0.90806   0.33267   0.79944   0.00000  Uiso   1.00
H790   H     0.93582   0.09061   0.93725   0.00000  Uiso   1.00
H791   H     0.97085   0.30667   0.82732   0.00000  Uiso   1.00
H792   H     0.79237   0.08482   0.69145   0.00000  Uiso   1.00
H793   H     0.86418   0.10475   0.69281   0.00000  Uiso   1.00
H794   H     0.83617   0.07541   0.74550   0.00000  Uiso   1.00
H795   H     0.87429   0.24851   0.80856   0.00000  Uiso   1.00
H796   H     0.83051   0.25793   0.75450   0.00000  Uiso   1.00
H797   H     0.80248   0.22858   0.80719   0.00000  Uiso   1.00
H798   H     0.90935   0.21343   0.60629   0.00000  Uiso   1.00
H799   H     0.75732   0.11990   0.89371   0.00000  Uiso   1.00
H800   H     0.70036   0.10053   0.59241   0.00000  Uiso   1.00
H801   H     0.96631   0.23280   0.90759   0.00000  Uiso   1.00
H802   H     0.99845   0.25462   0.99445   0.00000  Uiso   1.00
H803   H     0.66822   0.07871   0.50555   0.00000  Uiso   1.00
H804   H     0.82961   0.16259   0.62458   0.00000  Uiso   1.00
N805   N     0.81362   0.15216   0.73739   0.00000  Uiso   1.00
N806   N     0.85305   0.18117   0.76260   0.00000  Uiso   1.00
O807   O     0.96386   0.24631   0.75309   0.00000  Uiso   1.00
O808   O     0.70281   0.08702   0.74690   0.00000  Uiso   1.00
O809   O     0.72488   0.23702   0.74501   0.00000  Uiso   1.00
O810   O     0.94178   0.09632   0.75498   0.00000  Uiso   1.00
O811   O     0.96995   0.17397   0.82247   0.00000  Uiso   1.00
O812   O     0.69672   0.15937   0.67753   0.00000  Uiso   1.00
O813   O     0.73098   0.16467   0.81439   0.00000  Uiso   1.00
O814   O     0.93569   0.16866   0.68561   0.00000  Uiso   1.00
Zn815  Zn    0.93700   0.17287   0.75539   0.00000  Uiso   1.00
Zn816  Zn    0.72967   0.16046   0.74460   0.00000  Uiso   1.00
C817   C     0.01412   0.59780   0.74855   0.00000  Uiso   1.00
C818   C     0.31252   0.49607   0.65895   0.00000  Uiso   1.00
C819   C     0.03086   0.51111   0.89400   0.00000  Uiso   1.00
C820   C     0.30248   0.48889   0.60600   0.00000  Uiso   1.00
C821   C     0.02175   0.56121   0.97152   0.00000  Uiso   1.00
C822   C     0.31158   0.43879   0.52848   0.00000  Uiso   1.00
C823   C     0.00240   0.54764   0.92283   0.00000  Uiso   1.00
C824   C     0.33094   0.45235   0.57717   0.00000  Uiso   1.00
C825   C     0.07602   0.48695   0.91437   0.00000  Uiso   1.00
C826   C     0.25732   0.51305   0.58563   0.00000  Uiso   1.00
C827   C     0.10269   0.50747   0.95908   0.00000  Uiso   1.00
C828   C     0.31921   0.40220   0.75145   0.00000  Uiso   1.00
C829   C     0.23064   0.49253   0.54091   0.00000  Uiso   1.00
C830   C     0.07226   0.54183   0.98959   0.00000  Uiso   1.00
C831   C     0.26108   0.45817   0.51041   0.00000  Uiso   1.00
C832   C     0.15748   0.49362   0.97476   0.00000  Uiso   1.00
C833   C     0.17585   0.50638   0.52524   0.00000  Uiso   1.00
C834   C     0.14120   0.53036   0.61302   0.00000  Uiso   1.00
C835   C     0.19213   0.46964   0.88698   0.00000  Uiso   1.00
C836   C     0.04612   0.66037   0.69139   0.00000  Uiso   1.00
C837   C     0.28721   0.33963   0.80861   0.00000  Uiso   1.00
C838   C     0.16164   0.43512   0.71616   0.00000  Uiso   1.00
C839   C     0.13823   0.53178   0.55782   0.00000  Uiso   1.00
C840   C     0.17170   0.56488   0.78384   0.00000  Uiso   1.00
C841   C     0.19511   0.46822   0.94218   0.00000  Uiso   1.00
C842   C     0.09040   0.55364   0.53844   0.00000  Uiso   1.00
C843   C     0.24293   0.44636   0.96156   0.00000  Uiso   1.00
C844   C     0.01690   0.65011   0.73790   0.00000  Uiso   1.00
C845   C     0.31643   0.34989   0.76209   0.00000  Uiso   1.00
C846   C     0.02082   0.50393   0.84105   0.00000  Uiso   1.00
H847   H     0.06418   0.57605   0.56275   0.00000  Uiso   1.00
H848   H     0.16048   0.56762   0.63170   0.00000  Uiso   1.00
H849   H     0.09834   0.52621   0.62589   0.00000  Uiso   1.00
H850   H     0.17285   0.43237   0.86830   0.00000  Uiso   1.00
H851   H     0.17039   0.50408   0.87542   0.00000  Uiso   1.00
H852   H     0.23499   0.47378   0.87411   0.00000  Uiso   1.00
H853   H     0.04005   0.62565   0.66390   0.00000  Uiso   1.00
H854   H     0.02917   0.36001   0.67269   0.00000  Uiso   1.00
H855   H     0.09194   0.33396   0.70055   0.00000  Uiso   1.00
H856   H     0.29325   0.37436   0.83609   0.00000  Uiso   1.00
H857   H     0.24140   0.66601   0.79944   0.00000  Uiso   1.00
H858   H     0.26916   0.42395   0.93725   0.00000  Uiso   1.00
H859   H     0.30419   0.64000   0.82732   0.00000  Uiso   1.00
H860   H     0.12571   0.41815   0.69145   0.00000  Uiso   1.00
H861   H     0.19751   0.43808   0.69281   0.00000  Uiso   1.00
H862   H     0.16950   0.40874   0.74550   0.00000  Uiso   1.00
H863   H     0.20763   0.58184   0.80856   0.00000  Uiso   1.00
H864   H     0.16384   0.59126   0.75450   0.00000  Uiso   1.00
H865   H     0.13582   0.56192   0.80719   0.00000  Uiso   1.00
H866   H     0.24268   0.54677   0.60629   0.00000  Uiso   1.00
H867   H     0.09065   0.45323   0.89371   0.00000  Uiso   1.00
H868   H     0.03369   0.43386   0.59241   0.00000  Uiso   1.00
H869   H     0.29964   0.56614   0.90759   0.00000  Uiso   1.00
H870   H     0.33178   0.58796   0.99445   0.00000  Uiso   1.00
H871   H     0.00155   0.41204   0.50555   0.00000  Uiso   1.00
H872   H     0.16294   0.49592   0.62458   0.00000  Uiso   1.00
N873   N     0.14695   0.48550   0.73739   0.00000  Uiso   1.00
N874   N     0.18638   0.51450   0.76260   0.00000  Uiso   1.00
O875   O     0.29719   0.57964   0.75309   0.00000  Uiso   1.00
O876   O     0.03614   0.42036   0.74690   0.00000  Uiso   1.00
O877   O     0.05822   0.57035   0.74501   0.00000  Uiso   1.00
O878   O     0.27512   0.42965   0.75498   0.00000  Uiso   1.00
O879   O     0.30328   0.50730   0.82247   0.00000  Uiso   1.00
O880   O     0.03005   0.49270   0.67753   0.00000  Uiso   1.00
O881   O     0.06431   0.49801   0.81439   0.00000  Uiso   1.00
O882   O     0.26902   0.50199   0.68561   0.00000  Uiso   1.00
Zn883  Zn    0.27033   0.50621   0.75539   0.00000  Uiso   1.00
Zn884  Zn    0.06300   0.49379   0.74460   0.00000  Uiso   1.00
C885   C     0.34745   0.59780   0.74855   0.00000  Uiso   1.00
C886   C     0.64585   0.49607   0.65895   0.00000  Uiso   1.00
C887   C     0.36419   0.51111   0.89400   0.00000  Uiso   1.00
C888   C     0.63581   0.48889   0.60600   0.00000  Uiso   1.00
C889   C     0.35508   0.56121   0.97152   0.00000  Uiso   1.00
C890   C     0.64492   0.43879   0.52848   0.00000  Uiso   1.00
C891   C     0.33573   0.54764   0.92283   0.00000  Uiso   1.00
C892   C     0.66427   0.45235   0.57717   0.00000  Uiso   1.00
C893   C     0.40935   0.48695   0.91437   0.00000  Uiso   1.00
C894   C     0.59065   0.51305   0.58563   0.00000  Uiso   1.00
C895   C     0.43602   0.50747   0.95908   0.00000  Uiso   1.00
C896   C     0.65254   0.40220   0.75145   0.00000  Uiso   1.00
C897   C     0.56397   0.49253   0.54091   0.00000  Uiso   1.00
C898   C     0.40559   0.54183   0.98959   0.00000  Uiso   1.00
C899   C     0.59441   0.45817   0.51041   0.00000  Uiso   1.00
C900   C     0.49081   0.49362   0.97476   0.00000  Uiso   1.00
C901   C     0.50919   0.50638   0.52524   0.00000  Uiso   1.00
C902   C     0.47454   0.53036   0.61302   0.00000  Uiso   1.00
C903   C     0.52546   0.46964   0.88698   0.00000  Uiso   1.00
C904   C     0.37945   0.66037   0.69139   0.00000  Uiso   1.00
C905   C     0.62054   0.33963   0.80861   0.00000  Uiso   1.00
C906   C     0.49497   0.43512   0.71616   0.00000  Uiso   1.00
C907   C     0.47156   0.53178   0.55782   0.00000  Uiso   1.00
C908   C     0.50503   0.56488   0.78384   0.00000  Uiso   1.00
C909   C     0.52844   0.46822   0.94218   0.00000  Uiso   1.00
C910   C     0.42374   0.55364   0.53844   0.00000  Uiso   1.00
C911   C     0.57626   0.44636   0.96156   0.00000  Uiso   1.00
C912   C     0.35023   0.65011   0.73790   0.00000  Uiso   1.00
C913   C     0.64977   0.34989   0.76209   0.00000  Uiso   1.00
C914   C     0.35415   0.50393   0.84105   0.00000  Uiso   1.00
H915   H     0.39751   0.57605   0.56275   0.00000  Uiso   1.00
H916   H     0.49381   0.56762   0.63170   0.00000  Uiso   1.00
H917   H     0.43168   0.52621   0.62589   0.00000  Uiso   1.00
H918   H     0.50618   0.43237   0.86830   0.00000  Uiso   1.00
H919   H     0.50373   0.50408   0.87542   0.00000  Uiso   1.00
H920   H     0.56832   0.47378   0.87411   0.00000  Uiso   1.00
H921   H     0.37338   0.62565   0.66390   0.00000  Uiso   1.00
H922   H     0.36250   0.36001   0.67269   0.00000  Uiso   1.00
H923   H     0.42527   0.33396   0.70055   0.00000  Uiso   1.00
H924   H     0.62658   0.37436   0.83609   0.00000  Uiso   1.00
H925   H     0.57473   0.66601   0.79944   0.00000  Uiso   1.00
H926   H     0.60249   0.42395   0.93725   0.00000  Uiso   1.00
H927   H     0.63752   0.64000   0.82732   0.00000  Uiso   1.00
H928   H     0.45904   0.41815   0.69145   0.00000  Uiso   1.00
H929   H     0.53085   0.43808   0.69281   0.00000  Uiso   1.00
H930   H     0.50283   0.40874   0.74550   0.00000  Uiso   1.00
H931   H     0.54096   0.58184   0.80856   0.00000  Uiso   1.00
H932   H     0.49717   0.59126   0.75450   0.00000  Uiso   1.00
H933   H     0.46915   0.56192   0.80719   0.00000  Uiso   1.00
H934   H     0.57602   0.54677   0.60629   0.00000  Uiso   1.00
H935   H     0.42398   0.45323   0.89371   0.00000  Uiso   1.00
H936   H     0.36702   0.43386   0.59241   0.00000  Uiso   1.00
H937   H     0.63298   0.56614   0.90759   0.00000  Uiso   1.00
H938   H     0.66512   0.58796   0.99445   0.00000  Uiso   1.00
H939   H     0.33488   0.41204   0.50555   0.00000  Uiso   1.00
H940   H     0.49627   0.49592   0.62458   0.00000  Uiso   1.00
N941   N     0.48029   0.48550   0.73739   0.00000  Uiso   1.00
N942   N     0.51971   0.51450   0.76260   0.00000  Uiso   1.00
O943   O     0.63052   0.57964   0.75309   0.00000  Uiso   1.00
O944   O     0.36948   0.42036   0.74690   0.00000  Uiso   1.00
O945   O     0.39155   0.57035   0.74501   0.00000  Uiso   1.00
O946   O     0.60845   0.42965   0.75498   0.00000  Uiso   1.00
O947   O     0.63662   0.50730   0.82247   0.00000  Uiso   1.00
O948   O     0.36338   0.49270   0.67753   0.00000  Uiso   1.00
O949   O     0.39764   0.49801   0.81439   0.00000  Uiso   1.00
O950   O     0.60236   0.50199   0.68561   0.00000  Uiso   1.00
Zn951  Zn    0.60366   0.50621   0.75539   0.00000  Uiso   1.00
Zn952  Zn    0.39634   0.49379   0.74460   0.00000  Uiso   1.00
C953   C     0.68079   0.59780   0.74855   0.00000  Uiso   1.00
C954   C     0.97918   0.49607   0.65895   0.00000  Uiso   1.00
C955   C     0.69752   0.51111   0.89400   0.00000  Uiso   1.00
C956   C     0.96914   0.48889   0.60600   0.00000  Uiso   1.00
C957   C     0.68842   0.56121   0.97152   0.00000  Uiso   1.00
C958   C     0.97825   0.43879   0.52848   0.00000  Uiso   1.00
C959   C     0.66906   0.54764   0.92283   0.00000  Uiso   1.00
C960   C     0.99760   0.45235   0.57717   0.00000  Uiso   1.00
C961   C     0.74268   0.48695   0.91437   0.00000  Uiso   1.00
C962   C     0.92398   0.51305   0.58563   0.00000  Uiso   1.00
C963   C     0.76936   0.50747   0.95908   0.00000  Uiso   1.00
C964   C     0.98588   0.40220   0.75145   0.00000  Uiso   1.00
C965   C     0.89731   0.49253   0.54091   0.00000  Uiso   1.00
C966   C     0.73892   0.54183   0.98959   0.00000  Uiso   1.00
C967   C     0.92774   0.45817   0.51041   0.00000  Uiso   1.00
C968   C     0.82415   0.49362   0.97476   0.00000  Uiso   1.00
C969   C     0.84252   0.50638   0.52524   0.00000  Uiso   1.00
C970   C     0.80787   0.53036   0.61302   0.00000  Uiso   1.00
C971   C     0.85880   0.46964   0.88698   0.00000  Uiso   1.00
C972   C     0.71278   0.66037   0.69139   0.00000  Uiso   1.00
C973   C     0.95388   0.33963   0.80861   0.00000  Uiso   1.00
C974   C     0.82830   0.43512   0.71616   0.00000  Uiso   1.00
C975   C     0.80489   0.53178   0.55782   0.00000  Uiso   1.00
C976   C     0.83836   0.56488   0.78384   0.00000  Uiso   1.00
C977   C     0.86177   0.46822   0.94218   0.00000  Uiso   1.00
C978   C     0.75707   0.55364   0.53844   0.00000  Uiso   1.00
C979   C     0.90960   0.44636   0.96156   0.00000  Uiso   1.00
C980   C     0.68357   0.65011   0.73790   0.00000  Uiso   1.00
C981   C     0.98310   0.34989   0.76209   0.00000  Uiso   1.00
C982   C     0.68748   0.50393   0.84105   0.00000  Uiso   1.00
H983   H     0.73084   0.57605   0.56275   0.00000  Uiso   1.00
H984   H     0.82715   0.56762   0.63170   0.00000  Uiso   1.00
H985   H     0.76501   0.52621   0.62589   0.00000  Uiso   1.00
H986   H     0.83952   0.43237   0.86830   0.00000  Uiso   1.00
H987   H     0.83706   0.50408   0.87542   0.00000  Uiso   1.00
H988   H     0.90166   0.47378   0.87411   0.00000  Uiso   1.00
H989   H     0.70672   0.62565   0.66390   0.00000  Uiso   1.00
H990   H     0.69583   0.36001   0.67269   0.00000  Uiso   1.00
H991   H     0.75860   0.33396   0.70055   0.00000  Uiso   1.00
H992   H     0.95991   0.37436   0.83609   0.00000  Uiso   1.00
H993   H     0.90806   0.66601   0.79944   0.00000  Uiso   1.00
H994   H     0.93582   0.42395   0.93725   0.00000  Uiso   1.00
H995   H     0.97085   0.64000   0.82732   0.00000  Uiso   1.00
H996   H     0.79237   0.41815   0.69145   0.00000  Uiso   1.00
H997   H     0.86418   0.43808   0.69281   0.00000  Uiso   1.00
H998   H     0.83617   0.40874   0.74550   0.00000  Uiso   1.00
H999   H     0.87429   0.58184   0.80856   0.00000  Uiso   1.00
H1000  H     0.83051   0.59126   0.75450   0.00000  Uiso   1.00
H1001  H     0.80248   0.56192   0.80719   0.00000  Uiso   1.00
H1002  H     0.90935   0.54677   0.60629   0.00000  Uiso   1.00
H1003  H     0.75732   0.45323   0.89371   0.00000  Uiso   1.00
H1004  H     0.70036   0.43386   0.59241   0.00000  Uiso   1.00
H1005  H     0.96631   0.56614   0.90759   0.00000  Uiso   1.00
H1006  H     0.99845   0.58796   0.99445   0.00000  Uiso   1.00
H1007  H     0.66822   0.41204   0.50555   0.00000  Uiso   1.00
H1008  H     0.82961   0.49592   0.62458   0.00000  Uiso   1.00
N1009  N     0.81362   0.48550   0.73739   0.00000  Uiso   1.00
N1010  N     0.85305   0.51450   0.76260   0.00000  Uiso   1.00
O1011  O     0.96386   0.57964   0.75309   0.00000  Uiso   1.00
O1012  O     0.70281   0.42036   0.74690   0.00000  Uiso   1.00
O1013  O     0.72488   0.57035   0.74501   0.00000  Uiso   1.00
O1014  O     0.94178   0.42965   0.75498   0.00000  Uiso   1.00
O1015  O     0.96995   0.50730   0.82247   0.00000  Uiso   1.00
O1016  O     0.69672   0.49270   0.67753   0.00000  Uiso   1.00
O1017  O     0.73098   0.49801   0.81439   0.00000  Uiso   1.00
O1018  O     0.93569   0.50199   0.68561   0.00000  Uiso   1.00
Zn1019 Zn    0.93700   0.50621   0.75539   0.00000  Uiso   1.00
Zn1020 Zn    0.72967   0.49379   0.74460   0.00000  Uiso   1.00
C1021  C     0.01412   0.93113   0.74855   0.00000  Uiso   1.00
C1022  C     0.31252   0.82940   0.65895   0.00000  Uiso   1.00
C1023  C     0.03086   0.84445   0.89400   0.00000  Uiso   1.00
C1024  C     0.30248   0.82222   0.60600   0.00000  Uiso   1.00
C1025  C     0.02175   0.89454   0.97152   0.00000  Uiso   1.00
C1026  C     0.31158   0.77212   0.52848   0.00000  Uiso   1.00
C1027  C     0.00240   0.88098   0.92283   0.00000  Uiso   1.00
C1028  C     0.33094   0.78569   0.57717   0.00000  Uiso   1.00
C1029  C     0.07602   0.82028   0.91437   0.00000  Uiso   1.00
C1030  C     0.25732   0.84638   0.58563   0.00000  Uiso   1.00
C1031  C     0.10269   0.84080   0.95908   0.00000  Uiso   1.00
C1032  C     0.31921   0.73554   0.75145   0.00000  Uiso   1.00
C1033  C     0.23064   0.82587   0.54091   0.00000  Uiso   1.00
C1034  C     0.07226   0.87516   0.98959   0.00000  Uiso   1.00
C1035  C     0.26108   0.79151   0.51041   0.00000  Uiso   1.00
C1036  C     0.15748   0.82695   0.97476   0.00000  Uiso   1.00
C1037  C     0.17585   0.83971   0.52524   0.00000  Uiso   1.00
C1038  C     0.14120   0.86369   0.61302   0.00000  Uiso   1.00
C1039  C     0.19213   0.80297   0.88698   0.00000  Uiso   1.00
C1040  C     0.04612   0.99370   0.69139   0.00000  Uiso   1.00
C1041  C     0.28721   0.67296   0.80861   0.00000  Uiso   1.00
C1042  C     0.16164   0.76845   0.71616   0.00000  Uiso   1.00
C1043  C     0.13823   0.86512   0.55782   0.00000  Uiso   1.00
C1044  C     0.17170   0.89821   0.78384   0.00000  Uiso   1.00
C1045  C     0.19511   0.80155   0.94218   0.00000  Uiso   1.00
C1046  C     0.09040   0.88698   0.53844   0.00000  Uiso   1.00
C1047  C     0.24293   0.77969   0.96156   0.00000  Uiso   1.00
C1048  C     0.01690   0.98344   0.73790   0.00000  Uiso   1.00
C1049  C     0.31643   0.68322   0.76209   0.00000  Uiso   1.00
C1050  C     0.02082   0.83726   0.84105   0.00000  Uiso   1.00
H1051  H     0.06418   0.90939   0.56275   0.00000  Uiso   1.00
H1052  H     0.16048   0.90096   0.63170   0.00000  Uiso   1.00
H1053  H     0.09834   0.85955   0.62589   0.00000  Uiso   1.00
H1054  H     0.17285   0.76571   0.86830   0.00000  Uiso   1.00
H1055  H     0.17039   0.83741   0.87542   0.00000  Uiso   1.00
H1056  H     0.23499   0.80712   0.87411   0.00000  Uiso   1.00
H1057  H     0.04005   0.95898   0.66390   0.00000  Uiso   1.00
H1058  H     0.02917   0.69334   0.67269   0.00000  Uiso   1.00
H1059  H     0.09194   0.66729   0.70055   0.00000  Uiso   1.00
H1060  H     0.29325   0.70769   0.83609   0.00000  Uiso   1.00
H1061  H     0.24140   0.99934   0.79944   0.00000  Uiso   1.00
H1062  H     0.26916   0.75728   0.93725   0.00000  Uiso   1.00
H1063  H     0.30419   0.97334   0.82732   0.00000  Uiso   1.00
H1064  H     0.12571   0.75149   0.69145   0.00000  Uiso   1.00
H1065  H     0.19751   0.77141   0.69281   0.00000  Uiso   1.00
H1066  H     0.16950   0.74207   0.74550   0.00000  Uiso   1.00
H1067  H     0.20763   0.91517   0.80856   0.00000  Uiso   1.00
H1068  H     0.16384   0.92460   0.75450   0.00000  Uiso   1.00
H1069  H     0.13582   0.89525   0.80719   0.00000  Uiso   1.00
H1070  H     0.24268   0.88010   0.60629   0.00000  Uiso   1.00
H1071  H     0.09065   0.78657   0.89371   0.00000  Uiso   1.00
H1072  H     0.03369   0.76720   0.59241   0.00000  Uiso   1.00
H1073  H     0.29964   0.89947   0.90759   0.00000  Uiso   1.00
H1074  H     0.33178   0.92129   0.99445   0.00000  Uiso   1.00
H1075  H     0.00155   0.74538   0.50555   0.00000  Uiso   1.00
H1076  H     0.16294   0.82926   0.62458   0.00000  Uiso   1.00
N1077  N     0.14695   0.81883   0.73739   0.00000  Uiso   1.00
N1078  N     0.18638   0.84784   0.76260   0.00000  Uiso   1.00
O1079  O     0.29719   0.91298   0.75309   0.00000  Uiso   1.00
O1080  O     0.03614   0.75369   0.74690   0.00000  Uiso   1.00
O1081  O     0.05822   0.90368   0.74501   0.00000  Uiso   1.00
O1082  O     0.27512   0.76298   0.75498   0.00000  Uiso   1.00
O1083  O     0.30328   0.84063   0.82247   0.00000  Uiso   1.00
O1084  O     0.03005   0.82603   0.67753   0.00000  Uiso   1.00
O1085  O     0.06431   0.83134   0.81439   0.00000  Uiso   1.00
O1086  O     0.26902   0.83533   0.68561   0.00000  Uiso   1.00
Zn1087 Zn    0.27033   0.83954   0.75539   0.00000  Uiso   1.00
Zn1088 Zn    0.06300   0.82713   0.74460   0.00000  Uiso   1.00
C1089  C     0.34745   0.93113   0.74855   0.00000  Uiso   1.00
C1090  C     0.64585   0.82940   0.65895   0.00000  Uiso   1.00
C1091  C     0.36419   0.84445   0.89400   0.00000  Uiso   1.00
C1092  C     0.63581   0.82222   0.60600   0.00000  Uiso   1.00
C1093  C     0.35508   0.89454   0.97152   0.00000  Uiso   1.00
C1094  C     0.64492   0.77212   0.52848   0.00000  Uiso   1.00
C1095  C     0.33573   0.88098   0.92283   0.00000  Uiso   1.00
C1096  C     0.66427   0.78569   0.57717   0.00000  Uiso   1.00
C1097  C     0.40935   0.82028   0.91437   0.00000  Uiso   1.00
C1098  C     0.59065   0.84638   0.58563   0.00000  Uiso   1.00
C1099  C     0.43602   0.84080   0.95908   0.00000  Uiso   1.00
C1100  C     0.65254   0.73554   0.75145   0.00000  Uiso   1.00
C1101  C     0.56397   0.82587   0.54091   0.00000  Uiso   1.00
C1102  C     0.40559   0.87516   0.98959   0.00000  Uiso   1.00
C1103  C     0.59441   0.79151   0.51041   0.00000  Uiso   1.00
C1104  C     0.49081   0.82695   0.97476   0.00000  Uiso   1.00
C1105  C     0.50919   0.83971   0.52524   0.00000  Uiso   1.00
C1106  C     0.47454   0.86369   0.61302   0.00000  Uiso   1.00
C1107  C     0.52546   0.80297   0.88698   0.00000  Uiso   1.00
C1108  C     0.37945   0.99370   0.69139   0.00000  Uiso   1.00
C1109  C     0.62054   0.67296   0.80861   0.00000  Uiso   1.00
C1110  C     0.49497   0.76845   0.71616   0.00000  Uiso   1.00
C1111  C     0.47156   0.86512   0.55782   0.00000  Uiso   1.00
C1112  C     0.50503   0.89821   0.78384   0.00000  Uiso   1.00
C1113  C     0.52844   0.80155   0.94218   0.00000  Uiso   1.00
C1114  C     0.42374   0.88698   0.53844   0.00000  Uiso   1.00
C1115  C     0.57626   0.77969   0.96156   0.00000  Uiso   1.00
C1116  C     0.35023   0.98344   0.73790   0.00000  Uiso   1.00
C1117  C     0.64977   0.68322   0.76209   0.00000  Uiso   1.00
C1118  C     0.35415   0.83726   0.84105   0.00000  Uiso   1.00
H1119  H     0.39751   0.90939   0.56275   0.00000  Uiso   1.00
H1120  H     0.49381   0.90096   0.63170   0.00000  Uiso   1.00
H1121  H     0.43168   0.85955   0.62589   0.00000  Uiso   1.00
H1122  H     0.50618   0.76571   0.86830   0.00000  Uiso   1.00
H1123  H     0.50373   0.83741   0.87542   0.00000  Uiso   1.00
H1124  H     0.56832   0.80712   0.87411   0.00000  Uiso   1.00
H1125  H     0.37338   0.95898   0.66390   0.00000  Uiso   1.00
H1126  H     0.36250   0.69334   0.67269   0.00000  Uiso   1.00
H1127  H     0.42527   0.66729   0.70055   0.00000  Uiso   1.00
H1128  H     0.62658   0.70769   0.83609   0.00000  Uiso   1.00
H1129  H     0.57473   0.99934   0.79944   0.00000  Uiso   1.00
H1130  H     0.60249   0.75728   0.93725   0.00000  Uiso   1.00
H1131  H     0.63752   0.97334   0.82732   0.00000  Uiso   1.00
H1132  H     0.45904   0.75149   0.69145   0.00000  Uiso   1.00
H1133  H     0.53085   0.77141   0.69281   0.00000  Uiso   1.00
H1134  H     0.50283   0.74207   0.74550   0.00000  Uiso   1.00
H1135  H     0.54096   0.91517   0.80856   0.00000  Uiso   1.00
H1136  H     0.49717   0.92460   0.75450   0.00000  Uiso   1.00
H1137  H     0.46915   0.89525   0.80719   0.00000  Uiso   1.00
H1138  H     0.57602   0.88010   0.60629   0.00000  Uiso   1.00
H1139  H     0.42398   0.78657   0.89371   0.00000  Uiso   1.00
H1140  H     0.36702   0.76720   0.59241   0.00000  Uiso   1.00
H1141  H     0.63298   0.89947   0.90759   0.00000  Uiso   1.00
H1142  H     0.66512   0.92129   0.99445   0.00000  Uiso   1.00
H1143  H     0.33488   0.74538   0.50555   0.00000  Uiso   1.00
H1144  H     0.49627   0.82926   0.62458   0.00000  Uiso   1.00
N1145  N     0.48029   0.81883   0.73739   0.00000  Uiso   1.00
N1146  N     0.51971   0.84784   0.76260   0.00000  Uiso   1.00
O1147  O     0.63052   0.91298   0.75309   0.00000  Uiso   1.00
O1148  O     0.36948   0.75369   0.74690   0.00000  Uiso   1.00
O1149  O     0.39155   0.90368   0.74501   0.00000  Uiso   1.00
O1150  O     0.60845   0.76298   0.75498   0.00000  Uiso   1.00
O1151  O     0.63662   0.84063   0.82247   0.00000  Uiso   1.00
O1152  O     0.36338   0.82603   0.67753   0.00000  Uiso   1.00
O1153  O     0.39764   0.83134   0.81439   0.00000  Uiso   1.00
O1154  O     0.60236   0.83533   0.68561   0.00000  Uiso   1.00
Zn1155 Zn    0.60366   0.83954   0.75539   0.00000  Uiso   1.00
Zn1156 Zn    0.39634   0.82713   0.74460   0.00000  Uiso   1.00
C1157  C     0.68079   0.93113   0.74855   0.00000  Uiso   1.00
C1158  C     0.97918   0.82940   0.65895   0.00000  Uiso   1.00
C1159  C     0.69752   0.84445   0.89400   0.00000  Uiso   1.00
C1160  C     0.96914   0.82222   0.60600   0.00000  Uiso   1.00
C1161  C     0.68842   0.89454   0.97152   0.00000  Uiso   1.00
C1162  C     0.97825   0.77212   0.52848   0.00000  Uiso   1.00
C1163  C     0.66906   0.88098   0.92283   0.00000  Uiso   1.00
C1164  C     0.99760   0.78569   0.57717   0.00000  Uiso   1.00
C1165  C     0.74268   0.82028   0.91437   0.00000  Uiso   1.00
C1166  C     0.92398   0.84638   0.58563   0.00000  Uiso   1.00
C1167  C     0.76936   0.84080   0.95908   0.00000  Uiso   1.00
C1168  C     0.98588   0.73554   0.75145   0.00000  Uiso   1.00
C1169  C     0.89731   0.82587   0.54091   0.00000  Uiso   1.00
C1170  C     0.73892   0.87516   0.98959   0.00000  Uiso   1.00
C1171  C     0.92774   0.79151   0.51041   0.00000  Uiso   1.00
C1172  C     0.82415   0.82695   0.97476   0.00000  Uiso   1.00
C1173  C     0.84252   0.83971   0.52524   0.00000  Uiso   1.00
C1174  C     0.80787   0.86369   0.61302   0.00000  Uiso   1.00
C1175  C     0.85880   0.80297   0.88698   0.00000  Uiso   1.00
C1176  C     0.71278   0.99370   0.69139   0.00000  Uiso   1.00
C1177  C     0.95388   0.67296   0.80861   0.00000  Uiso   1.00
C1178  C     0.82830   0.76845   0.71616   0.00000  Uiso   1.00
C1179  C     0.80489   0.86512   0.55782   0.00000  Uiso   1.00
C1180  C     0.83836   0.89821   0.78384   0.00000  Uiso   1.00
C1181  C     0.86177   0.80155   0.94218   0.00000  Uiso   1.00
C1182  C     0.75707   0.88698   0.53844   0.00000  Uiso   1.00
C1183  C     0.90960   0.77969   0.96156   0.00000  Uiso   1.00
C1184  C     0.68357   0.98344   0.73790   0.00000  Uiso   1.00
C1185  C     0.98310   0.68322   0.76209   0.00000  Uiso   1.00
C1186  C     0.68748   0.83726   0.84105   0.00000  Uiso   1.00
H1187  H     0.73084   0.90939   0.56275   0.00000  Uiso   1.00
H1188  H     0.82715   0.90096   0.63170   0.00000  Uiso   1.00
H1189  H     0.76501   0.85955   0.62589   0.00000  Uiso   1.00
H1190  H     0.83952   0.76571   0.86830   0.00000  Uiso   1.00
H1191  H     0.83706   0.83741   0.87542   0.00000  Uiso   1.00
H1192  H     0.90166   0.80712   0.87411   0.00000  Uiso   1.00
H1193  H     0.70672   0.95898   0.66390   0.00000  Uiso   1.00
H1194  H     0.69583   0.69334   0.67269   0.00000  Uiso   1.00
H1195  H     0.75860   0.66729   0.70055   0.00000  Uiso   1.00
H1196  H     0.95991   0.70769   0.83609   0.00000  Uiso   1.00
H1197  H     0.90806   0.99934   0.79944   0.00000  Uiso   1.00
H1198  H     0.93582   0.75728   0.93725   0.00000  Uiso   1.00
H1199  H     0.97085   0.97334   0.82732   0.00000  Uiso   1.00
H1200  H     0.79237   0.75149   0.69145   0.00000  Uiso   1.00
H1201  H     0.86418   0.77141   0.69281   0.00000  Uiso   1.00
H1202  H     0.83617   0.74207   0.74550   0.00000  Uiso   1.00
H1203  H     0.87429   0.91517   0.80856   0.00000  Uiso   1.00
H1204  H     0.83051   0.92460   0.75450   0.00000  Uiso   1.00
H1205  H     0.80248   0.89525   0.80719   0.00000  Uiso   1.00
H1206  H     0.90935   0.88010   0.60629   0.00000  Uiso   1.00
H1207  H     0.75732   0.78657   0.89371   0.00000  Uiso   1.00
H1208  H     0.70036   0.76720   0.59241   0.00000  Uiso   1.00
H1209  H     0.96631   0.89947   0.90759   0.00000  Uiso   1.00
H1210  H     0.99845   0.92129   0.99445   0.00000  Uiso   1.00
H1211  H     0.66822   0.74538   0.50555   0.00000  Uiso   1.00
H1212  H     0.82961   0.82926   0.62458   0.00000  Uiso   1.00
N1213  N     0.81362   0.81883   0.73739   0.00000  Uiso   1.00
N1214  N     0.85305   0.84784   0.76260   0.00000  Uiso   1.00
O1215  O     0.96386   0.91298   0.75309   0.00000  Uiso   1.00
O1216  O     0.70281   0.75369   0.74690   0.00000  Uiso   1.00
O1217  O     0.72488   0.90368   0.74501   0.00000  Uiso   1.00
O1218  O     0.94178   0.76298   0.75498   0.00000  Uiso   1.00
O1219  O     0.96995   0.84063   0.82247   0.00000  Uiso   1.00
O1220  O     0.69672   0.82603   0.67753   0.00000  Uiso   1.00
O1221  O     0.73098   0.83134   0.81439   0.00000  Uiso   1.00
O1222  O     0.93569   0.83533   0.68561   0.00000  Uiso   1.00
Zn1223 Zn    0.93700   0.83954   0.75539   0.00000  Uiso   1.00
Zn1224 Zn    0.72967   0.82713   0.74460   0.00000  Uiso   1.00
loop_
_geom_bond_atom_site_label_1
_geom_bond_atom_site_label_2
_geom_bond_distance
_geom_bond_site_symmetry_2
_ccdc_geom_bond_type
C1     C28     1.401   .     S
C1     O61     1.298   .     A
C1     O195    1.282   1_455 S
C2     C4      1.448   .     S
C2     O66     1.309   .     A
C2     O132    1.297   .     S
C3     C30     1.448   .     S
C3     C9      1.383   .     A
C3     C7      1.398   .     A
C4     C8      1.398   .     A
C4     C10     1.383   .     A
C5     C14     1.406   .     A
C5     C7      1.392   .     A
C5     H190    1.084   1_455 S
C6     C8      1.392   .     A
C6     C15     1.406   .     A
C6     H123    1.084   .     S
C7     H189    1.083   1_455 S
C8     H120    1.083   .     S
C9     H51     1.075   .     S
C9     C11     1.393   .     A
C10    H50     1.075   .     S
C10    C13     1.393   .     A
C11    C16     1.422   .     A
C11    C14     1.415   .     A
C12    C29     1.401   .     S
C12    O62     1.298   .     A
C12    O128    1.282   .     S
C13    C17     1.422   .     A
C13    C15     1.415   .     A
C14    C638    1.383   .     S
C15    C639    1.383   1_554 S
C16    C25     1.439   .     A
C16    C629    1.429   .     S
C17    C23     1.439   .     A
C17    C628    1.429   1_554 S
C18    H56     1.109   .     S
C18    H33     1.103   .     S
C18    C23     1.511   .     S
C18    H32     1.110   .     S
C19    H35     1.109   .     S
C19    H36     1.103   .     S
C19    C25     1.511   .     S
C19    H34     1.110   .     S
C20    H37     1.112   .     S
C20    C28     1.523   .     S
C20    H242    1.110   .     S
C20    H243    1.108   .     S
C21    H40     1.112   .     S
C21    C29     1.523   .     S
C21    H449    1.108   1_545 S
C21    H451    1.110   1_545 S
C22    N57     1.439   .     S
C22    H46     1.110   .     S
C22    H45     1.101   .     S
C22    H44     1.106   .     S
C23    C26     1.394   .     A
C24    H48     1.110   .     S
C24    H49     1.101   .     S
C24    N58     1.439   .     S
C24    H47     1.106   .     S
C25    C27     1.394   .     A
C26    H31     1.086   .     S
C26    C626    1.383   1_554 S
C27    H42     1.086   .     S
C27    C627    1.383   .     S
C28    C369    1.356   1_455 S
C29    C504    1.356   1_545 S
C30    O65     1.309   .     A
C30    O199    1.297   1_455 S
H38    C428    1.110   1_545 S
H39    C428    1.108   1_545 S
H41    C225    1.108   .     S
H43    C225    1.110   .     S
H52    C144    1.083   1_455 S
H53    C75     1.083   .     S
H54    C73     1.084   .     S
H55    C142    1.084   1_455 S
N57    N58     1.296   .     D
N57    Zn68    2.042   .     S
N58    Zn67    2.042   .     S
O59    Zn67    1.972   .     S
O59    C69     1.282   .     S
O60    Zn68    1.972   .     S
O60    C148    1.282   1_455 S
O61    Zn68    1.977   .     S
O62    Zn67    1.977   .     S
O63    Zn67    1.951   .     S
O63    C98     1.297   .     S
O64    Zn68    1.951   .     S
O64    C138    1.297   1_455 S
O65    Zn68    1.901   .     S
O66    Zn67    1.901   .     S
C69    C96     1.401   .     S
C69    O129    1.298   .     A
C70    C72     1.448   .     S
C70    O134    1.309   .     A
C70    O200    1.297   .     S
C71    C98     1.448   .     S
C71    C77     1.383   .     A
C71    C75     1.398   .     A
C72    C76     1.398   .     A
C72    C78     1.383   .     A
C73    C82     1.406   .     A
C73    C75     1.392   .     A
C74    C76     1.392   .     A
C74    C83     1.406   .     A
C74    H191    1.084   .     S
C76    H188    1.083   .     S
C77    H119    1.075   .     S
C77    C79     1.393   .     A
C78    H118    1.075   .     S
C78    C81     1.393   .     A
C79    C84     1.422   .     A
C79    C82     1.415   .     A
C80    C97     1.401   .     S
C80    O130    1.298   .     A
C80    O196    1.282   .     S
C81    C85     1.422   .     A
C81    C83     1.415   .     A
C82    C706    1.383   .     S
C83    C707    1.383   1_554 S
C84    C93     1.439   .     A
C84    C697    1.429   .     S
C85    C91     1.439   .     A
C85    C696    1.429   1_554 S
C86    H124    1.109   .     S
C86    H101    1.103   .     S
C86    C91     1.511   .     S
C86    H100    1.110   .     S
C87    H103    1.109   .     S
C87    H104    1.103   .     S
C87    C93     1.511   .     S
C87    H102    1.110   .     S
C88    H105    1.112   .     S
C88    C96     1.523   .     S
C88    H310    1.110   .     S
C88    H311    1.108   .     S
C89    H108    1.112   .     S
C89    C97     1.523   .     S
C89    H517    1.108   1_545 S
C89    H519    1.110   1_545 S
C90    N125    1.439   .     S
C90    H114    1.110   .     S
C90    H113    1.101   .     S
C90    H112    1.106   .     S
C91    C94     1.394   .     A
C92    H116    1.110   .     S
C92    H117    1.101   .     S
C92    N126    1.439   .     S
C92    H115    1.106   .     S
C93    C95     1.394   .     A
C94    H99     1.086   .     S
C94    C694    1.383   1_554 S
C95    H110    1.086   .     S
C95    C695    1.383   .     S
C96    C233    1.356   .     S
C97    C572    1.356   1_545 S
C98    O133    1.309   .     A
H106   C496    1.110   1_545 S
H107   C496    1.108   1_545 S
H109   C293    1.108   .     S
H111   C293    1.110   .     S
H121   C143    1.083   .     S
H122   C141    1.084   .     S
N125   N126    1.296   .     D
N125   Zn136   2.042   .     S
N126   Zn135   2.042   .     S
O127   Zn135   1.972   .     S
O127   C137    1.282   .     S
O128   Zn136   1.972   .     S
O129   Zn136   1.977   .     S
O130   Zn135   1.977   .     S
O131   Zn135   1.951   .     S
O131   C166    1.297   .     S
O132   Zn136   1.951   .     S
O133   Zn136   1.901   .     S
O134   Zn135   1.901   .     S
C137   C164    1.401   .     S
C137   O197    1.298   .     A
C138   C140    1.448   .     S
C138   O202    1.309   .     A
C138   O64     1.297   1_655 S
C139   C166    1.448   .     S
C139   C145    1.383   .     A
C139   C143    1.398   .     A
C140   C144    1.398   .     A
C140   C146    1.383   .     A
C141   C150    1.406   .     A
C141   C143    1.392   .     A
C142   C144    1.392   .     A
C142   C151    1.406   .     A
C142   H55     1.084   1_655 S
C144   H52     1.083   1_655 S
C145   H187    1.075   .     S
C145   C147    1.393   .     A
C146   H186    1.075   .     S
C146   C149    1.393   .     A
C147   C152    1.422   .     A
C147   C150    1.415   .     A
C148   C165    1.401   .     S
C148   O198    1.298   .     A
C148   O60     1.282   1_655 S
C149   C153    1.422   .     A
C149   C151    1.415   .     A
C150   C774    1.383   .     S
C151   C775    1.383   1_554 S
C152   C161    1.439   .     A
C152   C765    1.429   .     S
C153   C159    1.439   .     A
C153   C764    1.429   1_554 S
C154   H192    1.109   .     S
C154   H169    1.103   .     S
C154   C159    1.511   .     S
C154   H168    1.110   .     S
C155   H171    1.109   .     S
C155   H172    1.103   .     S
C155   C161    1.511   .     S
C155   H170    1.110   .     S
C156   H173    1.112   .     S
C156   C164    1.523   .     S
C156   H378    1.110   .     S
C156   H379    1.108   .     S
C157   H176    1.112   .     S
C157   C165    1.523   .     S
C157   H585    1.108   1_545 S
C157   H587    1.110   1_545 S
C158   N193    1.439   .     S
C158   H182    1.110   .     S
C158   H181    1.101   .     S
C158   H180    1.106   .     S
C159   C162    1.394   .     A
C160   H184    1.110   .     S
C160   H185    1.101   .     S
C160   N194    1.439   .     S
C160   H183    1.106   .     S
C161   C163    1.394   .     A
C162   H167    1.086   .     S
C162   C762    1.383   1_554 S
C163   H178    1.086   .     S
C163   C763    1.383   .     S
C164   C301    1.356   .     S
C165   C436    1.356   1_645 S
C166   O201    1.309   .     A
H174   C564    1.110   1_545 S
H175   C564    1.108   1_545 S
H177   C361    1.108   .     S
H179   C361    1.110   .     S
H189   C7      1.083   1_655 S
H190   C5      1.084   1_655 S
N193   N194    1.296   .     D
N193   Zn204   2.042   .     S
N194   Zn203   2.042   .     S
O195   Zn203   1.972   .     S
O195   C1      1.282   1_655 S
O196   Zn204   1.972   .     S
O197   Zn204   1.977   .     S
O198   Zn203   1.977   .     S
O199   Zn203   1.951   .     S
O199   C30     1.297   1_655 S
O200   Zn204   1.951   .     S
O201   Zn204   1.901   .     S
O202   Zn203   1.901   .     S
C205   C232    1.401   .     S
C205   O265    1.298   .     A
C205   O399    1.282   1_455 S
C206   C208    1.448   .     S
C206   O270    1.309   .     A
C206   O336    1.297   .     S
C207   C234    1.448   .     S
C207   C213    1.383   .     A
C207   C211    1.398   .     A
C208   C212    1.398   .     A
C208   C214    1.383   .     A
C209   C218    1.406   .     A
C209   C211    1.392   .     A
C209   H394    1.084   1_455 S
C210   C212    1.392   .     A
C210   C219    1.406   .     A
C210   H327    1.084   .     S
C211   H393    1.083   1_455 S
C212   H324    1.083   .     S
C213   H255    1.075   .     S
C213   C215    1.393   .     A
C214   H254    1.075   .     S
C214   C217    1.393   .     A
C215   C220    1.422   .     A
C215   C218    1.415   .     A
C216   C233    1.401   .     S
C216   O266    1.298   .     A
C216   O332    1.282   .     S
C217   C221    1.422   .     A
C217   C219    1.415   .     A
C218   C842    1.383   .     S
C219   C843    1.383   1_554 S
C220   C229    1.439   .     A
C220   C833    1.429   .     S
C221   C227    1.439   .     A
C221   C832    1.429   1_554 S
C222   H260    1.109   .     S
C222   H237    1.103   .     S
C222   C227    1.511   .     S
C222   H236    1.110   .     S
C223   H239    1.109   .     S
C223   H240    1.103   .     S
C223   C229    1.511   .     S
C223   H238    1.110   .     S
C224   H241    1.112   .     S
C224   C232    1.523   .     S
C224   H446    1.110   .     S
C224   H447    1.108   .     S
C225   H244    1.112   .     S
C225   C233    1.523   .     S
C226   N261    1.439   .     S
C226   H250    1.110   .     S
C226   H249    1.101   .     S
C226   H248    1.106   .     S
C227   C230    1.394   .     A
C228   H252    1.110   .     S
C228   H253    1.101   .     S
C228   N262    1.439   .     S
C228   H251    1.106   .     S
C229   C231    1.394   .     A
C230   H235    1.086   .     S
C230   C830    1.383   1_554 S
C231   H246    1.086   .     S
C231   C831    1.383   .     S
C232   C573    1.356   1_455 S
C234   O269    1.309   .     A
C234   O403    1.297   1_455 S
H245   C429    1.108   .     S
H247   C429    1.110   .     S
H256   C348    1.083   1_455 S
H257   C279    1.083   .     S
H258   C277    1.084   .     S
H259   C346    1.084   1_455 S
N261   N262    1.296   .     D
N261   Zn272   2.042   .     S
N262   Zn271   2.042   .     S
O263   Zn271   1.972   .     S
O263   C273    1.282   .     S
O264   Zn272   1.972   .     S
O264   C352    1.282   1_455 S
O265   Zn272   1.977   .     S
O266   Zn271   1.977   .     S
O267   Zn271   1.951   .     S
O267   C302    1.297   .     S
O268   Zn272   1.951   .     S
O268   C342    1.297   1_455 S
O269   Zn272   1.901   .     S
O270   Zn271   1.901   .     S
C273   C300    1.401   .     S
C273   O333    1.298   .     A
C274   C276    1.448   .     S
C274   O338    1.309   .     A
C274   O404    1.297   .     S
C275   C302    1.448   .     S
C275   C281    1.383   .     A
C275   C279    1.398   .     A
C276   C280    1.398   .     A
C276   C282    1.383   .     A
C277   C286    1.406   .     A
C277   C279    1.392   .     A
C278   C280    1.392   .     A
C278   C287    1.406   .     A
C278   H395    1.084   .     S
C280   H392    1.083   .     S
C281   H323    1.075   .     S
C281   C283    1.393   .     A
C282   H322    1.075   .     S
C282   C285    1.393   .     A
C283   C288    1.422   .     A
C283   C286    1.415   .     A
C284   C301    1.401   .     S
C284   O334    1.298   .     A
C284   O400    1.282   .     S
C285   C289    1.422   .     A
C285   C287    1.415   .     A
C286   C910    1.383   .     S
C287   C911    1.383   1_554 S
C288   C297    1.439   .     A
C288   C901    1.429   .     S
C289   C295    1.439   .     A
C289   C900    1.429   1_554 S
C290   H328    1.109   .     S
C290   H305    1.103   .     S
C290   C295    1.511   .     S
C290   H304    1.110   .     S
C291   H307    1.109   .     S
C291   H308    1.103   .     S
C291   C297    1.511   .     S
C291   H306    1.110   .     S
C292   H309    1.112   .     S
C292   C300    1.523   .     S
C292   H514    1.110   .     S
C292   H515    1.108   .     S
C293   H312    1.112   .     S
C293   C301    1.523   .     S
C294   N329    1.439   .     S
C294   H318    1.110   .     S
C294   H317    1.101   .     S
C294   H316    1.106   .     S
C295   C298    1.394   .     A
C296   H320    1.110   .     S
C296   H321    1.101   .     S
C296   N330    1.439   .     S
C296   H319    1.106   .     S
C297   C299    1.394   .     A
C298   H303    1.086   .     S
C298   C898    1.383   1_554 S
C299   H314    1.086   .     S
C299   C899    1.383   .     S
C300   C437    1.356   .     S
C302   O337    1.309   .     A
H313   C497    1.108   .     S
H315   C497    1.110   .     S
H325   C347    1.083   .     S
H326   C345    1.084   .     S
N329   N330    1.296   .     D
N329   Zn340   2.042   .     S
N330   Zn339   2.042   .     S
O331   Zn339   1.972   .     S
O331   C341    1.282   .     S
O332   Zn340   1.972   .     S
O333   Zn340   1.977   .     S
O334   Zn339   1.977   .     S
O335   Zn339   1.951   .     S
O335   C370    1.297   .     S
O336   Zn340   1.951   .     S
O337   Zn340   1.901   .     S
O338   Zn339   1.901   .     S
C341   C368    1.401   .     S
C341   O401    1.298   .     A
C342   C344    1.448   .     S
C342   O406    1.309   .     A
C342   O268    1.297   1_655 S
C343   C370    1.448   .     S
C343   C349    1.383   .     A
C343   C347    1.398   .     A
C344   C348    1.398   .     A
C344   C350    1.383   .     A
C345   C354    1.406   .     A
C345   C347    1.392   .     A
C346   C348    1.392   .     A
C346   C355    1.406   .     A
C346   H259    1.084   1_655 S
C348   H256    1.083   1_655 S
C349   H391    1.075   .     S
C349   C351    1.393   .     A
C350   H390    1.075   .     S
C350   C353    1.393   .     A
C351   C356    1.422   .     A
C351   C354    1.415   .     A
C352   C369    1.401   .     S
C352   O402    1.298   .     A
C352   O264    1.282   1_655 S
C353   C357    1.422   .     A
C353   C355    1.415   .     A
C354   C978    1.383   .     S
C355   C979    1.383   1_554 S
C356   C365    1.439   .     A
C356   C969    1.429   .     S
C357   C363    1.439   .     A
C357   C968    1.429   1_554 S
C358   H396    1.109   .     S
C358   H373    1.103   .     S
C358   C363    1.511   .     S
C358   H372    1.110   .     S
C359   H375    1.109   .     S
C359   H376    1.103   .     S
C359   C365    1.511   .     S
C359   H374    1.110   .     S
C360   H377    1.112   .     S
C360   C368    1.523   .     S
C360   H582    1.110   .     S
C360   H583    1.108   .     S
C361   H380    1.112   .     S
C361   C369    1.523   .     S
C362   N397    1.439   .     S
C362   H386    1.110   .     S
C362   H385    1.101   .     S
C362   H384    1.106   .     S
C363   C366    1.394   .     A
C364   H388    1.110   .     S
C364   H389    1.101   .     S
C364   N398    1.439   .     S
C364   H387    1.106   .     S
C365   C367    1.394   .     A
C366   H371    1.086   .     S
C366   C966    1.383   1_554 S
C367   H382    1.086   .     S
C367   C967    1.383   .     S
C368   C505    1.356   .     S
C369   C28     1.356   1_655 S
C370   O405    1.309   .     A
H381   C565    1.108   .     S
H383   C565    1.110   .     S
H393   C211    1.083   1_655 S
H394   C209    1.084   1_655 S
N397   N398    1.296   .     D
N397   Zn408   2.042   .     S
N398   Zn407   2.042   .     S
O399   Zn407   1.972   .     S
O399   C205    1.282   1_655 S
O400   Zn408   1.972   .     S
O401   Zn408   1.977   .     S
O402   Zn407   1.977   .     S
O403   Zn407   1.951   .     S
O403   C234    1.297   1_655 S
O404   Zn408   1.951   .     S
O405   Zn408   1.901   .     S
O406   Zn407   1.901   .     S
C409   C436    1.401   .     S
C409   O469    1.298   .     A
C409   O603    1.282   1_455 S
C410   C412    1.448   .     S
C410   O474    1.309   .     A
C410   O540    1.297   .     S
C411   C438    1.448   .     S
C411   C417    1.383   .     A
C411   C415    1.398   .     A
C412   C416    1.398   .     A
C412   C418    1.383   .     A
C413   C422    1.406   .     A
C413   C415    1.392   .     A
C413   H598    1.084   1_455 S
C414   C416    1.392   .     A
C414   C423    1.406   .     A
C414   H531    1.084   .     S
C415   H597    1.083   1_455 S
C416   H528    1.083   .     S
C417   H459    1.075   .     S
C417   C419    1.393   .     A
C418   H458    1.075   .     S
C418   C421    1.393   .     A
C419   C424    1.422   .     A
C419   C422    1.415   .     A
C420   C437    1.401   .     S
C420   O470    1.298   .     A
C420   O536    1.282   .     S
C421   C425    1.422   .     A
C421   C423    1.415   .     A
C422   C1046   1.383   .     S
C423   C1047   1.383   1_554 S
C424   C433    1.439   .     A
C424   C1037   1.429   .     S
C425   C431    1.439   .     A
C425   C1036   1.429   1_554 S
C426   H464    1.109   .     S
C426   H441    1.103   .     S
C426   C431    1.511   .     S
C426   H440    1.110   .     S
C427   H443    1.109   .     S
C427   H444    1.103   .     S
C427   C433    1.511   .     S
C427   H442    1.110   .     S
C428   H445    1.112   .     S
C428   C436    1.523   .     S
C428   H38     1.110   1_565 S
C428   H39     1.108   1_565 S
C429   H448    1.112   .     S
C429   C437    1.523   .     S
C430   N465    1.439   .     S
C430   H454    1.110   .     S
C430   H453    1.101   .     S
C430   H452    1.106   .     S
C431   C434    1.394   .     A
C432   H456    1.110   .     S
C432   H457    1.101   .     S
C432   N466    1.439   .     S
C432   H455    1.106   .     S
C433   C435    1.394   .     A
C434   H439    1.086   .     S
C434   C1034   1.383   1_554 S
C435   H450    1.086   .     S
C435   C1035   1.383   .     S
C436   C165    1.356   1_465 S
C438   O473    1.309   .     A
C438   O607    1.297   1_455 S
H449   C21     1.108   1_565 S
H451   C21     1.110   1_565 S
H460   C552    1.083   1_455 S
H461   C483    1.083   .     S
H462   C481    1.084   .     S
H463   C550    1.084   1_455 S
N465   N466    1.296   .     D
N465   Zn476   2.042   .     S
N466   Zn475   2.042   .     S
O467   Zn475   1.972   .     S
O467   C477    1.282   .     S
O468   Zn476   1.972   .     S
O468   C556    1.282   1_455 S
O469   Zn476   1.977   .     S
O470   Zn475   1.977   .     S
O471   Zn475   1.951   .     S
O471   C506    1.297   .     S
O472   Zn476   1.951   .     S
O472   C546    1.297   1_455 S
O473   Zn476   1.901   .     S
O474   Zn475   1.901   .     S
C477   C504    1.401   .     S
C477   O537    1.298   .     A
C478   C480    1.448   .     S
C478   O542    1.309   .     A
C478   O608    1.297   .     S
C479   C506    1.448   .     S
C479   C485    1.383   .     A
C479   C483    1.398   .     A
C480   C484    1.398   .     A
C480   C486    1.383   .     A
C481   C490    1.406   .     A
C481   C483    1.392   .     A
C482   C484    1.392   .     A
C482   C491    1.406   .     A
C482   H599    1.084   .     S
C484   H596    1.083   .     S
C485   H527    1.075   .     S
C485   C487    1.393   .     A
C486   H526    1.075   .     S
C486   C489    1.393   .     A
C487   C492    1.422   .     A
C487   C490    1.415   .     A
C488   C505    1.401   .     S
C488   O538    1.298   .     A
C488   O604    1.282   .     S
C489   C493    1.422   .     A
C489   C491    1.415   .     A
C490   C1114   1.383   .     S
C491   C1115   1.383   1_554 S
C492   C501    1.439   .     A
C492   C1105   1.429   .     S
C493   C499    1.439   .     A
C493   C1104   1.429   1_554 S
C494   H532    1.109   .     S
C494   H509    1.103   .     S
C494   C499    1.511   .     S
C494   H508    1.110   .     S
C495   H511    1.109   .     S
C495   H512    1.103   .     S
C495   C501    1.511   .     S
C495   H510    1.110   .     S
C496   H513    1.112   .     S
C496   C504    1.523   .     S
C496   H106    1.110   1_565 S
C496   H107    1.108   1_565 S
C497   H516    1.112   .     S
C497   C505    1.523   .     S
C498   N533    1.439   .     S
C498   H522    1.110   .     S
C498   H521    1.101   .     S
C498   H520    1.106   .     S
C499   C502    1.394   .     A
C500   H524    1.110   .     S
C500   H525    1.101   .     S
C500   N534    1.439   .     S
C500   H523    1.106   .     S
C501   C503    1.394   .     A
C502   H507    1.086   .     S
C502   C1102   1.383   1_554 S
C503   H518    1.086   .     S
C503   C1103   1.383   .     S
C504   C29     1.356   1_565 S
C506   O541    1.309   .     A
H517   C89     1.108   1_565 S
H519   C89     1.110   1_565 S
H529   C551    1.083   .     S
H530   C549    1.084   .     S
N533   N534    1.296   .     D
N533   Zn544   2.042   .     S
N534   Zn543   2.042   .     S
O535   Zn543   1.972   .     S
O535   C545    1.282   .     S
O536   Zn544   1.972   .     S
O537   Zn544   1.977   .     S
O538   Zn543   1.977   .     S
O539   Zn543   1.951   .     S
O539   C574    1.297   .     S
O540   Zn544   1.951   .     S
O541   Zn544   1.901   .     S
O542   Zn543   1.901   .     S
C545   C572    1.401   .     S
C545   O605    1.298   .     A
C546   C548    1.448   .     S
C546   O610    1.309   .     A
C546   O472    1.297   1_655 S
C547   C574    1.448   .     S
C547   C553    1.383   .     A
C547   C551    1.398   .     A
C548   C552    1.398   .     A
C548   C554    1.383   .     A
C549   C558    1.406   .     A
C549   C551    1.392   .     A
C550   C552    1.392   .     A
C550   C559    1.406   .     A
C550   H463    1.084   1_655 S
C552   H460    1.083   1_655 S
C553   H595    1.075   .     S
C553   C555    1.393   .     A
C554   H594    1.075   .     S
C554   C557    1.393   .     A
C555   C560    1.422   .     A
C555   C558    1.415   .     A
C556   C573    1.401   .     S
C556   O606    1.298   .     A
C556   O468    1.282   1_655 S
C557   C561    1.422   .     A
C557   C559    1.415   .     A
C558   C1182   1.383   .     S
C559   C1183   1.383   1_554 S
C560   C569    1.439   .     A
C560   C1173   1.429   .     S
C561   C567    1.439   .     A
C561   C1172   1.429   1_554 S
C562   H600    1.109   .     S
C562   H577    1.103   .     S
C562   C567    1.511   .     S
C562   H576    1.110   .     S
C563   H579    1.109   .     S
C563   H580    1.103   .     S
C563   C569    1.511   .     S
C563   H578    1.110   .     S
C564   H581    1.112   .     S
C564   C572    1.523   .     S
C564   H174    1.110   1_565 S
C564   H175    1.108   1_565 S
C565   H584    1.112   .     S
C565   C573    1.523   .     S
C566   N601    1.439   .     S
C566   H590    1.110   .     S
C566   H589    1.101   .     S
C566   H588    1.106   .     S
C567   C570    1.394   .     A
C568   H592    1.110   .     S
C568   H593    1.101   .     S
C568   N602    1.439   .     S
C568   H591    1.106   .     S
C569   C571    1.394   .     A
C570   H575    1.086   .     S
C570   C1170   1.383   1_554 S
C571   H586    1.086   .     S
C571   C1171   1.383   .     S
C572   C97     1.356   1_565 S
C573   C232    1.356   1_655 S
C574   O609    1.309   .     A
H585   C157    1.108   1_565 S
H587   C157    1.110   1_565 S
H597   C415    1.083   1_655 S
H598   C413    1.084   1_655 S
N601   N602    1.296   .     D
N601   Zn612   2.042   .     S
N602   Zn611   2.042   .     S
O603   Zn611   1.972   .     S
O603   C409    1.282   1_655 S
O604   Zn612   1.972   .     S
O605   Zn612   1.977   .     S
O606   Zn611   1.977   .     S
O607   Zn611   1.951   .     S
O607   C438    1.297   1_655 S
O608   Zn612   1.951   .     S
O609   Zn612   1.901   .     S
O610   Zn611   1.901   .     S
C613   C640    1.401   .     S
C613   O673    1.298   .     A
C613   O807    1.282   1_455 S
C614   C616    1.448   .     S
C614   O678    1.309   .     A
C614   O744    1.297   .     S
C615   C642    1.448   .     S
C615   C621    1.383   .     A
C615   C619    1.398   .     A
C616   C620    1.398   .     A
C616   C622    1.383   .     A
C617   C626    1.406   .     A
C617   C619    1.392   .     A
C617   H802    1.084   1_455 S
C618   C620    1.392   .     A
C618   C627    1.406   .     A
C618   H735    1.084   .     S
C619   H801    1.083   1_455 S
C620   H732    1.083   .     S
C621   H663    1.075   .     S
C621   C623    1.393   .     A
C622   H662    1.075   .     S
C622   C625    1.393   .     A
C623   C628    1.422   .     A
C623   C626    1.415   .     A
C624   C641    1.401   .     S
C624   O674    1.298   .     A
C624   O740    1.282   .     S
C625   C629    1.422   .     A
C625   C627    1.415   .     A
C626   C26     1.383   1_556 S
C628   C637    1.439   .     A
C628   C17     1.429   1_556 S
C629   C635    1.439   .     A
C630   H668    1.109   .     S
C630   H645    1.103   .     S
C630   C635    1.511   .     S
C630   H644    1.110   .     S
C631   H647    1.109   .     S
C631   H648    1.103   .     S
C631   C637    1.511   .     S
C631   H646    1.110   .     S
C632   H649    1.112   .     S
C632   C640    1.523   .     S
C632   H854    1.110   .     S
C632   H855    1.108   .     S
C633   H652    1.112   .     S
C633   C641    1.523   .     S
C633   H1061   1.108   1_545 S
C633   H1063   1.110   1_545 S
C634   N669    1.439   .     S
C634   H658    1.110   .     S
C634   H657    1.101   .     S
C634   H656    1.106   .     S
C635   C638    1.394   .     A
C636   H660    1.110   .     S
C636   H661    1.101   .     S
C636   N670    1.439   .     S
C636   H659    1.106   .     S
C637   C639    1.394   .     A
C638   H643    1.086   .     S
C639   H654    1.086   .     S
C639   C15     1.383   1_556 S
C640   C981    1.356   1_455 S
C641   C1116   1.356   1_545 S
C642   O677    1.309   .     A
C642   O811    1.297   1_455 S
H650   C1040   1.110   1_545 S
H651   C1040   1.108   1_545 S
H653   C837    1.108   .     S
H655   C837    1.110   .     S
H664   C756    1.083   1_455 S
H665   C687    1.083   .     S
H666   C685    1.084   .     S
H667   C754    1.084   1_455 S
N669   N670    1.296   .     D
N669   Zn680   2.042   .     S
N670   Zn679   2.042   .     S
O671   Zn679   1.972   .     S
O671   C681    1.282   .     S
O672   Zn680   1.972   .     S
O672   C760    1.282   1_455 S
O673   Zn680   1.977   .     S
O674   Zn679   1.977   .     S
O675   Zn679   1.951   .     S
O675   C710    1.297   .     S
O676   Zn680   1.951   .     S
O676   C750    1.297   1_455 S
O677   Zn680   1.901   .     S
O678   Zn679   1.901   .     S
C681   C708    1.401   .     S
C681   O741    1.298   .     A
C682   C684    1.448   .     S
C682   O746    1.309   .     A
C682   O812    1.297   .     S
C683   C710    1.448   .     S
C683   C689    1.383   .     A
C683   C687    1.398   .     A
C684   C688    1.398   .     A
C684   C690    1.383   .     A
C685   C694    1.406   .     A
C685   C687    1.392   .     A
C686   C688    1.392   .     A
C686   C695    1.406   .     A
C686   H803    1.084   .     S
C688   H800    1.083   .     S
C689   H731    1.075   .     S
C689   C691    1.393   .     A
C690   H730    1.075   .     S
C690   C693    1.393   .     A
C691   C696    1.422   .     A
C691   C694    1.415   .     A
C692   C709    1.401   .     S
C692   O742    1.298   .     A
C692   O808    1.282   .     S
C693   C697    1.422   .     A
C693   C695    1.415   .     A
C694   C94     1.383   1_556 S
C696   C705    1.439   .     A
C696   C85     1.429   1_556 S
C697   C703    1.439   .     A
C698   H736    1.109   .     S
C698   H713    1.103   .     S
C698   C703    1.511   .     S
C698   H712    1.110   .     S
C699   H715    1.109   .     S
C699   H716    1.103   .     S
C699   C705    1.511   .     S
C699   H714    1.110   .     S
C700   H717    1.112   .     S
C700   C708    1.523   .     S
C700   H922    1.110   .     S
C700   H923    1.108   .     S
C701   H720    1.112   .     S
C701   C709    1.523   .     S
C701   H1129   1.108   1_545 S
C701   H1131   1.110   1_545 S
C702   N737    1.439   .     S
C702   H726    1.110   .     S
C702   H725    1.101   .     S
C702   H724    1.106   .     S
C703   C706    1.394   .     A
C704   H728    1.110   .     S
C704   H729    1.101   .     S
C704   N738    1.439   .     S
C704   H727    1.106   .     S
C705   C707    1.394   .     A
C706   H711    1.086   .     S
C707   H722    1.086   .     S
C707   C83     1.383   1_556 S
C708   C845    1.356   .     S
C709   C1184   1.356   1_545 S
C710   O745    1.309   .     A
H718   C1108   1.110   1_545 S
H719   C1108   1.108   1_545 S
H721   C905    1.108   .     S
H723   C905    1.110   .     S
H733   C755    1.083   .     S
H734   C753    1.084   .     S
N737   N738    1.296   .     D
N737   Zn748   2.042   .     S
N738   Zn747   2.042   .     S
O739   Zn747   1.972   .     S
O739   C749    1.282   .     S
O740   Zn748   1.972   .     S
O741   Zn748   1.977   .     S
O742   Zn747   1.977   .     S
O743   Zn747   1.951   .     S
O743   C778    1.297   .     S
O744   Zn748   1.951   .     S
O745   Zn748   1.901   .     S
O746   Zn747   1.901   .     S
C749   C776    1.401   .     S
C749   O809    1.298   .     A
C750   C752    1.448   .     S
C750   O814    1.309   .     A
C750   O676    1.297   1_655 S
C751   C778    1.448   .     S
C751   C757    1.383   .     A
C751   C755    1.398   .     A
C752   C756    1.398   .     A
C752   C758    1.383   .     A
C753   C762    1.406   .     A
C753   C755    1.392   .     A
C754   C756    1.392   .     A
C754   C763    1.406   .     A
C754   H667    1.084   1_655 S
C756   H664    1.083   1_655 S
C757   H799    1.075   .     S
C757   C759    1.393   .     A
C758   H798    1.075   .     S
C758   C761    1.393   .     A
C759   C764    1.422   .     A
C759   C762    1.415   .     A
C760   C777    1.401   .     S
C760   O810    1.298   .     A
C760   O672    1.282   1_655 S
C761   C765    1.422   .     A
C761   C763    1.415   .     A
C762   C162    1.383   1_556 S
C764   C773    1.439   .     A
C764   C153    1.429   1_556 S
C765   C771    1.439   .     A
C766   H804    1.109   .     S
C766   H781    1.103   .     S
C766   C771    1.511   .     S
C766   H780    1.110   .     S
C767   H783    1.109   .     S
C767   H784    1.103   .     S
C767   C773    1.511   .     S
C767   H782    1.110   .     S
C768   H785    1.112   .     S
C768   C776    1.523   .     S
C768   H990    1.110   .     S
C768   H991    1.108   .     S
C769   H788    1.112   .     S
C769   C777    1.523   .     S
C769   H1197   1.108   1_545 S
C769   H1199   1.110   1_545 S
C770   N805    1.439   .     S
C770   H794    1.110   .     S
C770   H793    1.101   .     S
C770   H792    1.106   .     S
C771   C774    1.394   .     A
C772   H796    1.110   .     S
C772   H797    1.101   .     S
C772   N806    1.439   .     S
C772   H795    1.106   .     S
C773   C775    1.394   .     A
C774   H779    1.086   .     S
C775   H790    1.086   .     S
C775   C151    1.383   1_556 S
C776   C913    1.356   .     S
C777   C1048   1.356   1_645 S
C778   O813    1.309   .     A
H786   C1176   1.110   1_545 S
H787   C1176   1.108   1_545 S
H789   C973    1.108   .     S
H791   C973    1.110   .     S
H801   C619    1.083   1_655 S
H802   C617    1.084   1_655 S
N805   N806    1.296   .     D
N805   Zn816   2.042   .     S
N806   Zn815   2.042   .     S
O807   Zn815   1.972   .     S
O807   C613    1.282   1_655 S
O808   Zn816   1.972   .     S
O809   Zn816   1.977   .     S
O810   Zn815   1.977   .     S
O811   Zn815   1.951   .     S
O811   C642    1.297   1_655 S
O812   Zn816   1.951   .     S
O813   Zn816   1.901   .     S
O814   Zn815   1.901   .     S
C817   C844    1.401   .     S
C817   O877    1.298   .     A
C817   O1011   1.282   1_455 S
C818   C820    1.448   .     S
C818   O882    1.309   .     A
C818   O948    1.297   .     S
C819   C846    1.448   .     S
C819   C825    1.383   .     A
C819   C823    1.398   .     A
C820   C824    1.398   .     A
C820   C826    1.383   .     A
C821   C830    1.406   .     A
C821   C823    1.392   .     A
C821   H1006   1.084   1_455 S
C822   C824    1.392   .     A
C822   C831    1.406   .     A
C822   H939    1.084   .     S
C823   H1005   1.083   1_455 S
C824   H936    1.083   .     S
C825   H867    1.075   .     S
C825   C827    1.393   .     A
C826   H866    1.075   .     S
C826   C829    1.393   .     A
C827   C832    1.422   .     A
C827   C830    1.415   .     A
C828   C845    1.401   .     S
C828   O878    1.298   .     A
C828   O944    1.282   .     S
C829   C833    1.422   .     A
C829   C831    1.415   .     A
C830   C230    1.383   1_556 S
C832   C841    1.439   .     A
C832   C221    1.429   1_556 S
C833   C839    1.439   .     A
C834   H872    1.109   .     S
C834   H849    1.103   .     S
C834   C839    1.511   .     S
C834   H848    1.110   .     S
C835   H851    1.109   .     S
C835   H852    1.103   .     S
C835   C841    1.511   .     S
C835   H850    1.110   .     S
C836   H853    1.112   .     S
C836   C844    1.523   .     S
C836   H1058   1.110   .     S
C836   H1059   1.108   .     S
C837   H856    1.112   .     S
C837   C845    1.523   .     S
C838   N873    1.439   .     S
C838   H862    1.110   .     S
C838   H861    1.101   .     S
C838   H860    1.106   .     S
C839   C842    1.394   .     A
C840   H864    1.110   .     S
C840   H865    1.101   .     S
C840   N874    1.439   .     S
C840   H863    1.106   .     S
C841   C843    1.394   .     A
C842   H847    1.086   .     S
C843   H858    1.086   .     S
C843   C219    1.383   1_556 S
C844   C1185   1.356   1_455 S
C846   O881    1.309   .     A
C846   O1015   1.297   1_455 S
H857   C1041   1.108   .     S
H859   C1041   1.110   .     S
H868   C960    1.083   1_455 S
H869   C891    1.083   .     S
H870   C889    1.084   .     S
H871   C958    1.084   1_455 S
N873   N874    1.296   .     D
N873   Zn884   2.042   .     S
N874   Zn883   2.042   .     S
O875   Zn883   1.972   .     S
O875   C885    1.282   .     S
O876   Zn884   1.972   .     S
O876   C964    1.282   1_455 S
O877   Zn884   1.977   .     S
O878   Zn883   1.977   .     S
O879   Zn883   1.951   .     S
O879   C914    1.297   .     S
O880   Zn884   1.951   .     S
O880   C954    1.297   1_455 S
O881   Zn884   1.901   .     S
O882   Zn883   1.901   .     S
C885   C912    1.401   .     S
C885   O945    1.298   .     A
C886   C888    1.448   .     S
C886   O950    1.309   .     A
C886   O1016   1.297   .     S
C887   C914    1.448   .     S
C887   C893    1.383   .     A
C887   C891    1.398   .     A
C888   C892    1.398   .     A
C888   C894    1.383   .     A
C889   C898    1.406   .     A
C889   C891    1.392   .     A
C890   C892    1.392   .     A
C890   C899    1.406   .     A
C890   H1007   1.084   .     S
C892   H1004   1.083   .     S
C893   H935    1.075   .     S
C893   C895    1.393   .     A
C894   H934    1.075   .     S
C894   C897    1.393   .     A
C895   C900    1.422   .     A
C895   C898    1.415   .     A
C896   C913    1.401   .     S
C896   O946    1.298   .     A
C896   O1012   1.282   .     S
C897   C901    1.422   .     A
C897   C899    1.415   .     A
C898   C298    1.383   1_556 S
C900   C909    1.439   .     A
C900   C289    1.429   1_556 S
C901   C907    1.439   .     A
C902   H940    1.109   .     S
C902   H917    1.103   .     S
C902   C907    1.511   .     S
C902   H916    1.110   .     S
C903   H919    1.109   .     S
C903   H920    1.103   .     S
C903   C909    1.511   .     S
C903   H918    1.110   .     S
C904   H921    1.112   .     S
C904   C912    1.523   .     S
C904   H1126   1.110   .     S
C904   H1127   1.108   .     S
C905   H924    1.112   .     S
C905   C913    1.523   .     S
C906   N941    1.439   .     S
C906   H930    1.110   .     S
C906   H929    1.101   .     S
C906   H928    1.106   .     S
C907   C910    1.394   .     A
C908   H932    1.110   .     S
C908   H933    1.101   .     S
C908   N942    1.439   .     S
C908   H931    1.106   .     S
C909   C911    1.394   .     A
C910   H915    1.086   .     S
C911   H926    1.086   .     S
C911   C287    1.383   1_556 S
C912   C1049   1.356   .     S
C914   O949    1.309   .     A
H925   C1109   1.108   .     S
H927   C1109   1.110   .     S
H937   C959    1.083   .     S
H938   C957    1.084   .     S
N941   N942    1.296   .     D
N941   Zn952   2.042   .     S
N942   Zn951   2.042   .     S
O943   Zn951   1.972   .     S
O943   C953    1.282   .     S
O944   Zn952   1.972   .     S
O945   Zn952   1.977   .     S
O946   Zn951   1.977   .     S
O947   Zn951   1.951   .     S
O947   C982    1.297   .     S
O948   Zn952   1.951   .     S
O949   Zn952   1.901   .     S
O950   Zn951   1.901   .     S
C953   C980    1.401   .     S
C953   O1013   1.298   .     A
C954   C956    1.448   .     S
C954   O1018   1.309   .     A
C954   O880    1.297   1_655 S
C955   C982    1.448   .     S
C955   C961    1.383   .     A
C955   C959    1.398   .     A
C956   C960    1.398   .     A
C956   C962    1.383   .     A
C957   C966    1.406   .     A
C957   C959    1.392   .     A
C958   C960    1.392   .     A
C958   C967    1.406   .     A
C958   H871    1.084   1_655 S
C960   H868    1.083   1_655 S
C961   H1003   1.075   .     S
C961   C963    1.393   .     A
C962   H1002   1.075   .     S
C962   C965    1.393   .     A
C963   C968    1.422   .     A
C963   C966    1.415   .     A
C964   C981    1.401   .     S
C964   O1014   1.298   .     A
C964   O876    1.282   1_655 S
C965   C969    1.422   .     A
C965   C967    1.415   .     A
C966   C366    1.383   1_556 S
C968   C977    1.439   .     A
C968   C357    1.429   1_556 S
C969   C975    1.439   .     A
C970   H1008   1.109   .     S
C970   H985    1.103   .     S
C970   C975    1.511   .     S
C970   H984    1.110   .     S
C971   H987    1.109   .     S
C971   H988    1.103   .     S
C971   C977    1.511   .     S
C971   H986    1.110   .     S
C972   H989    1.112   .     S
C972   C980    1.523   .     S
C972   H1194   1.110   .     S
C972   H1195   1.108   .     S
C973   H992    1.112   .     S
C973   C981    1.523   .     S
C974   N1009   1.439   .     S
C974   H998    1.110   .     S
C974   H997    1.101   .     S
C974   H996    1.106   .     S
C975   C978    1.394   .     A
C976   H1000   1.110   .     S
C976   H1001   1.101   .     S
C976   N1010   1.439   .     S
C976   H999    1.106   .     S
C977   C979    1.394   .     A
C978   H983    1.086   .     S
C979   H994    1.086   .     S
C979   C355    1.383   1_556 S
C980   C1117   1.356   .     S
C981   C640    1.356   1_655 S
C982   O1017   1.309   .     A
H993   C1177   1.108   .     S
H995   C1177   1.110   .     S
H1005  C823    1.083   1_655 S
H1006  C821    1.084   1_655 S
N1009  N1010   1.296   .     D
N1009  Zn1020  2.042   .     S
N1010  Zn1019  2.042   .     S
O1011  Zn1019  1.972   .     S
O1011  C817    1.282   1_655 S
O1012  Zn1020  1.972   .     S
O1013  Zn1020  1.977   .     S
O1014  Zn1019  1.977   .     S
O1015  Zn1019  1.951   .     S
O1015  C846    1.297   1_655 S
O1016  Zn1020  1.951   .     S
O1017  Zn1020  1.901   .     S
O1018  Zn1019  1.901   .     S
C1021  C1048   1.401   .     S
C1021  O1081   1.298   .     A
C1021  O1215   1.282   1_455 S
C1022  C1024   1.448   .     S
C1022  O1086   1.309   .     A
C1022  O1152   1.297   .     S
C1023  C1050   1.448   .     S
C1023  C1029   1.383   .     A
C1023  C1027   1.398   .     A
C1024  C1028   1.398   .     A
C1024  C1030   1.383   .     A
C1025  C1034   1.406   .     A
C1025  C1027   1.392   .     A
C1025  H1210   1.084   1_455 S
C1026  C1028   1.392   .     A
C1026  C1035   1.406   .     A
C1026  H1143   1.084   .     S
C1027  H1209   1.083   1_455 S
C1028  H1140   1.083   .     S
C1029  H1071   1.075   .     S
C1029  C1031   1.393   .     A
C1030  H1070   1.075   .     S
C1030  C1033   1.393   .     A
C1031  C1036   1.422   .     A
C1031  C1034   1.415   .     A
C1032  C1049   1.401   .     S
C1032  O1082   1.298   .     A
C1032  O1148   1.282   .     S
C1033  C1037   1.422   .     A
C1033  C1035   1.415   .     A
C1034  C434    1.383   1_556 S
C1036  C1045   1.439   .     A
C1036  C425    1.429   1_556 S
C1037  C1043   1.439   .     A
C1038  H1076   1.109   .     S
C1038  H1053   1.103   .     S
C1038  C1043   1.511   .     S
C1038  H1052   1.110   .     S
C1039  H1055   1.109   .     S
C1039  H1056   1.103   .     S
C1039  C1045   1.511   .     S
C1039  H1054   1.110   .     S
C1040  H1057   1.112   .     S
C1040  C1048   1.523   .     S
C1040  H650    1.110   1_565 S
C1040  H651    1.108   1_565 S
C1041  H1060   1.112   .     S
C1041  C1049   1.523   .     S
C1042  N1077   1.439   .     S
C1042  H1066   1.110   .     S
C1042  H1065   1.101   .     S
C1042  H1064   1.106   .     S
C1043  C1046   1.394   .     A
C1044  H1068   1.110   .     S
C1044  H1069   1.101   .     S
C1044  N1078   1.439   .     S
C1044  H1067   1.106   .     S
C1045  C1047   1.394   .     A
C1046  H1051   1.086   .     S
C1047  H1062   1.086   .     S
C1047  C423    1.383   1_556 S
C1048  C777    1.356   1_465 S
C1050  O1085   1.309   .     A
C1050  O1219   1.297   1_455 S
H1061  C633    1.108   1_565 S
H1063  C633    1.110   1_565 S
H1072  C1164   1.083   1_455 S
H1073  C1095   1.083   .     S
H1074  C1093   1.084   .     S
H1075  C1162   1.084   1_455 S
N1077  N1078   1.296   .     D
N1077  Zn1088  2.042   .     S
N1078  Zn1087  2.042   .     S
O1079  Zn1087  1.972   .     S
O1079  C1089   1.282   .     S
O1080  Zn1088  1.972   .     S
O1080  C1168   1.282   1_455 S
O1081  Zn1088  1.977   .     S
O1082  Zn1087  1.977   .     S
O1083  Zn1087  1.951   .     S
O1083  C1118   1.297   .     S
O1084  Zn1088  1.951   .     S
O1084  C1158   1.297   1_455 S
O1085  Zn1088  1.901   .     S
O1086  Zn1087  1.901   .     S
C1089  C1116   1.401   .     S
C1089  O1149   1.298   .     A
C1090  C1092   1.448   .     S
C1090  O1154   1.309   .     A
C1090  O1220   1.297   .     S
C1091  C1118   1.448   .     S
C1091  C1097   1.383   .     A
C1091  C1095   1.398   .     A
C1092  C1096   1.398   .     A
C1092  C1098   1.383   .     A
C1093  C1102   1.406   .     A
C1093  C1095   1.392   .     A
C1094  C1096   1.392   .     A
C1094  C1103   1.406   .     A
C1094  H1211   1.084   .     S
C1096  H1208   1.083   .     S
C1097  H1139   1.075   .     S
C1097  C1099   1.393   .     A
C1098  H1138   1.075   .     S
C1098  C1101   1.393   .     A
C1099  C1104   1.422   .     A
C1099  C1102   1.415   .     A
C1100  C1117   1.401   .     S
C1100  O1150   1.298   .     A
C1100  O1216   1.282   .     S
C1101  C1105   1.422   .     A
C1101  C1103   1.415   .     A
C1102  C502    1.383   1_556 S
C1104  C1113   1.439   .     A
C1104  C493    1.429   1_556 S
C1105  C1111   1.439   .     A
C1106  H1144   1.109   .     S
C1106  H1121   1.103   .     S
C1106  C1111   1.511   .     S
C1106  H1120   1.110   .     S
C1107  H1123   1.109   .     S
C1107  H1124   1.103   .     S
C1107  C1113   1.511   .     S
C1107  H1122   1.110   .     S
C1108  H1125   1.112   .     S
C1108  C1116   1.523   .     S
C1108  H718    1.110   1_565 S
C1108  H719    1.108   1_565 S
C1109  H1128   1.112   .     S
C1109  C1117   1.523   .     S
C1110  N1145   1.439   .     S
C1110  H1134   1.110   .     S
C1110  H1133   1.101   .     S
C1110  H1132   1.106   .     S
C1111  C1114   1.394   .     A
C1112  H1136   1.110   .     S
C1112  H1137   1.101   .     S
C1112  N1146   1.439   .     S
C1112  H1135   1.106   .     S
C1113  C1115   1.394   .     A
C1114  H1119   1.086   .     S
C1115  H1130   1.086   .     S
C1115  C491    1.383   1_556 S
C1116  C641    1.356   1_565 S
C1118  O1153   1.309   .     A
H1129  C701    1.108   1_565 S
H1131  C701    1.110   1_565 S
H1141  C1163   1.083   .     S
H1142  C1161   1.084   .     S
N1145  N1146   1.296   .     D
N1145  Zn1156  2.042   .     S
N1146  Zn1155  2.042   .     S
O1147  Zn1155  1.972   .     S
O1147  C1157   1.282   .     S
O1148  Zn1156  1.972   .     S
O1149  Zn1156  1.977   .     S
O1150  Zn1155  1.977   .     S
O1151  Zn1155  1.951   .     S
O1151  C1186   1.297   .     S
O1152  Zn1156  1.951   .     S
O1153  Zn1156  1.901   .     S
O1154  Zn1155  1.901   .     S
C1157  C1184   1.401   .     S
C1157  O1217   1.298   .     A
C1158  C1160   1.448   .     S
C1158  O1222   1.309   .     A
C1158  O1084   1.297   1_655 S
C1159  C1186   1.448   .     S
C1159  C1165   1.383   .     A
C1159  C1163   1.398   .     A
C1160  C1164   1.398   .     A
C1160  C1166   1.383   .     A
C1161  C1170   1.406   .     A
C1161  C1163   1.392   .     A
C1162  C1164   1.392   .     A
C1162  C1171   1.406   .     A
C1162  H1075   1.084   1_655 S
C1164  H1072   1.083   1_655 S
C1165  H1207   1.075   .     S
C1165  C1167   1.393   .     A
C1166  H1206   1.075   .     S
C1166  C1169   1.393   .     A
C1167  C1172   1.422   .     A
C1167  C1170   1.415   .     A
C1168  C1185   1.401   .     S
C1168  O1218   1.298   .     A
C1168  O1080   1.282   1_655 S
C1169  C1173   1.422   .     A
C1169  C1171   1.415   .     A
C1170  C570    1.383   1_556 S
C1172  C1181   1.439   .     A
C1172  C561    1.429   1_556 S
C1173  C1179   1.439   .     A
C1174  H1212   1.109   .     S
C1174  H1189   1.103   .     S
C1174  C1179   1.511   .     S
C1174  H1188   1.110   .     S
C1175  H1191   1.109   .     S
C1175  H1192   1.103   .     S
C1175  C1181   1.511   .     S
C1175  H1190   1.110   .     S
C1176  H1193   1.112   .     S
C1176  C1184   1.523   .     S
C1176  H786    1.110   1_565 S
C1176  H787    1.108   1_565 S
C1177  H1196   1.112   .     S
C1177  C1185   1.523   .     S
C1178  N1213   1.439   .     S
C1178  H1202   1.110   .     S
C1178  H1201   1.101   .     S
C1178  H1200   1.106   .     S
C1179  C1182   1.394   .     A
C1180  H1204   1.110   .     S
C1180  H1205   1.101   .     S
C1180  N1214   1.439   .     S
C1180  H1203   1.106   .     S
C1181  C1183   1.394   .     A
C1182  H1187   1.086   .     S
C1183  H1198   1.086   .     S
C1183  C559    1.383   1_556 S
C1184  C709    1.356   1_565 S
C1185  C844    1.356   1_655 S
C1186  O1221   1.309   .     A
H1197  C769    1.108   1_565 S
H1199  C769    1.110   1_565 S
H1209  C1027   1.083   1_655 S
H1210  C1025   1.084   1_655 S
N1213  N1214   1.296   .     D
N1213  Zn1224  2.042   .     S
N1214  Zn1223  2.042   .     S
O1215  Zn1223  1.972   .     S
O1215  C1021   1.282   1_655 S
O1216  Zn1224  1.972   .     S
O1217  Zn1224  1.977   .     S
O1218  Zn1223  1.977   .     S
O1219  Zn1223  1.951   .     S
O1219  C1050   1.297   1_655 S
O1220  Zn1224  1.951   .     S
O1221  Zn1224  1.901   .     S
O1222  Zn1223  1.901   .     S
