data_str_m3_o1_o17_pcu_sym.78
_audit_creation_date              2020-01-03
_audit_creation_method            'Materials Studio'
_symmetry_space_group_name_H-M    'P1'
_symmetry_Int_Tables_number       1
_symmetry_cell_setting            triclinic
loop_
_symmetry_equiv_pos_as_xyz
  x,y,z
_cell_length_a                    32.1479
_cell_length_b                    29.5245
_cell_length_c                    29.9924
_cell_angle_alpha                 90.0053
_cell_angle_beta                  90.1813
_cell_angle_gamma                 90.0815
loop_
_atom_site_label
_atom_site_type_symbol
_atom_site_fract_x
_atom_site_fract_y
_atom_site_fract_z
_atom_site_U_iso_or_equiv
_atom_site_adp_type
_atom_site_occupancy
C1     C     0.08663   0.16665   0.24997   0.00000  Uiso   1.00
C2     C     0.04248   0.16664   0.24997   0.00000  Uiso   1.00
C3     C     0.19363   0.02403   0.27654   0.00000  Uiso   1.00
C4     C     0.13970   0.30930   0.22346   0.00000  Uiso   1.00
C5     C     0.13971   0.02394   0.22346   0.00000  Uiso   1.00
C6     C     0.19363   0.30940   0.27654   0.00000  Uiso   1.00
C7     C     0.16663   0.16667   0.16365   0.00000  Uiso   1.00
C8     C     0.16670   0.16666   0.33635   0.00000  Uiso   1.00
C9     C     0.20061   0.14760   0.40675   0.00000  Uiso   1.00
C10    C     0.13272   0.18573   0.09325   0.00000  Uiso   1.00
C11    C     0.16668   0.16664   0.38407   0.00000  Uiso   1.00
C12    C     0.24671   0.16669   0.25003   0.00000  Uiso   1.00
C13    C     0.16665   0.16669   0.11593   0.00000  Uiso   1.00
C14    C     0.13270   0.18560   0.40650   0.00000  Uiso   1.00
C15    C     0.20063   0.14773   0.09350   0.00000  Uiso   1.00
C16    C     0.13263   0.18580   0.45309   0.00000  Uiso   1.00
C17    C     0.20071   0.14754   0.04691   0.00000  Uiso   1.00
C18    C     0.16667   0.16665   0.47657   0.00000  Uiso   1.00
C19    C     0.16667   0.16668   0.02343   0.00000  Uiso   1.00
C20    C     0.20069   0.14747   0.45334   0.00000  Uiso   1.00
C21    C     0.13264   0.18587   0.04666   0.00000  Uiso   1.00
C22    C     0.09926   0.20462   0.47675   0.00000  Uiso   1.00
C23    C     0.09927   0.20466   0.02276   0.00000  Uiso   1.00
C24    C     0.23408   0.12871   0.02325   0.00000  Uiso   1.00
C25    C     0.23556   0.12931   0.38181   0.00000  Uiso   1.00
C26    C     0.09778   0.20402   0.11818   0.00000  Uiso   1.00
C27    C     0.09767   0.20365   0.38131   0.00000  Uiso   1.00
C28    C     0.23567   0.12968   0.11869   0.00000  Uiso   1.00
C29    C     0.23407   0.12867   0.47724   0.00000  Uiso   1.00
C30    C     0.02126   0.12579   0.25602   0.00000  Uiso   1.00
C31    C     0.31208   0.20754   0.24398   0.00000  Uiso   1.00
C32    C     0.31200   0.12582   0.25605   0.00000  Uiso   1.00
C33    C     0.02134   0.20752   0.24395   0.00000  Uiso   1.00
C34    C     0.29086   0.16669   0.25003   0.00000  Uiso   1.00
H35    H     0.07278   0.21959   0.45996   0.00000  Uiso   1.00
H36    H     0.11815   0.29108   0.20224   0.00000  Uiso   1.00
H37    H     0.11815   0.04208   0.20224   0.00000  Uiso   1.00
H38    H     0.21518   0.29126   0.29776   0.00000  Uiso   1.00
H39    H     0.26055   0.11374   0.04004   0.00000  Uiso   1.00
H40    H     0.07279   0.21965   0.03936   0.00000  Uiso   1.00
H41    H     0.26055   0.11368   0.46064   0.00000  Uiso   1.00
H42    H     0.03742   0.09399   0.26092   0.00000  Uiso   1.00
H43    H     0.29592   0.23935   0.23908   0.00000  Uiso   1.00
H44    H     0.29578   0.09402   0.26098   0.00000  Uiso   1.00
H45    H     0.03756   0.23932   0.23902   0.00000  Uiso   1.00
H46    H     0.21518   0.04225   0.29776   0.00000  Uiso   1.00
N47    N     0.16667   0.28573   0.25000   0.00000  Uiso   1.00
N48    N     0.16667   0.04760   0.25000   0.00000  Uiso   1.00
N49    N     0.26331   0.11479   0.36194   0.00000  Uiso   1.00
N50    N     0.07002   0.21854   0.13806   0.00000  Uiso   1.00
N51    N     0.06983   0.21796   0.36121   0.00000  Uiso   1.00
N52    N     0.26350   0.11538   0.13879   0.00000  Uiso   1.00
O53    O     0.10559   0.20487   0.24999   0.00000  Uiso   1.00
O54    O     0.22774   0.12846   0.25000   0.00000  Uiso   1.00
O55    O     0.22774   0.20487   0.25000   0.00000  Uiso   1.00
O56    O     0.10559   0.12846   0.24999   0.00000  Uiso   1.00
O57    O     0.16666   0.20489   0.18392   0.00000  Uiso   1.00
O58    O     0.16667   0.12844   0.31607   0.00000  Uiso   1.00
O59    O     0.16667   0.20489   0.31607   0.00000  Uiso   1.00
O60    O     0.16666   0.12844   0.18392   0.00000  Uiso   1.00
Zn61   Zn    0.16667   0.21771   0.25000   0.00000  Uiso   1.00
Zn62   Zn    0.16667   0.11563   0.25000   0.00000  Uiso   1.00
C63    C     0.41996   0.16665   0.24997   0.00000  Uiso   1.00
C64    C     0.37581   0.16664   0.24997   0.00000  Uiso   1.00
C65    C     0.52696   0.02403   0.27654   0.00000  Uiso   1.00
C66    C     0.47304   0.30930   0.22346   0.00000  Uiso   1.00
C67    C     0.47304   0.02394   0.22346   0.00000  Uiso   1.00
C68    C     0.52696   0.30940   0.27654   0.00000  Uiso   1.00
C69    C     0.49997   0.16667   0.16365   0.00000  Uiso   1.00
C70    C     0.50003   0.16666   0.33635   0.00000  Uiso   1.00
C71    C     0.53394   0.14760   0.40675   0.00000  Uiso   1.00
C72    C     0.46606   0.18573   0.09325   0.00000  Uiso   1.00
C73    C     0.50001   0.16664   0.38407   0.00000  Uiso   1.00
C74    C     0.58004   0.16669   0.25003   0.00000  Uiso   1.00
C75    C     0.49999   0.16669   0.11593   0.00000  Uiso   1.00
C76    C     0.46604   0.18560   0.40650   0.00000  Uiso   1.00
C77    C     0.53396   0.14773   0.09350   0.00000  Uiso   1.00
C78    C     0.46596   0.18580   0.45309   0.00000  Uiso   1.00
C79    C     0.53404   0.14754   0.04691   0.00000  Uiso   1.00
C80    C     0.50000   0.16665   0.47657   0.00000  Uiso   1.00
C81    C     0.50000   0.16668   0.02343   0.00000  Uiso   1.00
C82    C     0.53403   0.14747   0.45334   0.00000  Uiso   1.00
C83    C     0.46597   0.18587   0.04666   0.00000  Uiso   1.00
C84    C     0.43259   0.20462   0.47675   0.00000  Uiso   1.00
C85    C     0.43260   0.20466   0.02276   0.00000  Uiso   1.00
C86    C     0.56741   0.12871   0.02325   0.00000  Uiso   1.00
C87    C     0.56889   0.12931   0.38181   0.00000  Uiso   1.00
C88    C     0.43111   0.20402   0.11818   0.00000  Uiso   1.00
C89    C     0.43100   0.20365   0.38131   0.00000  Uiso   1.00
C90    C     0.56900   0.12968   0.11869   0.00000  Uiso   1.00
C91    C     0.56740   0.12867   0.47724   0.00000  Uiso   1.00
C92    C     0.35459   0.12579   0.25602   0.00000  Uiso   1.00
C93    C     0.64541   0.20754   0.24398   0.00000  Uiso   1.00
C94    C     0.64533   0.12582   0.25605   0.00000  Uiso   1.00
C95    C     0.35467   0.20752   0.24395   0.00000  Uiso   1.00
C96    C     0.62419   0.16669   0.25003   0.00000  Uiso   1.00
H97    H     0.40611   0.21959   0.45996   0.00000  Uiso   1.00
H98    H     0.45149   0.29108   0.20224   0.00000  Uiso   1.00
H99    H     0.45149   0.04208   0.20224   0.00000  Uiso   1.00
H100   H     0.54851   0.29126   0.29776   0.00000  Uiso   1.00
H101   H     0.59389   0.11374   0.04004   0.00000  Uiso   1.00
H102   H     0.40612   0.21965   0.03936   0.00000  Uiso   1.00
H103   H     0.59388   0.11368   0.46064   0.00000  Uiso   1.00
H104   H     0.37075   0.09399   0.26092   0.00000  Uiso   1.00
H105   H     0.62925   0.23935   0.23908   0.00000  Uiso   1.00
H106   H     0.62911   0.09402   0.26098   0.00000  Uiso   1.00
H107   H     0.37089   0.23932   0.23902   0.00000  Uiso   1.00
H108   H     0.54851   0.04225   0.29776   0.00000  Uiso   1.00
N109   N     0.50000   0.28573   0.25000   0.00000  Uiso   1.00
N110   N     0.50000   0.04760   0.25000   0.00000  Uiso   1.00
N111   N     0.59665   0.11479   0.36194   0.00000  Uiso   1.00
N112   N     0.40335   0.21854   0.13806   0.00000  Uiso   1.00
N113   N     0.40317   0.21796   0.36121   0.00000  Uiso   1.00
N114   N     0.59683   0.11538   0.13879   0.00000  Uiso   1.00
O115   O     0.43892   0.20487   0.24999   0.00000  Uiso   1.00
O116   O     0.56108   0.12846   0.25000   0.00000  Uiso   1.00
O117   O     0.56108   0.20487   0.25000   0.00000  Uiso   1.00
O118   O     0.43892   0.12846   0.24999   0.00000  Uiso   1.00
O119   O     0.49999   0.20489   0.18392   0.00000  Uiso   1.00
O120   O     0.50001   0.12844   0.31607   0.00000  Uiso   1.00
O121   O     0.50001   0.20489   0.31607   0.00000  Uiso   1.00
O122   O     0.49999   0.12844   0.18392   0.00000  Uiso   1.00
Zn123  Zn    0.50000   0.21771   0.25000   0.00000  Uiso   1.00
Zn124  Zn    0.50000   0.11563   0.25000   0.00000  Uiso   1.00
C125   C     0.75329   0.16665   0.24997   0.00000  Uiso   1.00
C126   C     0.70914   0.16664   0.24997   0.00000  Uiso   1.00
C127   C     0.86030   0.02403   0.27654   0.00000  Uiso   1.00
C128   C     0.80637   0.30930   0.22346   0.00000  Uiso   1.00
C129   C     0.80637   0.02394   0.22346   0.00000  Uiso   1.00
C130   C     0.86029   0.30940   0.27654   0.00000  Uiso   1.00
C131   C     0.83330   0.16667   0.16365   0.00000  Uiso   1.00
C132   C     0.83337   0.16666   0.33635   0.00000  Uiso   1.00
C133   C     0.86728   0.14760   0.40675   0.00000  Uiso   1.00
C134   C     0.79939   0.18573   0.09325   0.00000  Uiso   1.00
C135   C     0.83335   0.16664   0.38407   0.00000  Uiso   1.00
C136   C     0.91338   0.16669   0.25003   0.00000  Uiso   1.00
C137   C     0.83332   0.16669   0.11593   0.00000  Uiso   1.00
C138   C     0.79937   0.18560   0.40650   0.00000  Uiso   1.00
C139   C     0.86730   0.14773   0.09350   0.00000  Uiso   1.00
C140   C     0.79929   0.18580   0.45309   0.00000  Uiso   1.00
C141   C     0.86737   0.14754   0.04691   0.00000  Uiso   1.00
C142   C     0.83333   0.16665   0.47657   0.00000  Uiso   1.00
C143   C     0.83333   0.16668   0.02343   0.00000  Uiso   1.00
C144   C     0.86736   0.14747   0.45334   0.00000  Uiso   1.00
C145   C     0.79931   0.18587   0.04666   0.00000  Uiso   1.00
C146   C     0.76592   0.20462   0.47675   0.00000  Uiso   1.00
C147   C     0.76593   0.20466   0.02276   0.00000  Uiso   1.00
C148   C     0.90074   0.12871   0.02325   0.00000  Uiso   1.00
C149   C     0.90222   0.12931   0.38181   0.00000  Uiso   1.00
C150   C     0.76444   0.20402   0.11818   0.00000  Uiso   1.00
C151   C     0.76433   0.20365   0.38131   0.00000  Uiso   1.00
C152   C     0.90234   0.12968   0.11869   0.00000  Uiso   1.00
C153   C     0.90073   0.12867   0.47724   0.00000  Uiso   1.00
C154   C     0.68792   0.12579   0.25602   0.00000  Uiso   1.00
C155   C     0.97874   0.20754   0.24398   0.00000  Uiso   1.00
C156   C     0.97867   0.12582   0.25605   0.00000  Uiso   1.00
C157   C     0.68800   0.20752   0.24395   0.00000  Uiso   1.00
C158   C     0.95752   0.16669   0.25003   0.00000  Uiso   1.00
H159   H     0.73945   0.21959   0.45996   0.00000  Uiso   1.00
H160   H     0.78482   0.29108   0.20224   0.00000  Uiso   1.00
H161   H     0.78482   0.04208   0.20224   0.00000  Uiso   1.00
H162   H     0.88185   0.29126   0.29776   0.00000  Uiso   1.00
H163   H     0.92722   0.11374   0.04004   0.00000  Uiso   1.00
H164   H     0.73946   0.21965   0.03936   0.00000  Uiso   1.00
H165   H     0.92721   0.11368   0.46064   0.00000  Uiso   1.00
H166   H     0.70408   0.09399   0.26092   0.00000  Uiso   1.00
H167   H     0.96259   0.23935   0.23908   0.00000  Uiso   1.00
H168   H     0.96244   0.09402   0.26098   0.00000  Uiso   1.00
H169   H     0.70422   0.23932   0.23902   0.00000  Uiso   1.00
H170   H     0.88185   0.04225   0.29776   0.00000  Uiso   1.00
N171   N     0.83333   0.28573   0.25000   0.00000  Uiso   1.00
N172   N     0.83333   0.04760   0.25000   0.00000  Uiso   1.00
N173   N     0.92998   0.11479   0.36194   0.00000  Uiso   1.00
N174   N     0.73669   0.21854   0.13806   0.00000  Uiso   1.00
N175   N     0.73650   0.21796   0.36121   0.00000  Uiso   1.00
N176   N     0.93017   0.11538   0.13879   0.00000  Uiso   1.00
O177   O     0.77226   0.20487   0.24999   0.00000  Uiso   1.00
O178   O     0.89441   0.12846   0.25000   0.00000  Uiso   1.00
O179   O     0.89441   0.20487   0.25000   0.00000  Uiso   1.00
O180   O     0.77226   0.12846   0.24999   0.00000  Uiso   1.00
O181   O     0.83333   0.20489   0.18392   0.00000  Uiso   1.00
O182   O     0.83334   0.12844   0.31607   0.00000  Uiso   1.00
O183   O     0.83334   0.20489   0.31607   0.00000  Uiso   1.00
O184   O     0.83333   0.12844   0.18392   0.00000  Uiso   1.00
Zn185  Zn    0.83333   0.21771   0.25000   0.00000  Uiso   1.00
Zn186  Zn    0.83333   0.11563   0.25000   0.00000  Uiso   1.00
C187   C     0.08663   0.49998   0.24997   0.00000  Uiso   1.00
C188   C     0.04248   0.49998   0.24997   0.00000  Uiso   1.00
C189   C     0.19363   0.35737   0.27654   0.00000  Uiso   1.00
C190   C     0.13970   0.64263   0.22346   0.00000  Uiso   1.00
C191   C     0.13971   0.35727   0.22346   0.00000  Uiso   1.00
C192   C     0.19363   0.64273   0.27654   0.00000  Uiso   1.00
C193   C     0.16663   0.50000   0.16365   0.00000  Uiso   1.00
C194   C     0.16670   0.50000   0.33635   0.00000  Uiso   1.00
C195   C     0.20061   0.48094   0.40675   0.00000  Uiso   1.00
C196   C     0.13272   0.51906   0.09325   0.00000  Uiso   1.00
C197   C     0.16668   0.49997   0.38407   0.00000  Uiso   1.00
C198   C     0.24671   0.50002   0.25003   0.00000  Uiso   1.00
C199   C     0.16665   0.50003   0.11593   0.00000  Uiso   1.00
C200   C     0.13270   0.51894   0.40650   0.00000  Uiso   1.00
C201   C     0.20063   0.48106   0.09350   0.00000  Uiso   1.00
C202   C     0.13263   0.51913   0.45309   0.00000  Uiso   1.00
C203   C     0.20071   0.48087   0.04691   0.00000  Uiso   1.00
C204   C     0.16667   0.49999   0.47657   0.00000  Uiso   1.00
C205   C     0.16667   0.50001   0.02343   0.00000  Uiso   1.00
C206   C     0.20069   0.48080   0.45334   0.00000  Uiso   1.00
C207   C     0.13264   0.51920   0.04666   0.00000  Uiso   1.00
C208   C     0.09926   0.53795   0.47675   0.00000  Uiso   1.00
C209   C     0.09927   0.53799   0.02276   0.00000  Uiso   1.00
C210   C     0.23408   0.46205   0.02325   0.00000  Uiso   1.00
C211   C     0.23556   0.46264   0.38181   0.00000  Uiso   1.00
C212   C     0.09778   0.53736   0.11818   0.00000  Uiso   1.00
C213   C     0.09767   0.53699   0.38131   0.00000  Uiso   1.00
C214   C     0.23567   0.46301   0.11869   0.00000  Uiso   1.00
C215   C     0.23407   0.46201   0.47724   0.00000  Uiso   1.00
C216   C     0.02126   0.45913   0.25602   0.00000  Uiso   1.00
C217   C     0.31208   0.54087   0.24398   0.00000  Uiso   1.00
C218   C     0.31200   0.45915   0.25605   0.00000  Uiso   1.00
C219   C     0.02134   0.54085   0.24395   0.00000  Uiso   1.00
C220   C     0.29086   0.50002   0.25003   0.00000  Uiso   1.00
H221   H     0.07278   0.55292   0.45996   0.00000  Uiso   1.00
H222   H     0.11815   0.62442   0.20224   0.00000  Uiso   1.00
H223   H     0.11815   0.37541   0.20224   0.00000  Uiso   1.00
H224   H     0.21518   0.62459   0.29776   0.00000  Uiso   1.00
H225   H     0.26055   0.44708   0.04004   0.00000  Uiso   1.00
H226   H     0.07279   0.55299   0.03936   0.00000  Uiso   1.00
H227   H     0.26055   0.44701   0.46064   0.00000  Uiso   1.00
H228   H     0.03742   0.42732   0.26092   0.00000  Uiso   1.00
H229   H     0.29592   0.57268   0.23908   0.00000  Uiso   1.00
H230   H     0.29578   0.42735   0.26098   0.00000  Uiso   1.00
H231   H     0.03756   0.57265   0.23902   0.00000  Uiso   1.00
H232   H     0.21518   0.37558   0.29776   0.00000  Uiso   1.00
N233   N     0.16667   0.61907   0.25000   0.00000  Uiso   1.00
N234   N     0.16667   0.38093   0.25000   0.00000  Uiso   1.00
N235   N     0.26331   0.44812   0.36194   0.00000  Uiso   1.00
N236   N     0.07002   0.55188   0.13806   0.00000  Uiso   1.00
N237   N     0.06983   0.55129   0.36121   0.00000  Uiso   1.00
N238   N     0.26350   0.44871   0.13879   0.00000  Uiso   1.00
O239   O     0.10559   0.53821   0.24999   0.00000  Uiso   1.00
O240   O     0.22774   0.46179   0.25000   0.00000  Uiso   1.00
O241   O     0.22774   0.53821   0.25000   0.00000  Uiso   1.00
O242   O     0.10559   0.46179   0.24999   0.00000  Uiso   1.00
O243   O     0.16666   0.53823   0.18392   0.00000  Uiso   1.00
O244   O     0.16667   0.46177   0.31607   0.00000  Uiso   1.00
O245   O     0.16667   0.53823   0.31607   0.00000  Uiso   1.00
O246   O     0.16666   0.46177   0.18392   0.00000  Uiso   1.00
Zn247  Zn    0.16667   0.55104   0.25000   0.00000  Uiso   1.00
Zn248  Zn    0.16667   0.44896   0.25000   0.00000  Uiso   1.00
C249   C     0.41996   0.49998   0.24997   0.00000  Uiso   1.00
C250   C     0.37581   0.49998   0.24997   0.00000  Uiso   1.00
C251   C     0.52696   0.35737   0.27654   0.00000  Uiso   1.00
C252   C     0.47304   0.64263   0.22346   0.00000  Uiso   1.00
C253   C     0.47304   0.35727   0.22346   0.00000  Uiso   1.00
C254   C     0.52696   0.64273   0.27654   0.00000  Uiso   1.00
C255   C     0.49997   0.50000   0.16365   0.00000  Uiso   1.00
C256   C     0.50003   0.50000   0.33635   0.00000  Uiso   1.00
C257   C     0.53394   0.48094   0.40675   0.00000  Uiso   1.00
C258   C     0.46606   0.51906   0.09325   0.00000  Uiso   1.00
C259   C     0.50001   0.49997   0.38407   0.00000  Uiso   1.00
C260   C     0.58004   0.50002   0.25003   0.00000  Uiso   1.00
C261   C     0.49999   0.50003   0.11593   0.00000  Uiso   1.00
C262   C     0.46604   0.51894   0.40650   0.00000  Uiso   1.00
C263   C     0.53396   0.48106   0.09350   0.00000  Uiso   1.00
C264   C     0.46596   0.51913   0.45309   0.00000  Uiso   1.00
C265   C     0.53404   0.48087   0.04691   0.00000  Uiso   1.00
C266   C     0.50000   0.49999   0.47657   0.00000  Uiso   1.00
C267   C     0.50000   0.50001   0.02343   0.00000  Uiso   1.00
C268   C     0.53403   0.48080   0.45334   0.00000  Uiso   1.00
C269   C     0.46597   0.51920   0.04666   0.00000  Uiso   1.00
C270   C     0.43259   0.53795   0.47675   0.00000  Uiso   1.00
C271   C     0.43260   0.53799   0.02276   0.00000  Uiso   1.00
C272   C     0.56741   0.46205   0.02325   0.00000  Uiso   1.00
C273   C     0.56889   0.46264   0.38181   0.00000  Uiso   1.00
C274   C     0.43111   0.53736   0.11818   0.00000  Uiso   1.00
C275   C     0.43100   0.53699   0.38131   0.00000  Uiso   1.00
C276   C     0.56900   0.46301   0.11869   0.00000  Uiso   1.00
C277   C     0.56740   0.46201   0.47724   0.00000  Uiso   1.00
C278   C     0.35459   0.45913   0.25602   0.00000  Uiso   1.00
C279   C     0.64541   0.54087   0.24398   0.00000  Uiso   1.00
C280   C     0.64533   0.45915   0.25605   0.00000  Uiso   1.00
C281   C     0.35467   0.54085   0.24395   0.00000  Uiso   1.00
C282   C     0.62419   0.50002   0.25003   0.00000  Uiso   1.00
H283   H     0.40611   0.55292   0.45996   0.00000  Uiso   1.00
H284   H     0.45149   0.62442   0.20224   0.00000  Uiso   1.00
H285   H     0.45149   0.37541   0.20224   0.00000  Uiso   1.00
H286   H     0.54851   0.62459   0.29776   0.00000  Uiso   1.00
H287   H     0.59389   0.44708   0.04004   0.00000  Uiso   1.00
H288   H     0.40612   0.55299   0.03936   0.00000  Uiso   1.00
H289   H     0.59388   0.44701   0.46064   0.00000  Uiso   1.00
H290   H     0.37075   0.42732   0.26092   0.00000  Uiso   1.00
H291   H     0.62925   0.57268   0.23908   0.00000  Uiso   1.00
H292   H     0.62911   0.42735   0.26098   0.00000  Uiso   1.00
H293   H     0.37089   0.57265   0.23902   0.00000  Uiso   1.00
H294   H     0.54851   0.37558   0.29776   0.00000  Uiso   1.00
N295   N     0.50000   0.61907   0.25000   0.00000  Uiso   1.00
N296   N     0.50000   0.38093   0.25000   0.00000  Uiso   1.00
N297   N     0.59665   0.44812   0.36194   0.00000  Uiso   1.00
N298   N     0.40335   0.55188   0.13806   0.00000  Uiso   1.00
N299   N     0.40317   0.55129   0.36121   0.00000  Uiso   1.00
N300   N     0.59683   0.44871   0.13879   0.00000  Uiso   1.00
O301   O     0.43892   0.53821   0.24999   0.00000  Uiso   1.00
O302   O     0.56108   0.46179   0.25000   0.00000  Uiso   1.00
O303   O     0.56108   0.53821   0.25000   0.00000  Uiso   1.00
O304   O     0.43892   0.46179   0.24999   0.00000  Uiso   1.00
O305   O     0.49999   0.53823   0.18392   0.00000  Uiso   1.00
O306   O     0.50001   0.46177   0.31607   0.00000  Uiso   1.00
O307   O     0.50001   0.53823   0.31607   0.00000  Uiso   1.00
O308   O     0.49999   0.46177   0.18392   0.00000  Uiso   1.00
Zn309  Zn    0.50000   0.55104   0.25000   0.00000  Uiso   1.00
Zn310  Zn    0.50000   0.44896   0.25000   0.00000  Uiso   1.00
C311   C     0.75329   0.49998   0.24997   0.00000  Uiso   1.00
C312   C     0.70914   0.49998   0.24997   0.00000  Uiso   1.00
C313   C     0.86030   0.35737   0.27654   0.00000  Uiso   1.00
C314   C     0.80637   0.64263   0.22346   0.00000  Uiso   1.00
C315   C     0.80637   0.35727   0.22346   0.00000  Uiso   1.00
C316   C     0.86029   0.64273   0.27654   0.00000  Uiso   1.00
C317   C     0.83330   0.50000   0.16365   0.00000  Uiso   1.00
C318   C     0.83337   0.50000   0.33635   0.00000  Uiso   1.00
C319   C     0.86728   0.48094   0.40675   0.00000  Uiso   1.00
C320   C     0.79939   0.51906   0.09325   0.00000  Uiso   1.00
C321   C     0.83335   0.49997   0.38407   0.00000  Uiso   1.00
C322   C     0.91338   0.50002   0.25003   0.00000  Uiso   1.00
C323   C     0.83332   0.50003   0.11593   0.00000  Uiso   1.00
C324   C     0.79937   0.51894   0.40650   0.00000  Uiso   1.00
C325   C     0.86730   0.48106   0.09350   0.00000  Uiso   1.00
C326   C     0.79929   0.51913   0.45309   0.00000  Uiso   1.00
C327   C     0.86737   0.48087   0.04691   0.00000  Uiso   1.00
C328   C     0.83333   0.49999   0.47657   0.00000  Uiso   1.00
C329   C     0.83333   0.50001   0.02343   0.00000  Uiso   1.00
C330   C     0.86736   0.48080   0.45334   0.00000  Uiso   1.00
C331   C     0.79931   0.51920   0.04666   0.00000  Uiso   1.00
C332   C     0.76592   0.53795   0.47675   0.00000  Uiso   1.00
C333   C     0.76593   0.53799   0.02276   0.00000  Uiso   1.00
C334   C     0.90074   0.46205   0.02325   0.00000  Uiso   1.00
C335   C     0.90222   0.46264   0.38181   0.00000  Uiso   1.00
C336   C     0.76444   0.53736   0.11818   0.00000  Uiso   1.00
C337   C     0.76433   0.53699   0.38131   0.00000  Uiso   1.00
C338   C     0.90234   0.46301   0.11869   0.00000  Uiso   1.00
C339   C     0.90073   0.46201   0.47724   0.00000  Uiso   1.00
C340   C     0.68792   0.45913   0.25602   0.00000  Uiso   1.00
C341   C     0.97874   0.54087   0.24398   0.00000  Uiso   1.00
C342   C     0.97867   0.45915   0.25605   0.00000  Uiso   1.00
C343   C     0.68800   0.54085   0.24395   0.00000  Uiso   1.00
C344   C     0.95752   0.50002   0.25003   0.00000  Uiso   1.00
H345   H     0.73945   0.55292   0.45996   0.00000  Uiso   1.00
H346   H     0.78482   0.62442   0.20224   0.00000  Uiso   1.00
H347   H     0.78482   0.37541   0.20224   0.00000  Uiso   1.00
H348   H     0.88185   0.62459   0.29776   0.00000  Uiso   1.00
H349   H     0.92722   0.44708   0.04004   0.00000  Uiso   1.00
H350   H     0.73946   0.55299   0.03936   0.00000  Uiso   1.00
H351   H     0.92721   0.44701   0.46064   0.00000  Uiso   1.00
H352   H     0.70408   0.42732   0.26092   0.00000  Uiso   1.00
H353   H     0.96259   0.57268   0.23908   0.00000  Uiso   1.00
H354   H     0.96244   0.42735   0.26098   0.00000  Uiso   1.00
H355   H     0.70422   0.57265   0.23902   0.00000  Uiso   1.00
H356   H     0.88185   0.37558   0.29776   0.00000  Uiso   1.00
N357   N     0.83333   0.61907   0.25000   0.00000  Uiso   1.00
N358   N     0.83333   0.38093   0.25000   0.00000  Uiso   1.00
N359   N     0.92998   0.44812   0.36194   0.00000  Uiso   1.00
N360   N     0.73669   0.55188   0.13806   0.00000  Uiso   1.00
N361   N     0.73650   0.55129   0.36121   0.00000  Uiso   1.00
N362   N     0.93017   0.44871   0.13879   0.00000  Uiso   1.00
O363   O     0.77226   0.53821   0.24999   0.00000  Uiso   1.00
O364   O     0.89441   0.46179   0.25000   0.00000  Uiso   1.00
O365   O     0.89441   0.53821   0.25000   0.00000  Uiso   1.00
O366   O     0.77226   0.46179   0.24999   0.00000  Uiso   1.00
O367   O     0.83333   0.53823   0.18392   0.00000  Uiso   1.00
O368   O     0.83334   0.46177   0.31607   0.00000  Uiso   1.00
O369   O     0.83334   0.53823   0.31607   0.00000  Uiso   1.00
O370   O     0.83333   0.46177   0.18392   0.00000  Uiso   1.00
Zn371  Zn    0.83333   0.55104   0.25000   0.00000  Uiso   1.00
Zn372  Zn    0.83333   0.44896   0.25000   0.00000  Uiso   1.00
C373   C     0.08663   0.83331   0.24997   0.00000  Uiso   1.00
C374   C     0.04248   0.83331   0.24997   0.00000  Uiso   1.00
C375   C     0.19363   0.69070   0.27654   0.00000  Uiso   1.00
C376   C     0.13970   0.97597   0.22346   0.00000  Uiso   1.00
C377   C     0.13971   0.69060   0.22346   0.00000  Uiso   1.00
C378   C     0.19363   0.97606   0.27654   0.00000  Uiso   1.00
C379   C     0.16663   0.83334   0.16365   0.00000  Uiso   1.00
C380   C     0.16670   0.83333   0.33635   0.00000  Uiso   1.00
C381   C     0.20061   0.81427   0.40675   0.00000  Uiso   1.00
C382   C     0.13272   0.85240   0.09325   0.00000  Uiso   1.00
C383   C     0.16668   0.83331   0.38407   0.00000  Uiso   1.00
C384   C     0.24671   0.83335   0.25003   0.00000  Uiso   1.00
C385   C     0.16665   0.83336   0.11593   0.00000  Uiso   1.00
C386   C     0.13270   0.85227   0.40650   0.00000  Uiso   1.00
C387   C     0.20063   0.81440   0.09350   0.00000  Uiso   1.00
C388   C     0.13263   0.85246   0.45309   0.00000  Uiso   1.00
C389   C     0.20071   0.81420   0.04691   0.00000  Uiso   1.00
C390   C     0.16667   0.83332   0.47657   0.00000  Uiso   1.00
C391   C     0.16667   0.83335   0.02343   0.00000  Uiso   1.00
C392   C     0.20069   0.81413   0.45334   0.00000  Uiso   1.00
C393   C     0.13264   0.85253   0.04666   0.00000  Uiso   1.00
C394   C     0.09926   0.87129   0.47675   0.00000  Uiso   1.00
C395   C     0.09927   0.87133   0.02276   0.00000  Uiso   1.00
C396   C     0.23408   0.79538   0.02325   0.00000  Uiso   1.00
C397   C     0.23556   0.79598   0.38181   0.00000  Uiso   1.00
C398   C     0.09778   0.87069   0.11818   0.00000  Uiso   1.00
C399   C     0.09767   0.87032   0.38131   0.00000  Uiso   1.00
C400   C     0.23567   0.79635   0.11869   0.00000  Uiso   1.00
C401   C     0.23407   0.79534   0.47724   0.00000  Uiso   1.00
C402   C     0.02126   0.79246   0.25602   0.00000  Uiso   1.00
C403   C     0.31208   0.87421   0.24398   0.00000  Uiso   1.00
C404   C     0.31200   0.79248   0.25605   0.00000  Uiso   1.00
C405   C     0.02134   0.87418   0.24395   0.00000  Uiso   1.00
C406   C     0.29086   0.83336   0.25003   0.00000  Uiso   1.00
H407   H     0.07278   0.88626   0.45996   0.00000  Uiso   1.00
H408   H     0.11815   0.95775   0.20224   0.00000  Uiso   1.00
H409   H     0.11815   0.70874   0.20224   0.00000  Uiso   1.00
H410   H     0.21518   0.95792   0.29776   0.00000  Uiso   1.00
H411   H     0.26055   0.78041   0.04004   0.00000  Uiso   1.00
H412   H     0.07279   0.88632   0.03936   0.00000  Uiso   1.00
H413   H     0.26055   0.78035   0.46064   0.00000  Uiso   1.00
H414   H     0.03742   0.76066   0.26092   0.00000  Uiso   1.00
H415   H     0.29592   0.90601   0.23908   0.00000  Uiso   1.00
H416   H     0.29578   0.76068   0.26098   0.00000  Uiso   1.00
H417   H     0.03756   0.90598   0.23902   0.00000  Uiso   1.00
H418   H     0.21518   0.70892   0.29776   0.00000  Uiso   1.00
N419   N     0.16667   0.95240   0.25000   0.00000  Uiso   1.00
N420   N     0.16667   0.71427   0.25000   0.00000  Uiso   1.00
N421   N     0.26331   0.78146   0.36194   0.00000  Uiso   1.00
N422   N     0.07002   0.88521   0.13806   0.00000  Uiso   1.00
N423   N     0.06983   0.88462   0.36121   0.00000  Uiso   1.00
N424   N     0.26350   0.78204   0.13879   0.00000  Uiso   1.00
O425   O     0.10559   0.87154   0.24999   0.00000  Uiso   1.00
O426   O     0.22774   0.79513   0.25000   0.00000  Uiso   1.00
O427   O     0.22774   0.87154   0.25000   0.00000  Uiso   1.00
O428   O     0.10559   0.79513   0.24999   0.00000  Uiso   1.00
O429   O     0.16666   0.87156   0.18392   0.00000  Uiso   1.00
O430   O     0.16667   0.79511   0.31607   0.00000  Uiso   1.00
O431   O     0.16667   0.87156   0.31607   0.00000  Uiso   1.00
O432   O     0.16666   0.79511   0.18392   0.00000  Uiso   1.00
Zn433  Zn    0.16667   0.88437   0.25000   0.00000  Uiso   1.00
Zn434  Zn    0.16667   0.78229   0.25000   0.00000  Uiso   1.00
C435   C     0.41996   0.83331   0.24997   0.00000  Uiso   1.00
C436   C     0.37581   0.83331   0.24997   0.00000  Uiso   1.00
C437   C     0.52696   0.69070   0.27654   0.00000  Uiso   1.00
C438   C     0.47304   0.97597   0.22346   0.00000  Uiso   1.00
C439   C     0.47304   0.69060   0.22346   0.00000  Uiso   1.00
C440   C     0.52696   0.97606   0.27654   0.00000  Uiso   1.00
C441   C     0.49997   0.83334   0.16365   0.00000  Uiso   1.00
C442   C     0.50003   0.83333   0.33635   0.00000  Uiso   1.00
C443   C     0.53394   0.81427   0.40675   0.00000  Uiso   1.00
C444   C     0.46606   0.85240   0.09325   0.00000  Uiso   1.00
C445   C     0.50001   0.83331   0.38407   0.00000  Uiso   1.00
C446   C     0.58004   0.83335   0.25003   0.00000  Uiso   1.00
C447   C     0.49999   0.83336   0.11593   0.00000  Uiso   1.00
C448   C     0.46604   0.85227   0.40650   0.00000  Uiso   1.00
C449   C     0.53396   0.81440   0.09350   0.00000  Uiso   1.00
C450   C     0.46596   0.85246   0.45309   0.00000  Uiso   1.00
C451   C     0.53404   0.81420   0.04691   0.00000  Uiso   1.00
C452   C     0.50000   0.83332   0.47657   0.00000  Uiso   1.00
C453   C     0.50000   0.83335   0.02343   0.00000  Uiso   1.00
C454   C     0.53403   0.81413   0.45334   0.00000  Uiso   1.00
C455   C     0.46597   0.85253   0.04666   0.00000  Uiso   1.00
C456   C     0.43259   0.87129   0.47675   0.00000  Uiso   1.00
C457   C     0.43260   0.87133   0.02276   0.00000  Uiso   1.00
C458   C     0.56741   0.79538   0.02325   0.00000  Uiso   1.00
C459   C     0.56889   0.79598   0.38181   0.00000  Uiso   1.00
C460   C     0.43111   0.87069   0.11818   0.00000  Uiso   1.00
C461   C     0.43100   0.87032   0.38131   0.00000  Uiso   1.00
C462   C     0.56900   0.79635   0.11869   0.00000  Uiso   1.00
C463   C     0.56740   0.79534   0.47724   0.00000  Uiso   1.00
C464   C     0.35459   0.79246   0.25602   0.00000  Uiso   1.00
C465   C     0.64541   0.87421   0.24398   0.00000  Uiso   1.00
C466   C     0.64533   0.79248   0.25605   0.00000  Uiso   1.00
C467   C     0.35467   0.87418   0.24395   0.00000  Uiso   1.00
C468   C     0.62419   0.83336   0.25003   0.00000  Uiso   1.00
H469   H     0.40611   0.88626   0.45996   0.00000  Uiso   1.00
H470   H     0.45149   0.95775   0.20224   0.00000  Uiso   1.00
H471   H     0.45149   0.70874   0.20224   0.00000  Uiso   1.00
H472   H     0.54851   0.95792   0.29776   0.00000  Uiso   1.00
H473   H     0.59389   0.78041   0.04004   0.00000  Uiso   1.00
H474   H     0.40612   0.88632   0.03936   0.00000  Uiso   1.00
H475   H     0.59388   0.78035   0.46064   0.00000  Uiso   1.00
H476   H     0.37075   0.76066   0.26092   0.00000  Uiso   1.00
H477   H     0.62925   0.90601   0.23908   0.00000  Uiso   1.00
H478   H     0.62911   0.76068   0.26098   0.00000  Uiso   1.00
H479   H     0.37089   0.90598   0.23902   0.00000  Uiso   1.00
H480   H     0.54851   0.70892   0.29776   0.00000  Uiso   1.00
N481   N     0.50000   0.95240   0.25000   0.00000  Uiso   1.00
N482   N     0.50000   0.71427   0.25000   0.00000  Uiso   1.00
N483   N     0.59665   0.78146   0.36194   0.00000  Uiso   1.00
N484   N     0.40335   0.88521   0.13806   0.00000  Uiso   1.00
N485   N     0.40317   0.88462   0.36121   0.00000  Uiso   1.00
N486   N     0.59683   0.78204   0.13879   0.00000  Uiso   1.00
O487   O     0.43892   0.87154   0.24999   0.00000  Uiso   1.00
O488   O     0.56108   0.79513   0.25000   0.00000  Uiso   1.00
O489   O     0.56108   0.87154   0.25000   0.00000  Uiso   1.00
O490   O     0.43892   0.79513   0.24999   0.00000  Uiso   1.00
O491   O     0.49999   0.87156   0.18392   0.00000  Uiso   1.00
O492   O     0.50001   0.79511   0.31607   0.00000  Uiso   1.00
O493   O     0.50001   0.87156   0.31607   0.00000  Uiso   1.00
O494   O     0.49999   0.79511   0.18392   0.00000  Uiso   1.00
Zn495  Zn    0.50000   0.88437   0.25000   0.00000  Uiso   1.00
Zn496  Zn    0.50000   0.78229   0.25000   0.00000  Uiso   1.00
C497   C     0.75329   0.83331   0.24997   0.00000  Uiso   1.00
C498   C     0.70914   0.83331   0.24997   0.00000  Uiso   1.00
C499   C     0.86030   0.69070   0.27654   0.00000  Uiso   1.00
C500   C     0.80637   0.97597   0.22346   0.00000  Uiso   1.00
C501   C     0.80637   0.69060   0.22346   0.00000  Uiso   1.00
C502   C     0.86029   0.97606   0.27654   0.00000  Uiso   1.00
C503   C     0.83330   0.83334   0.16365   0.00000  Uiso   1.00
C504   C     0.83337   0.83333   0.33635   0.00000  Uiso   1.00
C505   C     0.86728   0.81427   0.40675   0.00000  Uiso   1.00
C506   C     0.79939   0.85240   0.09325   0.00000  Uiso   1.00
C507   C     0.83335   0.83331   0.38407   0.00000  Uiso   1.00
C508   C     0.91338   0.83335   0.25003   0.00000  Uiso   1.00
C509   C     0.83332   0.83336   0.11593   0.00000  Uiso   1.00
C510   C     0.79937   0.85227   0.40650   0.00000  Uiso   1.00
C511   C     0.86730   0.81440   0.09350   0.00000  Uiso   1.00
C512   C     0.79929   0.85246   0.45309   0.00000  Uiso   1.00
C513   C     0.86737   0.81420   0.04691   0.00000  Uiso   1.00
C514   C     0.83333   0.83332   0.47657   0.00000  Uiso   1.00
C515   C     0.83333   0.83335   0.02343   0.00000  Uiso   1.00
C516   C     0.86736   0.81413   0.45334   0.00000  Uiso   1.00
C517   C     0.79931   0.85253   0.04666   0.00000  Uiso   1.00
C518   C     0.76592   0.87129   0.47675   0.00000  Uiso   1.00
C519   C     0.76593   0.87133   0.02276   0.00000  Uiso   1.00
C520   C     0.90074   0.79538   0.02325   0.00000  Uiso   1.00
C521   C     0.90222   0.79598   0.38181   0.00000  Uiso   1.00
C522   C     0.76444   0.87069   0.11818   0.00000  Uiso   1.00
C523   C     0.76433   0.87032   0.38131   0.00000  Uiso   1.00
C524   C     0.90234   0.79635   0.11869   0.00000  Uiso   1.00
C525   C     0.90073   0.79534   0.47724   0.00000  Uiso   1.00
C526   C     0.68792   0.79246   0.25602   0.00000  Uiso   1.00
C527   C     0.97874   0.87421   0.24398   0.00000  Uiso   1.00
C528   C     0.97867   0.79248   0.25605   0.00000  Uiso   1.00
C529   C     0.68800   0.87418   0.24395   0.00000  Uiso   1.00
C530   C     0.95752   0.83336   0.25003   0.00000  Uiso   1.00
H531   H     0.73945   0.88626   0.45996   0.00000  Uiso   1.00
H532   H     0.78482   0.95775   0.20224   0.00000  Uiso   1.00
H533   H     0.78482   0.70874   0.20224   0.00000  Uiso   1.00
H534   H     0.88185   0.95792   0.29776   0.00000  Uiso   1.00
H535   H     0.92722   0.78041   0.04004   0.00000  Uiso   1.00
H536   H     0.73946   0.88632   0.03936   0.00000  Uiso   1.00
H537   H     0.92721   0.78035   0.46064   0.00000  Uiso   1.00
H538   H     0.70408   0.76066   0.26092   0.00000  Uiso   1.00
H539   H     0.96259   0.90601   0.23908   0.00000  Uiso   1.00
H540   H     0.96244   0.76068   0.26098   0.00000  Uiso   1.00
H541   H     0.70422   0.90598   0.23902   0.00000  Uiso   1.00
H542   H     0.88185   0.70892   0.29776   0.00000  Uiso   1.00
N543   N     0.83333   0.95240   0.25000   0.00000  Uiso   1.00
N544   N     0.83333   0.71427   0.25000   0.00000  Uiso   1.00
N545   N     0.92998   0.78146   0.36194   0.00000  Uiso   1.00
N546   N     0.73669   0.88521   0.13806   0.00000  Uiso   1.00
N547   N     0.73650   0.88462   0.36121   0.00000  Uiso   1.00
N548   N     0.93017   0.78204   0.13879   0.00000  Uiso   1.00
O549   O     0.77226   0.87154   0.24999   0.00000  Uiso   1.00
O550   O     0.89441   0.79513   0.25000   0.00000  Uiso   1.00
O551   O     0.89441   0.87154   0.25000   0.00000  Uiso   1.00
O552   O     0.77226   0.79513   0.24999   0.00000  Uiso   1.00
O553   O     0.83333   0.87156   0.18392   0.00000  Uiso   1.00
O554   O     0.83334   0.79511   0.31607   0.00000  Uiso   1.00
O555   O     0.83334   0.87156   0.31607   0.00000  Uiso   1.00
O556   O     0.83333   0.79511   0.18392   0.00000  Uiso   1.00
Zn557  Zn    0.83333   0.88437   0.25000   0.00000  Uiso   1.00
Zn558  Zn    0.83333   0.78229   0.25000   0.00000  Uiso   1.00
C559   C     0.08663   0.16665   0.74997   0.00000  Uiso   1.00
C560   C     0.04248   0.16664   0.74997   0.00000  Uiso   1.00
C561   C     0.19363   0.02403   0.77654   0.00000  Uiso   1.00
C562   C     0.13970   0.30930   0.72346   0.00000  Uiso   1.00
C563   C     0.13971   0.02394   0.72346   0.00000  Uiso   1.00
C564   C     0.19363   0.30940   0.77654   0.00000  Uiso   1.00
C565   C     0.16663   0.16667   0.66365   0.00000  Uiso   1.00
C566   C     0.16670   0.16666   0.83635   0.00000  Uiso   1.00
C567   C     0.20061   0.14760   0.90675   0.00000  Uiso   1.00
C568   C     0.13272   0.18573   0.59325   0.00000  Uiso   1.00
C569   C     0.16668   0.16664   0.88407   0.00000  Uiso   1.00
C570   C     0.24671   0.16669   0.75003   0.00000  Uiso   1.00
C571   C     0.16665   0.16669   0.61593   0.00000  Uiso   1.00
C572   C     0.13270   0.18560   0.90650   0.00000  Uiso   1.00
C573   C     0.20063   0.14773   0.59350   0.00000  Uiso   1.00
C574   C     0.13263   0.18580   0.95309   0.00000  Uiso   1.00
C575   C     0.20071   0.14754   0.54691   0.00000  Uiso   1.00
C576   C     0.16667   0.16665   0.97657   0.00000  Uiso   1.00
C577   C     0.16667   0.16668   0.52343   0.00000  Uiso   1.00
C578   C     0.20069   0.14747   0.95334   0.00000  Uiso   1.00
C579   C     0.13264   0.18587   0.54666   0.00000  Uiso   1.00
C580   C     0.09926   0.20462   0.97675   0.00000  Uiso   1.00
C581   C     0.09927   0.20466   0.52276   0.00000  Uiso   1.00
C582   C     0.23408   0.12871   0.52325   0.00000  Uiso   1.00
C583   C     0.23556   0.12931   0.88181   0.00000  Uiso   1.00
C584   C     0.09778   0.20402   0.61818   0.00000  Uiso   1.00
C585   C     0.09767   0.20365   0.88131   0.00000  Uiso   1.00
C586   C     0.23567   0.12968   0.61869   0.00000  Uiso   1.00
C587   C     0.23407   0.12867   0.97724   0.00000  Uiso   1.00
C588   C     0.02126   0.12579   0.75602   0.00000  Uiso   1.00
C589   C     0.31208   0.20754   0.74398   0.00000  Uiso   1.00
C590   C     0.31200   0.12582   0.75605   0.00000  Uiso   1.00
C591   C     0.02134   0.20752   0.74395   0.00000  Uiso   1.00
C592   C     0.29086   0.16669   0.75003   0.00000  Uiso   1.00
H593   H     0.07278   0.21959   0.95996   0.00000  Uiso   1.00
H594   H     0.11815   0.29108   0.70224   0.00000  Uiso   1.00
H595   H     0.11815   0.04208   0.70224   0.00000  Uiso   1.00
H596   H     0.21518   0.29126   0.79776   0.00000  Uiso   1.00
H597   H     0.26055   0.11374   0.54004   0.00000  Uiso   1.00
H598   H     0.07279   0.21965   0.53936   0.00000  Uiso   1.00
H599   H     0.26055   0.11368   0.96064   0.00000  Uiso   1.00
H600   H     0.03742   0.09399   0.76092   0.00000  Uiso   1.00
H601   H     0.29592   0.23935   0.73908   0.00000  Uiso   1.00
H602   H     0.29578   0.09402   0.76098   0.00000  Uiso   1.00
H603   H     0.03756   0.23932   0.73902   0.00000  Uiso   1.00
H604   H     0.21518   0.04225   0.79776   0.00000  Uiso   1.00
N605   N     0.16667   0.28573   0.75000   0.00000  Uiso   1.00
N606   N     0.16667   0.04760   0.75000   0.00000  Uiso   1.00
N607   N     0.26331   0.11479   0.86194   0.00000  Uiso   1.00
N608   N     0.07002   0.21854   0.63806   0.00000  Uiso   1.00
N609   N     0.06983   0.21796   0.86121   0.00000  Uiso   1.00
N610   N     0.26350   0.11538   0.63879   0.00000  Uiso   1.00
O611   O     0.10559   0.20487   0.74999   0.00000  Uiso   1.00
O612   O     0.22774   0.12846   0.75000   0.00000  Uiso   1.00
O613   O     0.22774   0.20487   0.75000   0.00000  Uiso   1.00
O614   O     0.10559   0.12846   0.74999   0.00000  Uiso   1.00
O615   O     0.16666   0.20489   0.68392   0.00000  Uiso   1.00
O616   O     0.16667   0.12844   0.81607   0.00000  Uiso   1.00
O617   O     0.16667   0.20489   0.81607   0.00000  Uiso   1.00
O618   O     0.16666   0.12844   0.68392   0.00000  Uiso   1.00
Zn619  Zn    0.16667   0.21771   0.75000   0.00000  Uiso   1.00
Zn620  Zn    0.16667   0.11563   0.75000   0.00000  Uiso   1.00
C621   C     0.41996   0.16665   0.74997   0.00000  Uiso   1.00
C622   C     0.37581   0.16664   0.74997   0.00000  Uiso   1.00
C623   C     0.52696   0.02403   0.77654   0.00000  Uiso   1.00
C624   C     0.47304   0.30930   0.72346   0.00000  Uiso   1.00
C625   C     0.47304   0.02394   0.72346   0.00000  Uiso   1.00
C626   C     0.52696   0.30940   0.77654   0.00000  Uiso   1.00
C627   C     0.49997   0.16667   0.66365   0.00000  Uiso   1.00
C628   C     0.50003   0.16666   0.83635   0.00000  Uiso   1.00
C629   C     0.53394   0.14760   0.90675   0.00000  Uiso   1.00
C630   C     0.46606   0.18573   0.59325   0.00000  Uiso   1.00
C631   C     0.50001   0.16664   0.88407   0.00000  Uiso   1.00
C632   C     0.58004   0.16669   0.75003   0.00000  Uiso   1.00
C633   C     0.49999   0.16669   0.61593   0.00000  Uiso   1.00
C634   C     0.46604   0.18560   0.90650   0.00000  Uiso   1.00
C635   C     0.53396   0.14773   0.59350   0.00000  Uiso   1.00
C636   C     0.46596   0.18580   0.95309   0.00000  Uiso   1.00
C637   C     0.53404   0.14754   0.54691   0.00000  Uiso   1.00
C638   C     0.50000   0.16665   0.97657   0.00000  Uiso   1.00
C639   C     0.50000   0.16668   0.52343   0.00000  Uiso   1.00
C640   C     0.53403   0.14747   0.95334   0.00000  Uiso   1.00
C641   C     0.46597   0.18587   0.54666   0.00000  Uiso   1.00
C642   C     0.43259   0.20462   0.97675   0.00000  Uiso   1.00
C643   C     0.43260   0.20466   0.52276   0.00000  Uiso   1.00
C644   C     0.56741   0.12871   0.52325   0.00000  Uiso   1.00
C645   C     0.56889   0.12931   0.88181   0.00000  Uiso   1.00
C646   C     0.43111   0.20402   0.61818   0.00000  Uiso   1.00
C647   C     0.43100   0.20365   0.88131   0.00000  Uiso   1.00
C648   C     0.56900   0.12968   0.61869   0.00000  Uiso   1.00
C649   C     0.56740   0.12867   0.97724   0.00000  Uiso   1.00
C650   C     0.35459   0.12579   0.75602   0.00000  Uiso   1.00
C651   C     0.64541   0.20754   0.74398   0.00000  Uiso   1.00
C652   C     0.64533   0.12582   0.75605   0.00000  Uiso   1.00
C653   C     0.35467   0.20752   0.74395   0.00000  Uiso   1.00
C654   C     0.62419   0.16669   0.75003   0.00000  Uiso   1.00
H655   H     0.40611   0.21959   0.95996   0.00000  Uiso   1.00
H656   H     0.45149   0.29108   0.70224   0.00000  Uiso   1.00
H657   H     0.45149   0.04208   0.70224   0.00000  Uiso   1.00
H658   H     0.54851   0.29126   0.79776   0.00000  Uiso   1.00
H659   H     0.59389   0.11374   0.54004   0.00000  Uiso   1.00
H660   H     0.40612   0.21965   0.53936   0.00000  Uiso   1.00
H661   H     0.59388   0.11368   0.96064   0.00000  Uiso   1.00
H662   H     0.37075   0.09399   0.76092   0.00000  Uiso   1.00
H663   H     0.62925   0.23935   0.73908   0.00000  Uiso   1.00
H664   H     0.62911   0.09402   0.76098   0.00000  Uiso   1.00
H665   H     0.37089   0.23932   0.73902   0.00000  Uiso   1.00
H666   H     0.54851   0.04225   0.79776   0.00000  Uiso   1.00
N667   N     0.50000   0.28573   0.75000   0.00000  Uiso   1.00
N668   N     0.50000   0.04760   0.75000   0.00000  Uiso   1.00
N669   N     0.59665   0.11479   0.86194   0.00000  Uiso   1.00
N670   N     0.40335   0.21854   0.63806   0.00000  Uiso   1.00
N671   N     0.40317   0.21796   0.86121   0.00000  Uiso   1.00
N672   N     0.59683   0.11538   0.63879   0.00000  Uiso   1.00
O673   O     0.43892   0.20487   0.74999   0.00000  Uiso   1.00
O674   O     0.56108   0.12846   0.75000   0.00000  Uiso   1.00
O675   O     0.56108   0.20487   0.75000   0.00000  Uiso   1.00
O676   O     0.43892   0.12846   0.74999   0.00000  Uiso   1.00
O677   O     0.49999   0.20489   0.68392   0.00000  Uiso   1.00
O678   O     0.50001   0.12844   0.81607   0.00000  Uiso   1.00
O679   O     0.50001   0.20489   0.81607   0.00000  Uiso   1.00
O680   O     0.49999   0.12844   0.68392   0.00000  Uiso   1.00
Zn681  Zn    0.50000   0.21771   0.75000   0.00000  Uiso   1.00
Zn682  Zn    0.50000   0.11563   0.75000   0.00000  Uiso   1.00
C683   C     0.75329   0.16665   0.74997   0.00000  Uiso   1.00
C684   C     0.70914   0.16664   0.74997   0.00000  Uiso   1.00
C685   C     0.86030   0.02403   0.77654   0.00000  Uiso   1.00
C686   C     0.80637   0.30930   0.72346   0.00000  Uiso   1.00
C687   C     0.80637   0.02394   0.72346   0.00000  Uiso   1.00
C688   C     0.86029   0.30940   0.77654   0.00000  Uiso   1.00
C689   C     0.83330   0.16667   0.66365   0.00000  Uiso   1.00
C690   C     0.83337   0.16666   0.83635   0.00000  Uiso   1.00
C691   C     0.86728   0.14760   0.90675   0.00000  Uiso   1.00
C692   C     0.79939   0.18573   0.59325   0.00000  Uiso   1.00
C693   C     0.83335   0.16664   0.88407   0.00000  Uiso   1.00
C694   C     0.91338   0.16669   0.75003   0.00000  Uiso   1.00
C695   C     0.83332   0.16669   0.61593   0.00000  Uiso   1.00
C696   C     0.79937   0.18560   0.90650   0.00000  Uiso   1.00
C697   C     0.86730   0.14773   0.59350   0.00000  Uiso   1.00
C698   C     0.79929   0.18580   0.95309   0.00000  Uiso   1.00
C699   C     0.86737   0.14754   0.54691   0.00000  Uiso   1.00
C700   C     0.83333   0.16665   0.97657   0.00000  Uiso   1.00
C701   C     0.83333   0.16668   0.52343   0.00000  Uiso   1.00
C702   C     0.86736   0.14747   0.95334   0.00000  Uiso   1.00
C703   C     0.79931   0.18587   0.54666   0.00000  Uiso   1.00
C704   C     0.76592   0.20462   0.97675   0.00000  Uiso   1.00
C705   C     0.76593   0.20466   0.52276   0.00000  Uiso   1.00
C706   C     0.90074   0.12871   0.52325   0.00000  Uiso   1.00
C707   C     0.90222   0.12931   0.88181   0.00000  Uiso   1.00
C708   C     0.76444   0.20402   0.61818   0.00000  Uiso   1.00
C709   C     0.76433   0.20365   0.88131   0.00000  Uiso   1.00
C710   C     0.90234   0.12968   0.61869   0.00000  Uiso   1.00
C711   C     0.90073   0.12867   0.97724   0.00000  Uiso   1.00
C712   C     0.68792   0.12579   0.75602   0.00000  Uiso   1.00
C713   C     0.97874   0.20754   0.74398   0.00000  Uiso   1.00
C714   C     0.97867   0.12582   0.75605   0.00000  Uiso   1.00
C715   C     0.68800   0.20752   0.74395   0.00000  Uiso   1.00
C716   C     0.95752   0.16669   0.75003   0.00000  Uiso   1.00
H717   H     0.73945   0.21959   0.95996   0.00000  Uiso   1.00
H718   H     0.78482   0.29108   0.70224   0.00000  Uiso   1.00
H719   H     0.78482   0.04208   0.70224   0.00000  Uiso   1.00
H720   H     0.88185   0.29126   0.79776   0.00000  Uiso   1.00
H721   H     0.92722   0.11374   0.54004   0.00000  Uiso   1.00
H722   H     0.73946   0.21965   0.53936   0.00000  Uiso   1.00
H723   H     0.92721   0.11368   0.96064   0.00000  Uiso   1.00
H724   H     0.70408   0.09399   0.76092   0.00000  Uiso   1.00
H725   H     0.96259   0.23935   0.73908   0.00000  Uiso   1.00
H726   H     0.96244   0.09402   0.76098   0.00000  Uiso   1.00
H727   H     0.70422   0.23932   0.73902   0.00000  Uiso   1.00
H728   H     0.88185   0.04225   0.79776   0.00000  Uiso   1.00
N729   N     0.83333   0.28573   0.75000   0.00000  Uiso   1.00
N730   N     0.83333   0.04760   0.75000   0.00000  Uiso   1.00
N731   N     0.92998   0.11479   0.86194   0.00000  Uiso   1.00
N732   N     0.73669   0.21854   0.63806   0.00000  Uiso   1.00
N733   N     0.73650   0.21796   0.86121   0.00000  Uiso   1.00
N734   N     0.93017   0.11538   0.63879   0.00000  Uiso   1.00
O735   O     0.77226   0.20487   0.74999   0.00000  Uiso   1.00
O736   O     0.89441   0.12846   0.75000   0.00000  Uiso   1.00
O737   O     0.89441   0.20487   0.75000   0.00000  Uiso   1.00
O738   O     0.77226   0.12846   0.74999   0.00000  Uiso   1.00
O739   O     0.83333   0.20489   0.68392   0.00000  Uiso   1.00
O740   O     0.83334   0.12844   0.81607   0.00000  Uiso   1.00
O741   O     0.83334   0.20489   0.81607   0.00000  Uiso   1.00
O742   O     0.83333   0.12844   0.68392   0.00000  Uiso   1.00
Zn743  Zn    0.83333   0.21771   0.75000   0.00000  Uiso   1.00
Zn744  Zn    0.83333   0.11563   0.75000   0.00000  Uiso   1.00
C745   C     0.08663   0.49998   0.74997   0.00000  Uiso   1.00
C746   C     0.04248   0.49998   0.74997   0.00000  Uiso   1.00
C747   C     0.19363   0.35737   0.77654   0.00000  Uiso   1.00
C748   C     0.13970   0.64263   0.72346   0.00000  Uiso   1.00
C749   C     0.13971   0.35727   0.72346   0.00000  Uiso   1.00
C750   C     0.19363   0.64273   0.77654   0.00000  Uiso   1.00
C751   C     0.16663   0.50000   0.66365   0.00000  Uiso   1.00
C752   C     0.16670   0.50000   0.83635   0.00000  Uiso   1.00
C753   C     0.20061   0.48094   0.90675   0.00000  Uiso   1.00
C754   C     0.13272   0.51906   0.59325   0.00000  Uiso   1.00
C755   C     0.16668   0.49997   0.88407   0.00000  Uiso   1.00
C756   C     0.24671   0.50002   0.75003   0.00000  Uiso   1.00
C757   C     0.16665   0.50003   0.61593   0.00000  Uiso   1.00
C758   C     0.13270   0.51894   0.90650   0.00000  Uiso   1.00
C759   C     0.20063   0.48106   0.59350   0.00000  Uiso   1.00
C760   C     0.13263   0.51913   0.95309   0.00000  Uiso   1.00
C761   C     0.20071   0.48087   0.54691   0.00000  Uiso   1.00
C762   C     0.16667   0.49999   0.97657   0.00000  Uiso   1.00
C763   C     0.16667   0.50001   0.52343   0.00000  Uiso   1.00
C764   C     0.20069   0.48080   0.95334   0.00000  Uiso   1.00
C765   C     0.13264   0.51920   0.54666   0.00000  Uiso   1.00
C766   C     0.09926   0.53795   0.97675   0.00000  Uiso   1.00
C767   C     0.09927   0.53799   0.52276   0.00000  Uiso   1.00
C768   C     0.23408   0.46205   0.52325   0.00000  Uiso   1.00
C769   C     0.23556   0.46264   0.88181   0.00000  Uiso   1.00
C770   C     0.09778   0.53736   0.61818   0.00000  Uiso   1.00
C771   C     0.09767   0.53699   0.88131   0.00000  Uiso   1.00
C772   C     0.23567   0.46301   0.61869   0.00000  Uiso   1.00
C773   C     0.23407   0.46201   0.97724   0.00000  Uiso   1.00
C774   C     0.02126   0.45913   0.75602   0.00000  Uiso   1.00
C775   C     0.31208   0.54087   0.74398   0.00000  Uiso   1.00
C776   C     0.31200   0.45915   0.75605   0.00000  Uiso   1.00
C777   C     0.02134   0.54085   0.74395   0.00000  Uiso   1.00
C778   C     0.29086   0.50002   0.75003   0.00000  Uiso   1.00
H779   H     0.07278   0.55292   0.95996   0.00000  Uiso   1.00
H780   H     0.11815   0.62442   0.70224   0.00000  Uiso   1.00
H781   H     0.11815   0.37541   0.70224   0.00000  Uiso   1.00
H782   H     0.21518   0.62459   0.79776   0.00000  Uiso   1.00
H783   H     0.26055   0.44708   0.54004   0.00000  Uiso   1.00
H784   H     0.07279   0.55299   0.53936   0.00000  Uiso   1.00
H785   H     0.26055   0.44701   0.96064   0.00000  Uiso   1.00
H786   H     0.03742   0.42732   0.76092   0.00000  Uiso   1.00
H787   H     0.29592   0.57268   0.73908   0.00000  Uiso   1.00
H788   H     0.29578   0.42735   0.76098   0.00000  Uiso   1.00
H789   H     0.03756   0.57265   0.73902   0.00000  Uiso   1.00
H790   H     0.21518   0.37558   0.79776   0.00000  Uiso   1.00
N791   N     0.16667   0.61907   0.75000   0.00000  Uiso   1.00
N792   N     0.16667   0.38093   0.75000   0.00000  Uiso   1.00
N793   N     0.26331   0.44812   0.86194   0.00000  Uiso   1.00
N794   N     0.07002   0.55188   0.63806   0.00000  Uiso   1.00
N795   N     0.06983   0.55129   0.86121   0.00000  Uiso   1.00
N796   N     0.26350   0.44871   0.63879   0.00000  Uiso   1.00
O797   O     0.10559   0.53821   0.74999   0.00000  Uiso   1.00
O798   O     0.22774   0.46179   0.75000   0.00000  Uiso   1.00
O799   O     0.22774   0.53821   0.75000   0.00000  Uiso   1.00
O800   O     0.10559   0.46179   0.74999   0.00000  Uiso   1.00
O801   O     0.16666   0.53823   0.68392   0.00000  Uiso   1.00
O802   O     0.16667   0.46177   0.81607   0.00000  Uiso   1.00
O803   O     0.16667   0.53823   0.81607   0.00000  Uiso   1.00
O804   O     0.16666   0.46177   0.68392   0.00000  Uiso   1.00
Zn805  Zn    0.16667   0.55104   0.75000   0.00000  Uiso   1.00
Zn806  Zn    0.16667   0.44896   0.75000   0.00000  Uiso   1.00
C807   C     0.41996   0.49998   0.74997   0.00000  Uiso   1.00
C808   C     0.37581   0.49998   0.74997   0.00000  Uiso   1.00
C809   C     0.52696   0.35737   0.77654   0.00000  Uiso   1.00
C810   C     0.47304   0.64263   0.72346   0.00000  Uiso   1.00
C811   C     0.47304   0.35727   0.72346   0.00000  Uiso   1.00
C812   C     0.52696   0.64273   0.77654   0.00000  Uiso   1.00
C813   C     0.49997   0.50000   0.66365   0.00000  Uiso   1.00
C814   C     0.50003   0.50000   0.83635   0.00000  Uiso   1.00
C815   C     0.53394   0.48094   0.90675   0.00000  Uiso   1.00
C816   C     0.46606   0.51906   0.59325   0.00000  Uiso   1.00
C817   C     0.50001   0.49997   0.88407   0.00000  Uiso   1.00
C818   C     0.58004   0.50002   0.75003   0.00000  Uiso   1.00
C819   C     0.49999   0.50003   0.61593   0.00000  Uiso   1.00
C820   C     0.46604   0.51894   0.90650   0.00000  Uiso   1.00
C821   C     0.53396   0.48106   0.59350   0.00000  Uiso   1.00
C822   C     0.46596   0.51913   0.95309   0.00000  Uiso   1.00
C823   C     0.53404   0.48087   0.54691   0.00000  Uiso   1.00
C824   C     0.50000   0.49999   0.97657   0.00000  Uiso   1.00
C825   C     0.50000   0.50001   0.52343   0.00000  Uiso   1.00
C826   C     0.53403   0.48080   0.95334   0.00000  Uiso   1.00
C827   C     0.46597   0.51920   0.54666   0.00000  Uiso   1.00
C828   C     0.43259   0.53795   0.97675   0.00000  Uiso   1.00
C829   C     0.43260   0.53799   0.52276   0.00000  Uiso   1.00
C830   C     0.56741   0.46205   0.52325   0.00000  Uiso   1.00
C831   C     0.56889   0.46264   0.88181   0.00000  Uiso   1.00
C832   C     0.43111   0.53736   0.61818   0.00000  Uiso   1.00
C833   C     0.43100   0.53699   0.88131   0.00000  Uiso   1.00
C834   C     0.56900   0.46301   0.61869   0.00000  Uiso   1.00
C835   C     0.56740   0.46201   0.97724   0.00000  Uiso   1.00
C836   C     0.35459   0.45913   0.75602   0.00000  Uiso   1.00
C837   C     0.64541   0.54087   0.74398   0.00000  Uiso   1.00
C838   C     0.64533   0.45915   0.75605   0.00000  Uiso   1.00
C839   C     0.35467   0.54085   0.74395   0.00000  Uiso   1.00
C840   C     0.62419   0.50002   0.75003   0.00000  Uiso   1.00
H841   H     0.40611   0.55292   0.95996   0.00000  Uiso   1.00
H842   H     0.45149   0.62442   0.70224   0.00000  Uiso   1.00
H843   H     0.45149   0.37541   0.70224   0.00000  Uiso   1.00
H844   H     0.54851   0.62459   0.79776   0.00000  Uiso   1.00
H845   H     0.59389   0.44708   0.54004   0.00000  Uiso   1.00
H846   H     0.40612   0.55299   0.53936   0.00000  Uiso   1.00
H847   H     0.59388   0.44701   0.96064   0.00000  Uiso   1.00
H848   H     0.37075   0.42732   0.76092   0.00000  Uiso   1.00
H849   H     0.62925   0.57268   0.73908   0.00000  Uiso   1.00
H850   H     0.62911   0.42735   0.76098   0.00000  Uiso   1.00
H851   H     0.37089   0.57265   0.73902   0.00000  Uiso   1.00
H852   H     0.54851   0.37558   0.79776   0.00000  Uiso   1.00
N853   N     0.50000   0.61907   0.75000   0.00000  Uiso   1.00
N854   N     0.50000   0.38093   0.75000   0.00000  Uiso   1.00
N855   N     0.59665   0.44812   0.86194   0.00000  Uiso   1.00
N856   N     0.40335   0.55188   0.63806   0.00000  Uiso   1.00
N857   N     0.40317   0.55129   0.86121   0.00000  Uiso   1.00
N858   N     0.59683   0.44871   0.63879   0.00000  Uiso   1.00
O859   O     0.43892   0.53821   0.74999   0.00000  Uiso   1.00
O860   O     0.56108   0.46179   0.75000   0.00000  Uiso   1.00
O861   O     0.56108   0.53821   0.75000   0.00000  Uiso   1.00
O862   O     0.43892   0.46179   0.74999   0.00000  Uiso   1.00
O863   O     0.49999   0.53823   0.68392   0.00000  Uiso   1.00
O864   O     0.50001   0.46177   0.81607   0.00000  Uiso   1.00
O865   O     0.50001   0.53823   0.81607   0.00000  Uiso   1.00
O866   O     0.49999   0.46177   0.68392   0.00000  Uiso   1.00
Zn867  Zn    0.50000   0.55104   0.75000   0.00000  Uiso   1.00
Zn868  Zn    0.50000   0.44896   0.75000   0.00000  Uiso   1.00
C869   C     0.75329   0.49998   0.74997   0.00000  Uiso   1.00
C870   C     0.70914   0.49998   0.74997   0.00000  Uiso   1.00
C871   C     0.86030   0.35737   0.77654   0.00000  Uiso   1.00
C872   C     0.80637   0.64263   0.72346   0.00000  Uiso   1.00
C873   C     0.80637   0.35727   0.72346   0.00000  Uiso   1.00
C874   C     0.86029   0.64273   0.77654   0.00000  Uiso   1.00
C875   C     0.83330   0.50000   0.66365   0.00000  Uiso   1.00
C876   C     0.83337   0.50000   0.83635   0.00000  Uiso   1.00
C877   C     0.86728   0.48094   0.90675   0.00000  Uiso   1.00
C878   C     0.79939   0.51906   0.59325   0.00000  Uiso   1.00
C879   C     0.83335   0.49997   0.88407   0.00000  Uiso   1.00
C880   C     0.91338   0.50002   0.75003   0.00000  Uiso   1.00
C881   C     0.83332   0.50003   0.61593   0.00000  Uiso   1.00
C882   C     0.79937   0.51894   0.90650   0.00000  Uiso   1.00
C883   C     0.86730   0.48106   0.59350   0.00000  Uiso   1.00
C884   C     0.79929   0.51913   0.95309   0.00000  Uiso   1.00
C885   C     0.86737   0.48087   0.54691   0.00000  Uiso   1.00
C886   C     0.83333   0.49999   0.97657   0.00000  Uiso   1.00
C887   C     0.83333   0.50001   0.52343   0.00000  Uiso   1.00
C888   C     0.86736   0.48080   0.95334   0.00000  Uiso   1.00
C889   C     0.79931   0.51920   0.54666   0.00000  Uiso   1.00
C890   C     0.76592   0.53795   0.97675   0.00000  Uiso   1.00
C891   C     0.76593   0.53799   0.52276   0.00000  Uiso   1.00
C892   C     0.90074   0.46205   0.52325   0.00000  Uiso   1.00
C893   C     0.90222   0.46264   0.88181   0.00000  Uiso   1.00
C894   C     0.76444   0.53736   0.61818   0.00000  Uiso   1.00
C895   C     0.76433   0.53699   0.88131   0.00000  Uiso   1.00
C896   C     0.90234   0.46301   0.61869   0.00000  Uiso   1.00
C897   C     0.90073   0.46201   0.97724   0.00000  Uiso   1.00
C898   C     0.68792   0.45913   0.75602   0.00000  Uiso   1.00
C899   C     0.97874   0.54087   0.74398   0.00000  Uiso   1.00
C900   C     0.97867   0.45915   0.75605   0.00000  Uiso   1.00
C901   C     0.68800   0.54085   0.74395   0.00000  Uiso   1.00
C902   C     0.95752   0.50002   0.75003   0.00000  Uiso   1.00
H903   H     0.73945   0.55292   0.95996   0.00000  Uiso   1.00
H904   H     0.78482   0.62442   0.70224   0.00000  Uiso   1.00
H905   H     0.78482   0.37541   0.70224   0.00000  Uiso   1.00
H906   H     0.88185   0.62459   0.79776   0.00000  Uiso   1.00
H907   H     0.92722   0.44708   0.54004   0.00000  Uiso   1.00
H908   H     0.73946   0.55299   0.53936   0.00000  Uiso   1.00
H909   H     0.92721   0.44701   0.96064   0.00000  Uiso   1.00
H910   H     0.70408   0.42732   0.76092   0.00000  Uiso   1.00
H911   H     0.96259   0.57268   0.73908   0.00000  Uiso   1.00
H912   H     0.96244   0.42735   0.76098   0.00000  Uiso   1.00
H913   H     0.70422   0.57265   0.73902   0.00000  Uiso   1.00
H914   H     0.88185   0.37558   0.79776   0.00000  Uiso   1.00
N915   N     0.83333   0.61907   0.75000   0.00000  Uiso   1.00
N916   N     0.83333   0.38093   0.75000   0.00000  Uiso   1.00
N917   N     0.92998   0.44812   0.86194   0.00000  Uiso   1.00
N918   N     0.73669   0.55188   0.63806   0.00000  Uiso   1.00
N919   N     0.73650   0.55129   0.86121   0.00000  Uiso   1.00
N920   N     0.93017   0.44871   0.63879   0.00000  Uiso   1.00
O921   O     0.77226   0.53821   0.74999   0.00000  Uiso   1.00
O922   O     0.89441   0.46179   0.75000   0.00000  Uiso   1.00
O923   O     0.89441   0.53821   0.75000   0.00000  Uiso   1.00
O924   O     0.77226   0.46179   0.74999   0.00000  Uiso   1.00
O925   O     0.83333   0.53823   0.68392   0.00000  Uiso   1.00
O926   O     0.83334   0.46177   0.81607   0.00000  Uiso   1.00
O927   O     0.83334   0.53823   0.81607   0.00000  Uiso   1.00
O928   O     0.83333   0.46177   0.68392   0.00000  Uiso   1.00
Zn929  Zn    0.83333   0.55104   0.75000   0.00000  Uiso   1.00
Zn930  Zn    0.83333   0.44896   0.75000   0.00000  Uiso   1.00
C931   C     0.08663   0.83331   0.74997   0.00000  Uiso   1.00
C932   C     0.04248   0.83331   0.74997   0.00000  Uiso   1.00
C933   C     0.19363   0.69070   0.77654   0.00000  Uiso   1.00
C934   C     0.13970   0.97597   0.72346   0.00000  Uiso   1.00
C935   C     0.13971   0.69060   0.72346   0.00000  Uiso   1.00
C936   C     0.19363   0.97606   0.77654   0.00000  Uiso   1.00
C937   C     0.16663   0.83334   0.66365   0.00000  Uiso   1.00
C938   C     0.16670   0.83333   0.83635   0.00000  Uiso   1.00
C939   C     0.20061   0.81427   0.90675   0.00000  Uiso   1.00
C940   C     0.13272   0.85240   0.59325   0.00000  Uiso   1.00
C941   C     0.16668   0.83331   0.88407   0.00000  Uiso   1.00
C942   C     0.24671   0.83335   0.75003   0.00000  Uiso   1.00
C943   C     0.16665   0.83336   0.61593   0.00000  Uiso   1.00
C944   C     0.13270   0.85227   0.90650   0.00000  Uiso   1.00
C945   C     0.20063   0.81440   0.59350   0.00000  Uiso   1.00
C946   C     0.13263   0.85246   0.95309   0.00000  Uiso   1.00
C947   C     0.20071   0.81420   0.54691   0.00000  Uiso   1.00
C948   C     0.16667   0.83332   0.97657   0.00000  Uiso   1.00
C949   C     0.16667   0.83335   0.52343   0.00000  Uiso   1.00
C950   C     0.20069   0.81413   0.95334   0.00000  Uiso   1.00
C951   C     0.13264   0.85253   0.54666   0.00000  Uiso   1.00
C952   C     0.09926   0.87129   0.97675   0.00000  Uiso   1.00
C953   C     0.09927   0.87133   0.52276   0.00000  Uiso   1.00
C954   C     0.23408   0.79538   0.52325   0.00000  Uiso   1.00
C955   C     0.23556   0.79598   0.88181   0.00000  Uiso   1.00
C956   C     0.09778   0.87069   0.61818   0.00000  Uiso   1.00
C957   C     0.09767   0.87032   0.88131   0.00000  Uiso   1.00
C958   C     0.23567   0.79635   0.61869   0.00000  Uiso   1.00
C959   C     0.23407   0.79534   0.97724   0.00000  Uiso   1.00
C960   C     0.02126   0.79246   0.75602   0.00000  Uiso   1.00
C961   C     0.31208   0.87421   0.74398   0.00000  Uiso   1.00
C962   C     0.31200   0.79248   0.75605   0.00000  Uiso   1.00
C963   C     0.02134   0.87418   0.74395   0.00000  Uiso   1.00
C964   C     0.29086   0.83336   0.75003   0.00000  Uiso   1.00
H965   H     0.07278   0.88626   0.95996   0.00000  Uiso   1.00
H966   H     0.11815   0.95775   0.70224   0.00000  Uiso   1.00
H967   H     0.11815   0.70874   0.70224   0.00000  Uiso   1.00
H968   H     0.21518   0.95792   0.79776   0.00000  Uiso   1.00
H969   H     0.26055   0.78041   0.54004   0.00000  Uiso   1.00
H970   H     0.07279   0.88632   0.53936   0.00000  Uiso   1.00
H971   H     0.26055   0.78035   0.96064   0.00000  Uiso   1.00
H972   H     0.03742   0.76066   0.76092   0.00000  Uiso   1.00
H973   H     0.29592   0.90601   0.73908   0.00000  Uiso   1.00
H974   H     0.29578   0.76068   0.76098   0.00000  Uiso   1.00
H975   H     0.03756   0.90598   0.73902   0.00000  Uiso   1.00
H976   H     0.21518   0.70892   0.79776   0.00000  Uiso   1.00
N977   N     0.16667   0.95240   0.75000   0.00000  Uiso   1.00
N978   N     0.16667   0.71427   0.75000   0.00000  Uiso   1.00
N979   N     0.26331   0.78146   0.86194   0.00000  Uiso   1.00
N980   N     0.07002   0.88521   0.63806   0.00000  Uiso   1.00
N981   N     0.06983   0.88462   0.86121   0.00000  Uiso   1.00
N982   N     0.26350   0.78204   0.63879   0.00000  Uiso   1.00
O983   O     0.10559   0.87154   0.74999   0.00000  Uiso   1.00
O984   O     0.22774   0.79513   0.75000   0.00000  Uiso   1.00
O985   O     0.22774   0.87154   0.75000   0.00000  Uiso   1.00
O986   O     0.10559   0.79513   0.74999   0.00000  Uiso   1.00
O987   O     0.16666   0.87156   0.68392   0.00000  Uiso   1.00
O988   O     0.16667   0.79511   0.81607   0.00000  Uiso   1.00
O989   O     0.16667   0.87156   0.81607   0.00000  Uiso   1.00
O990   O     0.16666   0.79511   0.68392   0.00000  Uiso   1.00
Zn991  Zn    0.16667   0.88437   0.75000   0.00000  Uiso   1.00
Zn992  Zn    0.16667   0.78229   0.75000   0.00000  Uiso   1.00
C993   C     0.41996   0.83331   0.74997   0.00000  Uiso   1.00
C994   C     0.37581   0.83331   0.74997   0.00000  Uiso   1.00
C995   C     0.52696   0.69070   0.77654   0.00000  Uiso   1.00
C996   C     0.47304   0.97597   0.72346   0.00000  Uiso   1.00
C997   C     0.47304   0.69060   0.72346   0.00000  Uiso   1.00
C998   C     0.52696   0.97606   0.77654   0.00000  Uiso   1.00
C999   C     0.49997   0.83334   0.66365   0.00000  Uiso   1.00
C1000  C     0.50003   0.83333   0.83635   0.00000  Uiso   1.00
C1001  C     0.53394   0.81427   0.90675   0.00000  Uiso   1.00
C1002  C     0.46606   0.85240   0.59325   0.00000  Uiso   1.00
C1003  C     0.50001   0.83331   0.88407   0.00000  Uiso   1.00
C1004  C     0.58004   0.83335   0.75003   0.00000  Uiso   1.00
C1005  C     0.49999   0.83336   0.61593   0.00000  Uiso   1.00
C1006  C     0.46604   0.85227   0.90650   0.00000  Uiso   1.00
C1007  C     0.53396   0.81440   0.59350   0.00000  Uiso   1.00
C1008  C     0.46596   0.85246   0.95309   0.00000  Uiso   1.00
C1009  C     0.53404   0.81420   0.54691   0.00000  Uiso   1.00
C1010  C     0.50000   0.83332   0.97657   0.00000  Uiso   1.00
C1011  C     0.50000   0.83335   0.52343   0.00000  Uiso   1.00
C1012  C     0.53403   0.81413   0.95334   0.00000  Uiso   1.00
C1013  C     0.46597   0.85253   0.54666   0.00000  Uiso   1.00
C1014  C     0.43259   0.87129   0.97675   0.00000  Uiso   1.00
C1015  C     0.43260   0.87133   0.52276   0.00000  Uiso   1.00
C1016  C     0.56741   0.79538   0.52325   0.00000  Uiso   1.00
C1017  C     0.56889   0.79598   0.88181   0.00000  Uiso   1.00
C1018  C     0.43111   0.87069   0.61818   0.00000  Uiso   1.00
C1019  C     0.43100   0.87032   0.88131   0.00000  Uiso   1.00
C1020  C     0.56900   0.79635   0.61869   0.00000  Uiso   1.00
C1021  C     0.56740   0.79534   0.97724   0.00000  Uiso   1.00
C1022  C     0.35459   0.79246   0.75602   0.00000  Uiso   1.00
C1023  C     0.64541   0.87421   0.74398   0.00000  Uiso   1.00
C1024  C     0.64533   0.79248   0.75605   0.00000  Uiso   1.00
C1025  C     0.35467   0.87418   0.74395   0.00000  Uiso   1.00
C1026  C     0.62419   0.83336   0.75003   0.00000  Uiso   1.00
H1027  H     0.40611   0.88626   0.95996   0.00000  Uiso   1.00
H1028  H     0.45149   0.95775   0.70224   0.00000  Uiso   1.00
H1029  H     0.45149   0.70874   0.70224   0.00000  Uiso   1.00
H1030  H     0.54851   0.95792   0.79776   0.00000  Uiso   1.00
H1031  H     0.59389   0.78041   0.54004   0.00000  Uiso   1.00
H1032  H     0.40612   0.88632   0.53936   0.00000  Uiso   1.00
H1033  H     0.59388   0.78035   0.96064   0.00000  Uiso   1.00
H1034  H     0.37075   0.76066   0.76092   0.00000  Uiso   1.00
H1035  H     0.62925   0.90601   0.73908   0.00000  Uiso   1.00
H1036  H     0.62911   0.76068   0.76098   0.00000  Uiso   1.00
H1037  H     0.37089   0.90598   0.73902   0.00000  Uiso   1.00
H1038  H     0.54851   0.70892   0.79776   0.00000  Uiso   1.00
N1039  N     0.50000   0.95240   0.75000   0.00000  Uiso   1.00
N1040  N     0.50000   0.71427   0.75000   0.00000  Uiso   1.00
N1041  N     0.59665   0.78146   0.86194   0.00000  Uiso   1.00
N1042  N     0.40335   0.88521   0.63806   0.00000  Uiso   1.00
N1043  N     0.40317   0.88462   0.86121   0.00000  Uiso   1.00
N1044  N     0.59683   0.78204   0.63879   0.00000  Uiso   1.00
O1045  O     0.43892   0.87154   0.74999   0.00000  Uiso   1.00
O1046  O     0.56108   0.79513   0.75000   0.00000  Uiso   1.00
O1047  O     0.56108   0.87154   0.75000   0.00000  Uiso   1.00
O1048  O     0.43892   0.79513   0.74999   0.00000  Uiso   1.00
O1049  O     0.49999   0.87156   0.68392   0.00000  Uiso   1.00
O1050  O     0.50001   0.79511   0.81607   0.00000  Uiso   1.00
O1051  O     0.50001   0.87156   0.81607   0.00000  Uiso   1.00
O1052  O     0.49999   0.79511   0.68392   0.00000  Uiso   1.00
Zn1053 Zn    0.50000   0.88437   0.75000   0.00000  Uiso   1.00
Zn1054 Zn    0.50000   0.78229   0.75000   0.00000  Uiso   1.00
C1055  C     0.75329   0.83331   0.74997   0.00000  Uiso   1.00
C1056  C     0.70914   0.83331   0.74997   0.00000  Uiso   1.00
C1057  C     0.86030   0.69070   0.77654   0.00000  Uiso   1.00
C1058  C     0.80637   0.97597   0.72346   0.00000  Uiso   1.00
C1059  C     0.80637   0.69060   0.72346   0.00000  Uiso   1.00
C1060  C     0.86029   0.97606   0.77654   0.00000  Uiso   1.00
C1061  C     0.83330   0.83334   0.66365   0.00000  Uiso   1.00
C1062  C     0.83337   0.83333   0.83635   0.00000  Uiso   1.00
C1063  C     0.86728   0.81427   0.90675   0.00000  Uiso   1.00
C1064  C     0.79939   0.85240   0.59325   0.00000  Uiso   1.00
C1065  C     0.83335   0.83331   0.88407   0.00000  Uiso   1.00
C1066  C     0.91338   0.83335   0.75003   0.00000  Uiso   1.00
C1067  C     0.83332   0.83336   0.61593   0.00000  Uiso   1.00
C1068  C     0.79937   0.85227   0.90650   0.00000  Uiso   1.00
C1069  C     0.86730   0.81440   0.59350   0.00000  Uiso   1.00
C1070  C     0.79929   0.85246   0.95309   0.00000  Uiso   1.00
C1071  C     0.86737   0.81420   0.54691   0.00000  Uiso   1.00
C1072  C     0.83333   0.83332   0.97657   0.00000  Uiso   1.00
C1073  C     0.83333   0.83335   0.52343   0.00000  Uiso   1.00
C1074  C     0.86736   0.81413   0.95334   0.00000  Uiso   1.00
C1075  C     0.79931   0.85253   0.54666   0.00000  Uiso   1.00
C1076  C     0.76592   0.87129   0.97675   0.00000  Uiso   1.00
C1077  C     0.76593   0.87133   0.52276   0.00000  Uiso   1.00
C1078  C     0.90074   0.79538   0.52325   0.00000  Uiso   1.00
C1079  C     0.90222   0.79598   0.88181   0.00000  Uiso   1.00
C1080  C     0.76444   0.87069   0.61818   0.00000  Uiso   1.00
C1081  C     0.76433   0.87032   0.88131   0.00000  Uiso   1.00
C1082  C     0.90234   0.79635   0.61869   0.00000  Uiso   1.00
C1083  C     0.90073   0.79534   0.97724   0.00000  Uiso   1.00
C1084  C     0.68792   0.79246   0.75602   0.00000  Uiso   1.00
C1085  C     0.97874   0.87421   0.74398   0.00000  Uiso   1.00
C1086  C     0.97867   0.79248   0.75605   0.00000  Uiso   1.00
C1087  C     0.68800   0.87418   0.74395   0.00000  Uiso   1.00
C1088  C     0.95752   0.83336   0.75003   0.00000  Uiso   1.00
H1089  H     0.73945   0.88626   0.95996   0.00000  Uiso   1.00
H1090  H     0.78482   0.95775   0.70224   0.00000  Uiso   1.00
H1091  H     0.78482   0.70874   0.70224   0.00000  Uiso   1.00
H1092  H     0.88185   0.95792   0.79776   0.00000  Uiso   1.00
H1093  H     0.92722   0.78041   0.54004   0.00000  Uiso   1.00
H1094  H     0.73946   0.88632   0.53936   0.00000  Uiso   1.00
H1095  H     0.92721   0.78035   0.96064   0.00000  Uiso   1.00
H1096  H     0.70408   0.76066   0.76092   0.00000  Uiso   1.00
H1097  H     0.96259   0.90601   0.73908   0.00000  Uiso   1.00
H1098  H     0.96244   0.76068   0.76098   0.00000  Uiso   1.00
H1099  H     0.70422   0.90598   0.73902   0.00000  Uiso   1.00
H1100  H     0.88185   0.70892   0.79776   0.00000  Uiso   1.00
N1101  N     0.83333   0.95240   0.75000   0.00000  Uiso   1.00
N1102  N     0.83333   0.71427   0.75000   0.00000  Uiso   1.00
N1103  N     0.92998   0.78146   0.86194   0.00000  Uiso   1.00
N1104  N     0.73669   0.88521   0.63806   0.00000  Uiso   1.00
N1105  N     0.73650   0.88462   0.86121   0.00000  Uiso   1.00
N1106  N     0.93017   0.78204   0.63879   0.00000  Uiso   1.00
O1107  O     0.77226   0.87154   0.74999   0.00000  Uiso   1.00
O1108  O     0.89441   0.79513   0.75000   0.00000  Uiso   1.00
O1109  O     0.89441   0.87154   0.75000   0.00000  Uiso   1.00
O1110  O     0.77226   0.79513   0.74999   0.00000  Uiso   1.00
O1111  O     0.83333   0.87156   0.68392   0.00000  Uiso   1.00
O1112  O     0.83334   0.79511   0.81607   0.00000  Uiso   1.00
O1113  O     0.83334   0.87156   0.81607   0.00000  Uiso   1.00
O1114  O     0.83333   0.79511   0.68392   0.00000  Uiso   1.00
Zn1115 Zn    0.83333   0.88437   0.75000   0.00000  Uiso   1.00
Zn1116 Zn    0.83333   0.78229   0.75000   0.00000  Uiso   1.00
loop_
_geom_bond_atom_site_label_1
_geom_bond_atom_site_label_2
_geom_bond_distance
_geom_bond_site_symmetry_2
_ccdc_geom_bond_type
C1     O56     1.283   .     A
C1     C2      1.419   .     S
C1     O53     1.282   .     A
C2     C30     1.397   .     A
C2     C33     1.397   .     A
C3     N48     1.366   .     A
C3     H46     1.082   .     S
C3     C378    1.416   1_545 S
C4     N47     1.366   .     A
C4     H36     1.082   .     S
C4     C191    1.416   .     S
C5     H37     1.082   .     S
C5     N48     1.366   .     A
C5     C376    1.416   1_545 S
C6     H38     1.082   .     S
C6     N47     1.366   .     A
C6     C189    1.416   .     S
C7     O60     1.282   .     A
C7     C13     1.431   .     S
C7     O57     1.282   .     A
C8     O58     1.282   .     A
C8     O59     1.282   .     A
C8     C11     1.431   .     S
C9     C11     1.402   .     A
C9     C20     1.397   .     A
C9     C25     1.456   .     S
C10    C26     1.456   .     S
C10    C21     1.397   .     A
C10    C13     1.402   .     A
C11    C14     1.402   .     A
C12    C34     1.419   .     S
C12    O55     1.283   .     A
C12    O54     1.282   .     A
C13    C15     1.402   .     A
C14    C27     1.456   .     S
C14    C16     1.397   .     A
C15    C28     1.456   .     S
C15    C17     1.397   .     A
C16    C18     1.418   .     A
C16    C22     1.403   .     A
C17    C19     1.418   .     A
C17    C24     1.403   .     A
C18    C20     1.418   .     A
C18    C577    1.405   .     S
C19    C21     1.418   .     A
C19    C576    1.405   1_554 S
C20    C29     1.403   .     A
C21    C23     1.403   .     A
C22    H35     1.083   .     S
C22    C581    1.380   .     S
C23    H40     1.083   .     S
C23    C580    1.380   1_554 S
C24    H39     1.083   .     S
C24    C587    1.380   1_554 S
C25    N49     1.157   .     T
C26    N50     1.157   .     T
C27    N51     1.158   .     T
C28    N52     1.158   .     T
C29    H41     1.083   .     S
C29    C582    1.380   .     S
C30    H42     1.084   .     S
C30    C156    1.369   1_455 S
C31    C34     1.397   .     A
C31    H43     1.084   .     S
C31    C95     1.369   .     S
C32    H44     1.084   .     S
C32    C34     1.397   .     A
C32    C92     1.369   .     S
C33    H45     1.084   .     S
C33    C155    1.369   1_455 S
N47    Zn61    2.008   .     S
N48    Zn62    2.008   .     S
O53    Zn61    1.999   .     S
O54    Zn62    1.999   .     S
O55    Zn61    2.000   .     S
O56    Zn62    2.000   .     S
O57    Zn61    2.017   .     S
O58    Zn62    2.017   .     S
O59    Zn61    2.018   .     S
O60    Zn62    2.018   .     S
C63    O118    1.283   .     A
C63    C64     1.419   .     S
C63    O115    1.282   .     A
C64    C92     1.397   .     A
C64    C95     1.397   .     A
C65    N110    1.366   .     A
C65    H108    1.082   .     S
C65    C440    1.416   1_545 S
C66    N109    1.366   .     A
C66    H98     1.082   .     S
C66    C253    1.416   .     S
C67    H99     1.082   .     S
C67    N110    1.366   .     A
C67    C438    1.416   1_545 S
C68    H100    1.082   .     S
C68    N109    1.366   .     A
C68    C251    1.416   .     S
C69    O122    1.282   .     A
C69    C75     1.431   .     S
C69    O119    1.282   .     A
C70    O120    1.282   .     A
C70    O121    1.282   .     A
C70    C73     1.431   .     S
C71    C73     1.402   .     A
C71    C82     1.397   .     A
C71    C87     1.456   .     S
C72    C88     1.456   .     S
C72    C83     1.397   .     A
C72    C75     1.402   .     A
C73    C76     1.402   .     A
C74    C96     1.419   .     S
C74    O117    1.283   .     A
C74    O116    1.282   .     A
C75    C77     1.402   .     A
C76    C89     1.456   .     S
C76    C78     1.397   .     A
C77    C90     1.456   .     S
C77    C79     1.397   .     A
C78    C80     1.418   .     A
C78    C84     1.403   .     A
C79    C81     1.418   .     A
C79    C86     1.403   .     A
C80    C82     1.418   .     A
C80    C639    1.405   .     S
C81    C83     1.418   .     A
C81    C638    1.405   1_554 S
C82    C91     1.403   .     A
C83    C85     1.403   .     A
C84    H97     1.083   .     S
C84    C643    1.380   .     S
C85    H102    1.083   .     S
C85    C642    1.380   1_554 S
C86    H101    1.083   .     S
C86    C649    1.380   1_554 S
C87    N111    1.157   .     T
C88    N112    1.157   .     T
C89    N113    1.158   .     T
C90    N114    1.158   .     T
C91    H103    1.083   .     S
C91    C644    1.380   .     S
C92    H104    1.084   .     S
C93    C96     1.397   .     A
C93    H105    1.084   .     S
C93    C157    1.369   .     S
C94    H106    1.084   .     S
C94    C96     1.397   .     A
C94    C154    1.369   .     S
C95    H107    1.084   .     S
N109   Zn123   2.008   .     S
N110   Zn124   2.008   .     S
O115   Zn123   1.999   .     S
O116   Zn124   1.999   .     S
O117   Zn123   2.000   .     S
O118   Zn124   2.000   .     S
O119   Zn123   2.017   .     S
O120   Zn124   2.017   .     S
O121   Zn123   2.018   .     S
O122   Zn124   2.018   .     S
C125   O180    1.283   .     A
C125   C126    1.419   .     S
C125   O177    1.282   .     A
C126   C154    1.397   .     A
C126   C157    1.397   .     A
C127   N172    1.366   .     A
C127   H170    1.082   .     S
C127   C502    1.416   1_545 S
C128   N171    1.366   .     A
C128   H160    1.082   .     S
C128   C315    1.416   .     S
C129   H161    1.082   .     S
C129   N172    1.366   .     A
C129   C500    1.416   1_545 S
C130   H162    1.082   .     S
C130   N171    1.366   .     A
C130   C313    1.416   .     S
C131   O184    1.282   .     A
C131   C137    1.431   .     S
C131   O181    1.282   .     A
C132   O182    1.282   .     A
C132   O183    1.282   .     A
C132   C135    1.431   .     S
C133   C135    1.402   .     A
C133   C144    1.397   .     A
C133   C149    1.456   .     S
C134   C150    1.456   .     S
C134   C145    1.397   .     A
C134   C137    1.402   .     A
C135   C138    1.402   .     A
C136   C158    1.419   .     S
C136   O179    1.283   .     A
C136   O178    1.282   .     A
C137   C139    1.402   .     A
C138   C151    1.456   .     S
C138   C140    1.397   .     A
C139   C152    1.456   .     S
C139   C141    1.397   .     A
C140   C142    1.418   .     A
C140   C146    1.403   .     A
C141   C143    1.418   .     A
C141   C148    1.403   .     A
C142   C144    1.418   .     A
C142   C701    1.405   .     S
C143   C145    1.418   .     A
C143   C700    1.405   1_554 S
C144   C153    1.403   .     A
C145   C147    1.403   .     A
C146   H159    1.083   .     S
C146   C705    1.380   .     S
C147   H164    1.083   .     S
C147   C704    1.380   1_554 S
C148   H163    1.083   .     S
C148   C711    1.380   1_554 S
C149   N173    1.157   .     T
C150   N174    1.157   .     T
C151   N175    1.158   .     T
C152   N176    1.158   .     T
C153   H165    1.083   .     S
C153   C706    1.380   .     S
C154   H166    1.084   .     S
C155   C158    1.397   .     A
C155   H167    1.084   .     S
C155   C33     1.369   1_655 S
C156   H168    1.084   .     S
C156   C158    1.397   .     A
C156   C30     1.369   1_655 S
C157   H169    1.084   .     S
N171   Zn185   2.008   .     S
N172   Zn186   2.008   .     S
O177   Zn185   1.999   .     S
O178   Zn186   1.999   .     S
O179   Zn185   2.000   .     S
O180   Zn186   2.000   .     S
O181   Zn185   2.017   .     S
O182   Zn186   2.017   .     S
O183   Zn185   2.018   .     S
O184   Zn186   2.018   .     S
C187   O242    1.283   .     A
C187   C188    1.419   .     S
C187   O239    1.282   .     A
C188   C216    1.397   .     A
C188   C219    1.397   .     A
C189   N234    1.366   .     A
C189   H232    1.082   .     S
C190   N233    1.366   .     A
C190   H222    1.082   .     S
C190   C377    1.416   .     S
C191   H223    1.082   .     S
C191   N234    1.366   .     A
C192   H224    1.082   .     S
C192   N233    1.366   .     A
C192   C375    1.416   .     S
C193   O246    1.282   .     A
C193   C199    1.431   .     S
C193   O243    1.282   .     A
C194   O244    1.282   .     A
C194   O245    1.282   .     A
C194   C197    1.431   .     S
C195   C197    1.402   .     A
C195   C206    1.397   .     A
C195   C211    1.456   .     S
C196   C212    1.456   .     S
C196   C207    1.397   .     A
C196   C199    1.402   .     A
C197   C200    1.402   .     A
C198   C220    1.419   .     S
C198   O241    1.283   .     A
C198   O240    1.282   .     A
C199   C201    1.402   .     A
C200   C213    1.456   .     S
C200   C202    1.397   .     A
C201   C214    1.456   .     S
C201   C203    1.397   .     A
C202   C204    1.418   .     A
C202   C208    1.403   .     A
C203   C205    1.418   .     A
C203   C210    1.403   .     A
C204   C206    1.418   .     A
C204   C763    1.405   .     S
C205   C207    1.418   .     A
C205   C762    1.405   1_554 S
C206   C215    1.403   .     A
C207   C209    1.403   .     A
C208   H221    1.083   .     S
C208   C767    1.380   .     S
C209   H226    1.083   .     S
C209   C766    1.380   1_554 S
C210   H225    1.083   .     S
C210   C773    1.380   1_554 S
C211   N235    1.157   .     T
C212   N236    1.157   .     T
C213   N237    1.158   .     T
C214   N238    1.158   .     T
C215   H227    1.083   .     S
C215   C768    1.380   .     S
C216   H228    1.084   .     S
C216   C342    1.369   1_455 S
C217   C220    1.397   .     A
C217   H229    1.084   .     S
C217   C281    1.369   .     S
C218   H230    1.084   .     S
C218   C220    1.397   .     A
C218   C278    1.369   .     S
C219   H231    1.084   .     S
C219   C341    1.369   1_455 S
N233   Zn247   2.008   .     S
N234   Zn248   2.008   .     S
O239   Zn247   1.999   .     S
O240   Zn248   1.999   .     S
O241   Zn247   2.000   .     S
O242   Zn248   2.000   .     S
O243   Zn247   2.017   .     S
O244   Zn248   2.017   .     S
O245   Zn247   2.018   .     S
O246   Zn248   2.018   .     S
C249   O304    1.283   .     A
C249   C250    1.419   .     S
C249   O301    1.282   .     A
C250   C278    1.397   .     A
C250   C281    1.397   .     A
C251   N296    1.366   .     A
C251   H294    1.082   .     S
C252   N295    1.366   .     A
C252   H284    1.082   .     S
C252   C439    1.416   .     S
C253   H285    1.082   .     S
C253   N296    1.366   .     A
C254   H286    1.082   .     S
C254   N295    1.366   .     A
C254   C437    1.416   .     S
C255   O308    1.282   .     A
C255   C261    1.431   .     S
C255   O305    1.282   .     A
C256   O306    1.282   .     A
C256   O307    1.282   .     A
C256   C259    1.431   .     S
C257   C259    1.402   .     A
C257   C268    1.397   .     A
C257   C273    1.456   .     S
C258   C274    1.456   .     S
C258   C269    1.397   .     A
C258   C261    1.402   .     A
C259   C262    1.402   .     A
C260   C282    1.419   .     S
C260   O303    1.283   .     A
C260   O302    1.282   .     A
C261   C263    1.402   .     A
C262   C275    1.456   .     S
C262   C264    1.397   .     A
C263   C276    1.456   .     S
C263   C265    1.397   .     A
C264   C266    1.418   .     A
C264   C270    1.403   .     A
C265   C267    1.418   .     A
C265   C272    1.403   .     A
C266   C268    1.418   .     A
C266   C825    1.405   .     S
C267   C269    1.418   .     A
C267   C824    1.405   1_554 S
C268   C277    1.403   .     A
C269   C271    1.403   .     A
C270   H283    1.083   .     S
C270   C829    1.380   .     S
C271   H288    1.083   .     S
C271   C828    1.380   1_554 S
C272   H287    1.083   .     S
C272   C835    1.380   1_554 S
C273   N297    1.157   .     T
C274   N298    1.157   .     T
C275   N299    1.158   .     T
C276   N300    1.158   .     T
C277   H289    1.083   .     S
C277   C830    1.380   .     S
C278   H290    1.084   .     S
C279   C282    1.397   .     A
C279   H291    1.084   .     S
C279   C343    1.369   .     S
C280   H292    1.084   .     S
C280   C282    1.397   .     A
C280   C340    1.369   .     S
C281   H293    1.084   .     S
N295   Zn309   2.008   .     S
N296   Zn310   2.008   .     S
O301   Zn309   1.999   .     S
O302   Zn310   1.999   .     S
O303   Zn309   2.000   .     S
O304   Zn310   2.000   .     S
O305   Zn309   2.017   .     S
O306   Zn310   2.017   .     S
O307   Zn309   2.018   .     S
O308   Zn310   2.018   .     S
C311   O366    1.283   .     A
C311   C312    1.419   .     S
C311   O363    1.282   .     A
C312   C340    1.397   .     A
C312   C343    1.397   .     A
C313   N358    1.366   .     A
C313   H356    1.082   .     S
C314   N357    1.366   .     A
C314   H346    1.082   .     S
C314   C501    1.416   .     S
C315   H347    1.082   .     S
C315   N358    1.366   .     A
C316   H348    1.082   .     S
C316   N357    1.366   .     A
C316   C499    1.416   .     S
C317   O370    1.282   .     A
C317   C323    1.431   .     S
C317   O367    1.282   .     A
C318   O368    1.282   .     A
C318   O369    1.282   .     A
C318   C321    1.431   .     S
C319   C321    1.402   .     A
C319   C330    1.397   .     A
C319   C335    1.456   .     S
C320   C336    1.456   .     S
C320   C331    1.397   .     A
C320   C323    1.402   .     A
C321   C324    1.402   .     A
C322   C344    1.419   .     S
C322   O365    1.283   .     A
C322   O364    1.282   .     A
C323   C325    1.402   .     A
C324   C337    1.456   .     S
C324   C326    1.397   .     A
C325   C338    1.456   .     S
C325   C327    1.397   .     A
C326   C328    1.418   .     A
C326   C332    1.403   .     A
C327   C329    1.418   .     A
C327   C334    1.403   .     A
C328   C330    1.418   .     A
C328   C887    1.405   .     S
C329   C331    1.418   .     A
C329   C886    1.405   1_554 S
C330   C339    1.403   .     A
C331   C333    1.403   .     A
C332   H345    1.083   .     S
C332   C891    1.380   .     S
C333   H350    1.083   .     S
C333   C890    1.380   1_554 S
C334   H349    1.083   .     S
C334   C897    1.380   1_554 S
C335   N359    1.157   .     T
C336   N360    1.157   .     T
C337   N361    1.158   .     T
C338   N362    1.158   .     T
C339   H351    1.083   .     S
C339   C892    1.380   .     S
C340   H352    1.084   .     S
C341   C344    1.397   .     A
C341   H353    1.084   .     S
C341   C219    1.369   1_655 S
C342   H354    1.084   .     S
C342   C344    1.397   .     A
C342   C216    1.369   1_655 S
C343   H355    1.084   .     S
N357   Zn371   2.008   .     S
N358   Zn372   2.008   .     S
O363   Zn371   1.999   .     S
O364   Zn372   1.999   .     S
O365   Zn371   2.000   .     S
O366   Zn372   2.000   .     S
O367   Zn371   2.017   .     S
O368   Zn372   2.017   .     S
O369   Zn371   2.018   .     S
O370   Zn372   2.018   .     S
C373   O428    1.283   .     A
C373   C374    1.419   .     S
C373   O425    1.282   .     A
C374   C402    1.397   .     A
C374   C405    1.397   .     A
C375   N420    1.366   .     A
C375   H418    1.082   .     S
C376   N419    1.366   .     A
C376   H408    1.082   .     S
C376   C5      1.416   1_565 S
C377   H409    1.082   .     S
C377   N420    1.366   .     A
C378   H410    1.082   .     S
C378   N419    1.366   .     A
C378   C3      1.416   1_565 S
C379   O432    1.282   .     A
C379   C385    1.431   .     S
C379   O429    1.282   .     A
C380   O430    1.282   .     A
C380   O431    1.282   .     A
C380   C383    1.431   .     S
C381   C383    1.402   .     A
C381   C392    1.397   .     A
C381   C397    1.456   .     S
C382   C398    1.456   .     S
C382   C393    1.397   .     A
C382   C385    1.402   .     A
C383   C386    1.402   .     A
C384   C406    1.419   .     S
C384   O427    1.283   .     A
C384   O426    1.282   .     A
C385   C387    1.402   .     A
C386   C399    1.456   .     S
C386   C388    1.397   .     A
C387   C400    1.456   .     S
C387   C389    1.397   .     A
C388   C390    1.418   .     A
C388   C394    1.403   .     A
C389   C391    1.418   .     A
C389   C396    1.403   .     A
C390   C392    1.418   .     A
C390   C949    1.405   .     S
C391   C393    1.418   .     A
C391   C948    1.405   1_554 S
C392   C401    1.403   .     A
C393   C395    1.403   .     A
C394   H407    1.083   .     S
C394   C953    1.380   .     S
C395   H412    1.083   .     S
C395   C952    1.380   1_554 S
C396   H411    1.083   .     S
C396   C959    1.380   1_554 S
C397   N421    1.157   .     T
C398   N422    1.157   .     T
C399   N423    1.158   .     T
C400   N424    1.158   .     T
C401   H413    1.083   .     S
C401   C954    1.380   .     S
C402   H414    1.084   .     S
C402   C528    1.369   1_455 S
C403   C406    1.397   .     A
C403   H415    1.084   .     S
C403   C467    1.369   .     S
C404   H416    1.084   .     S
C404   C406    1.397   .     A
C404   C464    1.369   .     S
C405   H417    1.084   .     S
C405   C527    1.369   1_455 S
N419   Zn433   2.008   .     S
N420   Zn434   2.008   .     S
O425   Zn433   1.999   .     S
O426   Zn434   1.999   .     S
O427   Zn433   2.000   .     S
O428   Zn434   2.000   .     S
O429   Zn433   2.017   .     S
O430   Zn434   2.017   .     S
O431   Zn433   2.018   .     S
O432   Zn434   2.018   .     S
C435   O490    1.283   .     A
C435   C436    1.419   .     S
C435   O487    1.282   .     A
C436   C464    1.397   .     A
C436   C467    1.397   .     A
C437   N482    1.366   .     A
C437   H480    1.082   .     S
C438   N481    1.366   .     A
C438   H470    1.082   .     S
C438   C67     1.416   1_565 S
C439   H471    1.082   .     S
C439   N482    1.366   .     A
C440   H472    1.082   .     S
C440   N481    1.366   .     A
C440   C65     1.416   1_565 S
C441   O494    1.282   .     A
C441   C447    1.431   .     S
C441   O491    1.282   .     A
C442   O492    1.282   .     A
C442   O493    1.282   .     A
C442   C445    1.431   .     S
C443   C445    1.402   .     A
C443   C454    1.397   .     A
C443   C459    1.456   .     S
C444   C460    1.456   .     S
C444   C455    1.397   .     A
C444   C447    1.402   .     A
C445   C448    1.402   .     A
C446   C468    1.419   .     S
C446   O489    1.283   .     A
C446   O488    1.282   .     A
C447   C449    1.402   .     A
C448   C461    1.456   .     S
C448   C450    1.397   .     A
C449   C462    1.456   .     S
C449   C451    1.397   .     A
C450   C452    1.418   .     A
C450   C456    1.403   .     A
C451   C453    1.418   .     A
C451   C458    1.403   .     A
C452   C454    1.418   .     A
C452   C1011   1.405   .     S
C453   C455    1.418   .     A
C453   C1010   1.405   1_554 S
C454   C463    1.403   .     A
C455   C457    1.403   .     A
C456   H469    1.083   .     S
C456   C1015   1.380   .     S
C457   H474    1.083   .     S
C457   C1014   1.380   1_554 S
C458   H473    1.083   .     S
C458   C1021   1.380   1_554 S
C459   N483    1.157   .     T
C460   N484    1.157   .     T
C461   N485    1.158   .     T
C462   N486    1.158   .     T
C463   H475    1.083   .     S
C463   C1016   1.380   .     S
C464   H476    1.084   .     S
C465   C468    1.397   .     A
C465   H477    1.084   .     S
C465   C529    1.369   .     S
C466   H478    1.084   .     S
C466   C468    1.397   .     A
C466   C526    1.369   .     S
C467   H479    1.084   .     S
N481   Zn495   2.008   .     S
N482   Zn496   2.008   .     S
O487   Zn495   1.999   .     S
O488   Zn496   1.999   .     S
O489   Zn495   2.000   .     S
O490   Zn496   2.000   .     S
O491   Zn495   2.017   .     S
O492   Zn496   2.017   .     S
O493   Zn495   2.018   .     S
O494   Zn496   2.018   .     S
C497   O552    1.283   .     A
C497   C498    1.419   .     S
C497   O549    1.282   .     A
C498   C526    1.397   .     A
C498   C529    1.397   .     A
C499   N544    1.366   .     A
C499   H542    1.082   .     S
C500   N543    1.366   .     A
C500   H532    1.082   .     S
C500   C129    1.416   1_565 S
C501   H533    1.082   .     S
C501   N544    1.366   .     A
C502   H534    1.082   .     S
C502   N543    1.366   .     A
C502   C127    1.416   1_565 S
C503   O556    1.282   .     A
C503   C509    1.431   .     S
C503   O553    1.282   .     A
C504   O554    1.282   .     A
C504   O555    1.282   .     A
C504   C507    1.431   .     S
C505   C507    1.402   .     A
C505   C516    1.397   .     A
C505   C521    1.456   .     S
C506   C522    1.456   .     S
C506   C517    1.397   .     A
C506   C509    1.402   .     A
C507   C510    1.402   .     A
C508   C530    1.419   .     S
C508   O551    1.283   .     A
C508   O550    1.282   .     A
C509   C511    1.402   .     A
C510   C523    1.456   .     S
C510   C512    1.397   .     A
C511   C524    1.456   .     S
C511   C513    1.397   .     A
C512   C514    1.418   .     A
C512   C518    1.403   .     A
C513   C515    1.418   .     A
C513   C520    1.403   .     A
C514   C516    1.418   .     A
C514   C1073   1.405   .     S
C515   C517    1.418   .     A
C515   C1072   1.405   1_554 S
C516   C525    1.403   .     A
C517   C519    1.403   .     A
C518   H531    1.083   .     S
C518   C1077   1.380   .     S
C519   H536    1.083   .     S
C519   C1076   1.380   1_554 S
C520   H535    1.083   .     S
C520   C1083   1.380   1_554 S
C521   N545    1.157   .     T
C522   N546    1.157   .     T
C523   N547    1.158   .     T
C524   N548    1.158   .     T
C525   H537    1.083   .     S
C525   C1078   1.380   .     S
C526   H538    1.084   .     S
C527   C530    1.397   .     A
C527   H539    1.084   .     S
C527   C405    1.369   1_655 S
C528   H540    1.084   .     S
C528   C530    1.397   .     A
C528   C402    1.369   1_655 S
C529   H541    1.084   .     S
N543   Zn557   2.008   .     S
N544   Zn558   2.008   .     S
O549   Zn557   1.999   .     S
O550   Zn558   1.999   .     S
O551   Zn557   2.000   .     S
O552   Zn558   2.000   .     S
O553   Zn557   2.017   .     S
O554   Zn558   2.017   .     S
O555   Zn557   2.018   .     S
O556   Zn558   2.018   .     S
C559   O614    1.283   .     A
C559   C560    1.419   .     S
C559   O611    1.282   .     A
C560   C588    1.397   .     A
C560   C591    1.397   .     A
C561   N606    1.366   .     A
C561   H604    1.082   .     S
C561   C936    1.416   1_545 S
C562   N605    1.366   .     A
C562   H594    1.082   .     S
C562   C749    1.416   .     S
C563   H595    1.082   .     S
C563   N606    1.366   .     A
C563   C934    1.416   1_545 S
C564   H596    1.082   .     S
C564   N605    1.366   .     A
C564   C747    1.416   .     S
C565   O618    1.282   .     A
C565   C571    1.431   .     S
C565   O615    1.282   .     A
C566   O616    1.282   .     A
C566   O617    1.282   .     A
C566   C569    1.431   .     S
C567   C569    1.402   .     A
C567   C578    1.397   .     A
C567   C583    1.456   .     S
C568   C584    1.456   .     S
C568   C579    1.397   .     A
C568   C571    1.402   .     A
C569   C572    1.402   .     A
C570   C592    1.419   .     S
C570   O613    1.283   .     A
C570   O612    1.282   .     A
C571   C573    1.402   .     A
C572   C585    1.456   .     S
C572   C574    1.397   .     A
C573   C586    1.456   .     S
C573   C575    1.397   .     A
C574   C576    1.418   .     A
C574   C580    1.403   .     A
C575   C577    1.418   .     A
C575   C582    1.403   .     A
C576   C578    1.418   .     A
C576   C19     1.405   1_556 S
C577   C579    1.418   .     A
C578   C587    1.403   .     A
C579   C581    1.403   .     A
C580   H593    1.083   .     S
C580   C23     1.380   1_556 S
C581   H598    1.083   .     S
C582   H597    1.083   .     S
C583   N607    1.157   .     T
C584   N608    1.157   .     T
C585   N609    1.158   .     T
C586   N610    1.158   .     T
C587   H599    1.083   .     S
C587   C24     1.380   1_556 S
C588   H600    1.084   .     S
C588   C714    1.369   1_455 S
C589   C592    1.397   .     A
C589   H601    1.084   .     S
C589   C653    1.369   .     S
C590   H602    1.084   .     S
C590   C592    1.397   .     A
C590   C650    1.369   .     S
C591   H603    1.084   .     S
C591   C713    1.369   1_455 S
N605   Zn619   2.008   .     S
N606   Zn620   2.008   .     S
O611   Zn619   1.999   .     S
O612   Zn620   1.999   .     S
O613   Zn619   2.000   .     S
O614   Zn620   2.000   .     S
O615   Zn619   2.017   .     S
O616   Zn620   2.017   .     S
O617   Zn619   2.018   .     S
O618   Zn620   2.018   .     S
C621   O676    1.283   .     A
C621   C622    1.419   .     S
C621   O673    1.282   .     A
C622   C650    1.397   .     A
C622   C653    1.397   .     A
C623   N668    1.366   .     A
C623   H666    1.082   .     S
C623   C998    1.416   1_545 S
C624   N667    1.366   .     A
C624   H656    1.082   .     S
C624   C811    1.416   .     S
C625   H657    1.082   .     S
C625   N668    1.366   .     A
C625   C996    1.416   1_545 S
C626   H658    1.082   .     S
C626   N667    1.366   .     A
C626   C809    1.416   .     S
C627   O680    1.282   .     A
C627   C633    1.431   .     S
C627   O677    1.282   .     A
C628   O678    1.282   .     A
C628   O679    1.282   .     A
C628   C631    1.431   .     S
C629   C631    1.402   .     A
C629   C640    1.397   .     A
C629   C645    1.456   .     S
C630   C646    1.456   .     S
C630   C641    1.397   .     A
C630   C633    1.402   .     A
C631   C634    1.402   .     A
C632   C654    1.419   .     S
C632   O675    1.283   .     A
C632   O674    1.282   .     A
C633   C635    1.402   .     A
C634   C647    1.456   .     S
C634   C636    1.397   .     A
C635   C648    1.456   .     S
C635   C637    1.397   .     A
C636   C638    1.418   .     A
C636   C642    1.403   .     A
C637   C639    1.418   .     A
C637   C644    1.403   .     A
C638   C640    1.418   .     A
C638   C81     1.405   1_556 S
C639   C641    1.418   .     A
C640   C649    1.403   .     A
C641   C643    1.403   .     A
C642   H655    1.083   .     S
C642   C85     1.380   1_556 S
C643   H660    1.083   .     S
C644   H659    1.083   .     S
C645   N669    1.157   .     T
C646   N670    1.157   .     T
C647   N671    1.158   .     T
C648   N672    1.158   .     T
C649   H661    1.083   .     S
C649   C86     1.380   1_556 S
C650   H662    1.084   .     S
C651   C654    1.397   .     A
C651   H663    1.084   .     S
C651   C715    1.369   .     S
C652   H664    1.084   .     S
C652   C654    1.397   .     A
C652   C712    1.369   .     S
C653   H665    1.084   .     S
N667   Zn681   2.008   .     S
N668   Zn682   2.008   .     S
O673   Zn681   1.999   .     S
O674   Zn682   1.999   .     S
O675   Zn681   2.000   .     S
O676   Zn682   2.000   .     S
O677   Zn681   2.017   .     S
O678   Zn682   2.017   .     S
O679   Zn681   2.018   .     S
O680   Zn682   2.018   .     S
C683   O738    1.283   .     A
C683   C684    1.419   .     S
C683   O735    1.282   .     A
C684   C712    1.397   .     A
C684   C715    1.397   .     A
C685   N730    1.366   .     A
C685   H728    1.082   .     S
C685   C1060   1.416   1_545 S
C686   N729    1.366   .     A
C686   H718    1.082   .     S
C686   C873    1.416   .     S
C687   H719    1.082   .     S
C687   N730    1.366   .     A
C687   C1058   1.416   1_545 S
C688   H720    1.082   .     S
C688   N729    1.366   .     A
C688   C871    1.416   .     S
C689   O742    1.282   .     A
C689   C695    1.431   .     S
C689   O739    1.282   .     A
C690   O740    1.282   .     A
C690   O741    1.282   .     A
C690   C693    1.431   .     S
C691   C693    1.402   .     A
C691   C702    1.397   .     A
C691   C707    1.456   .     S
C692   C708    1.456   .     S
C692   C703    1.397   .     A
C692   C695    1.402   .     A
C693   C696    1.402   .     A
C694   C716    1.419   .     S
C694   O737    1.283   .     A
C694   O736    1.282   .     A
C695   C697    1.402   .     A
C696   C709    1.456   .     S
C696   C698    1.397   .     A
C697   C710    1.456   .     S
C697   C699    1.397   .     A
C698   C700    1.418   .     A
C698   C704    1.403   .     A
C699   C701    1.418   .     A
C699   C706    1.403   .     A
C700   C702    1.418   .     A
C700   C143    1.405   1_556 S
C701   C703    1.418   .     A
C702   C711    1.403   .     A
C703   C705    1.403   .     A
C704   H717    1.083   .     S
C704   C147    1.380   1_556 S
C705   H722    1.083   .     S
C706   H721    1.083   .     S
C707   N731    1.157   .     T
C708   N732    1.157   .     T
C709   N733    1.158   .     T
C710   N734    1.158   .     T
C711   H723    1.083   .     S
C711   C148    1.380   1_556 S
C712   H724    1.084   .     S
C713   C716    1.397   .     A
C713   H725    1.084   .     S
C713   C591    1.369   1_655 S
C714   H726    1.084   .     S
C714   C716    1.397   .     A
C714   C588    1.369   1_655 S
C715   H727    1.084   .     S
N729   Zn743   2.008   .     S
N730   Zn744   2.008   .     S
O735   Zn743   1.999   .     S
O736   Zn744   1.999   .     S
O737   Zn743   2.000   .     S
O738   Zn744   2.000   .     S
O739   Zn743   2.017   .     S
O740   Zn744   2.017   .     S
O741   Zn743   2.018   .     S
O742   Zn744   2.018   .     S
C745   O800    1.283   .     A
C745   C746    1.419   .     S
C745   O797    1.282   .     A
C746   C774    1.397   .     A
C746   C777    1.397   .     A
C747   N792    1.366   .     A
C747   H790    1.082   .     S
C748   N791    1.366   .     A
C748   H780    1.082   .     S
C748   C935    1.416   .     S
C749   H781    1.082   .     S
C749   N792    1.366   .     A
C750   H782    1.082   .     S
C750   N791    1.366   .     A
C750   C933    1.416   .     S
C751   O804    1.282   .     A
C751   C757    1.431   .     S
C751   O801    1.282   .     A
C752   O802    1.282   .     A
C752   O803    1.282   .     A
C752   C755    1.431   .     S
C753   C755    1.402   .     A
C753   C764    1.397   .     A
C753   C769    1.456   .     S
C754   C770    1.456   .     S
C754   C765    1.397   .     A
C754   C757    1.402   .     A
C755   C758    1.402   .     A
C756   C778    1.419   .     S
C756   O799    1.283   .     A
C756   O798    1.282   .     A
C757   C759    1.402   .     A
C758   C771    1.456   .     S
C758   C760    1.397   .     A
C759   C772    1.456   .     S
C759   C761    1.397   .     A
C760   C762    1.418   .     A
C760   C766    1.403   .     A
C761   C763    1.418   .     A
C761   C768    1.403   .     A
C762   C764    1.418   .     A
C762   C205    1.405   1_556 S
C763   C765    1.418   .     A
C764   C773    1.403   .     A
C765   C767    1.403   .     A
C766   H779    1.083   .     S
C766   C209    1.380   1_556 S
C767   H784    1.083   .     S
C768   H783    1.083   .     S
C769   N793    1.157   .     T
C770   N794    1.157   .     T
C771   N795    1.158   .     T
C772   N796    1.158   .     T
C773   H785    1.083   .     S
C773   C210    1.380   1_556 S
C774   H786    1.084   .     S
C774   C900    1.369   1_455 S
C775   C778    1.397   .     A
C775   H787    1.084   .     S
C775   C839    1.369   .     S
C776   H788    1.084   .     S
C776   C778    1.397   .     A
C776   C836    1.369   .     S
C777   H789    1.084   .     S
C777   C899    1.369   1_455 S
N791   Zn805   2.008   .     S
N792   Zn806   2.008   .     S
O797   Zn805   1.999   .     S
O798   Zn806   1.999   .     S
O799   Zn805   2.000   .     S
O800   Zn806   2.000   .     S
O801   Zn805   2.017   .     S
O802   Zn806   2.017   .     S
O803   Zn805   2.018   .     S
O804   Zn806   2.018   .     S
C807   O862    1.283   .     A
C807   C808    1.419   .     S
C807   O859    1.282   .     A
C808   C836    1.397   .     A
C808   C839    1.397   .     A
C809   N854    1.366   .     A
C809   H852    1.082   .     S
C810   N853    1.366   .     A
C810   H842    1.082   .     S
C810   C997    1.416   .     S
C811   H843    1.082   .     S
C811   N854    1.366   .     A
C812   H844    1.082   .     S
C812   N853    1.366   .     A
C812   C995    1.416   .     S
C813   O866    1.282   .     A
C813   C819    1.431   .     S
C813   O863    1.282   .     A
C814   O864    1.282   .     A
C814   O865    1.282   .     A
C814   C817    1.431   .     S
C815   C817    1.402   .     A
C815   C826    1.397   .     A
C815   C831    1.456   .     S
C816   C832    1.456   .     S
C816   C827    1.397   .     A
C816   C819    1.402   .     A
C817   C820    1.402   .     A
C818   C840    1.419   .     S
C818   O861    1.283   .     A
C818   O860    1.282   .     A
C819   C821    1.402   .     A
C820   C833    1.456   .     S
C820   C822    1.397   .     A
C821   C834    1.456   .     S
C821   C823    1.397   .     A
C822   C824    1.418   .     A
C822   C828    1.403   .     A
C823   C825    1.418   .     A
C823   C830    1.403   .     A
C824   C826    1.418   .     A
C824   C267    1.405   1_556 S
C825   C827    1.418   .     A
C826   C835    1.403   .     A
C827   C829    1.403   .     A
C828   H841    1.083   .     S
C828   C271    1.380   1_556 S
C829   H846    1.083   .     S
C830   H845    1.083   .     S
C831   N855    1.157   .     T
C832   N856    1.157   .     T
C833   N857    1.158   .     T
C834   N858    1.158   .     T
C835   H847    1.083   .     S
C835   C272    1.380   1_556 S
C836   H848    1.084   .     S
C837   C840    1.397   .     A
C837   H849    1.084   .     S
C837   C901    1.369   .     S
C838   H850    1.084   .     S
C838   C840    1.397   .     A
C838   C898    1.369   .     S
C839   H851    1.084   .     S
N853   Zn867   2.008   .     S
N854   Zn868   2.008   .     S
O859   Zn867   1.999   .     S
O860   Zn868   1.999   .     S
O861   Zn867   2.000   .     S
O862   Zn868   2.000   .     S
O863   Zn867   2.017   .     S
O864   Zn868   2.017   .     S
O865   Zn867   2.018   .     S
O866   Zn868   2.018   .     S
C869   O924    1.283   .     A
C869   C870    1.419   .     S
C869   O921    1.282   .     A
C870   C898    1.397   .     A
C870   C901    1.397   .     A
C871   N916    1.366   .     A
C871   H914    1.082   .     S
C872   N915    1.366   .     A
C872   H904    1.082   .     S
C872   C1059   1.416   .     S
C873   H905    1.082   .     S
C873   N916    1.366   .     A
C874   H906    1.082   .     S
C874   N915    1.366   .     A
C874   C1057   1.416   .     S
C875   O928    1.282   .     A
C875   C881    1.431   .     S
C875   O925    1.282   .     A
C876   O926    1.282   .     A
C876   O927    1.282   .     A
C876   C879    1.431   .     S
C877   C879    1.402   .     A
C877   C888    1.397   .     A
C877   C893    1.456   .     S
C878   C894    1.456   .     S
C878   C889    1.397   .     A
C878   C881    1.402   .     A
C879   C882    1.402   .     A
C880   C902    1.419   .     S
C880   O923    1.283   .     A
C880   O922    1.282   .     A
C881   C883    1.402   .     A
C882   C895    1.456   .     S
C882   C884    1.397   .     A
C883   C896    1.456   .     S
C883   C885    1.397   .     A
C884   C886    1.418   .     A
C884   C890    1.403   .     A
C885   C887    1.418   .     A
C885   C892    1.403   .     A
C886   C888    1.418   .     A
C886   C329    1.405   1_556 S
C887   C889    1.418   .     A
C888   C897    1.403   .     A
C889   C891    1.403   .     A
C890   H903    1.083   .     S
C890   C333    1.380   1_556 S
C891   H908    1.083   .     S
C892   H907    1.083   .     S
C893   N917    1.157   .     T
C894   N918    1.157   .     T
C895   N919    1.158   .     T
C896   N920    1.158   .     T
C897   H909    1.083   .     S
C897   C334    1.380   1_556 S
C898   H910    1.084   .     S
C899   C902    1.397   .     A
C899   H911    1.084   .     S
C899   C777    1.369   1_655 S
C900   H912    1.084   .     S
C900   C902    1.397   .     A
C900   C774    1.369   1_655 S
C901   H913    1.084   .     S
N915   Zn929   2.008   .     S
N916   Zn930   2.008   .     S
O921   Zn929   1.999   .     S
O922   Zn930   1.999   .     S
O923   Zn929   2.000   .     S
O924   Zn930   2.000   .     S
O925   Zn929   2.017   .     S
O926   Zn930   2.017   .     S
O927   Zn929   2.018   .     S
O928   Zn930   2.018   .     S
C931   O986    1.283   .     A
C931   C932    1.419   .     S
C931   O983    1.282   .     A
C932   C960    1.397   .     A
C932   C963    1.397   .     A
C933   N978    1.366   .     A
C933   H976    1.082   .     S
C934   N977    1.366   .     A
C934   H966    1.082   .     S
C934   C563    1.416   1_565 S
C935   H967    1.082   .     S
C935   N978    1.366   .     A
C936   H968    1.082   .     S
C936   N977    1.366   .     A
C936   C561    1.416   1_565 S
C937   O990    1.282   .     A
C937   C943    1.431   .     S
C937   O987    1.282   .     A
C938   O988    1.282   .     A
C938   O989    1.282   .     A
C938   C941    1.431   .     S
C939   C941    1.402   .     A
C939   C950    1.397   .     A
C939   C955    1.456   .     S
C940   C956    1.456   .     S
C940   C951    1.397   .     A
C940   C943    1.402   .     A
C941   C944    1.402   .     A
C942   C964    1.419   .     S
C942   O985    1.283   .     A
C942   O984    1.282   .     A
C943   C945    1.402   .     A
C944   C957    1.456   .     S
C944   C946    1.397   .     A
C945   C958    1.456   .     S
C945   C947    1.397   .     A
C946   C948    1.418   .     A
C946   C952    1.403   .     A
C947   C949    1.418   .     A
C947   C954    1.403   .     A
C948   C950    1.418   .     A
C948   C391    1.405   1_556 S
C949   C951    1.418   .     A
C950   C959    1.403   .     A
C951   C953    1.403   .     A
C952   H965    1.083   .     S
C952   C395    1.380   1_556 S
C953   H970    1.083   .     S
C954   H969    1.083   .     S
C955   N979    1.157   .     T
C956   N980    1.157   .     T
C957   N981    1.158   .     T
C958   N982    1.158   .     T
C959   H971    1.083   .     S
C959   C396    1.380   1_556 S
C960   H972    1.084   .     S
C960   C1086   1.369   1_455 S
C961   C964    1.397   .     A
C961   H973    1.084   .     S
C961   C1025   1.369   .     S
C962   H974    1.084   .     S
C962   C964    1.397   .     A
C962   C1022   1.369   .     S
C963   H975    1.084   .     S
C963   C1085   1.369   1_455 S
N977   Zn991   2.008   .     S
N978   Zn992   2.008   .     S
O983   Zn991   1.999   .     S
O984   Zn992   1.999   .     S
O985   Zn991   2.000   .     S
O986   Zn992   2.000   .     S
O987   Zn991   2.017   .     S
O988   Zn992   2.017   .     S
O989   Zn991   2.018   .     S
O990   Zn992   2.018   .     S
C993   O1048   1.283   .     A
C993   C994    1.419   .     S
C993   O1045   1.282   .     A
C994   C1022   1.397   .     A
C994   C1025   1.397   .     A
C995   N1040   1.366   .     A
C995   H1038   1.082   .     S
C996   N1039   1.366   .     A
C996   H1028   1.082   .     S
C996   C625    1.416   1_565 S
C997   H1029   1.082   .     S
C997   N1040   1.366   .     A
C998   H1030   1.082   .     S
C998   N1039   1.366   .     A
C998   C623    1.416   1_565 S
C999   O1052   1.282   .     A
C999   C1005   1.431   .     S
C999   O1049   1.282   .     A
C1000  O1050   1.282   .     A
C1000  O1051   1.282   .     A
C1000  C1003   1.431   .     S
C1001  C1003   1.402   .     A
C1001  C1012   1.397   .     A
C1001  C1017   1.456   .     S
C1002  C1018   1.456   .     S
C1002  C1013   1.397   .     A
C1002  C1005   1.402   .     A
C1003  C1006   1.402   .     A
C1004  C1026   1.419   .     S
C1004  O1047   1.283   .     A
C1004  O1046   1.282   .     A
C1005  C1007   1.402   .     A
C1006  C1019   1.456   .     S
C1006  C1008   1.397   .     A
C1007  C1020   1.456   .     S
C1007  C1009   1.397   .     A
C1008  C1010   1.418   .     A
C1008  C1014   1.403   .     A
C1009  C1011   1.418   .     A
C1009  C1016   1.403   .     A
C1010  C1012   1.418   .     A
C1010  C453    1.405   1_556 S
C1011  C1013   1.418   .     A
C1012  C1021   1.403   .     A
C1013  C1015   1.403   .     A
C1014  H1027   1.083   .     S
C1014  C457    1.380   1_556 S
C1015  H1032   1.083   .     S
C1016  H1031   1.083   .     S
C1017  N1041   1.157   .     T
C1018  N1042   1.157   .     T
C1019  N1043   1.158   .     T
C1020  N1044   1.158   .     T
C1021  H1033   1.083   .     S
C1021  C458    1.380   1_556 S
C1022  H1034   1.084   .     S
C1023  C1026   1.397   .     A
C1023  H1035   1.084   .     S
C1023  C1087   1.369   .     S
C1024  H1036   1.084   .     S
C1024  C1026   1.397   .     A
C1024  C1084   1.369   .     S
C1025  H1037   1.084   .     S
N1039  Zn1053  2.008   .     S
N1040  Zn1054  2.008   .     S
O1045  Zn1053  1.999   .     S
O1046  Zn1054  1.999   .     S
O1047  Zn1053  2.000   .     S
O1048  Zn1054  2.000   .     S
O1049  Zn1053  2.017   .     S
O1050  Zn1054  2.017   .     S
O1051  Zn1053  2.018   .     S
O1052  Zn1054  2.018   .     S
C1055  O1110   1.283   .     A
C1055  C1056   1.419   .     S
C1055  O1107   1.282   .     A
C1056  C1084   1.397   .     A
C1056  C1087   1.397   .     A
C1057  N1102   1.366   .     A
C1057  H1100   1.082   .     S
C1058  N1101   1.366   .     A
C1058  H1090   1.082   .     S
C1058  C687    1.416   1_565 S
C1059  H1091   1.082   .     S
C1059  N1102   1.366   .     A
C1060  H1092   1.082   .     S
C1060  N1101   1.366   .     A
C1060  C685    1.416   1_565 S
C1061  O1114   1.282   .     A
C1061  C1067   1.431   .     S
C1061  O1111   1.282   .     A
C1062  O1112   1.282   .     A
C1062  O1113   1.282   .     A
C1062  C1065   1.431   .     S
C1063  C1065   1.402   .     A
C1063  C1074   1.397   .     A
C1063  C1079   1.456   .     S
C1064  C1080   1.456   .     S
C1064  C1075   1.397   .     A
C1064  C1067   1.402   .     A
C1065  C1068   1.402   .     A
C1066  C1088   1.419   .     S
C1066  O1109   1.283   .     A
C1066  O1108   1.282   .     A
C1067  C1069   1.402   .     A
C1068  C1081   1.456   .     S
C1068  C1070   1.397   .     A
C1069  C1082   1.456   .     S
C1069  C1071   1.397   .     A
C1070  C1072   1.418   .     A
C1070  C1076   1.403   .     A
C1071  C1073   1.418   .     A
C1071  C1078   1.403   .     A
C1072  C1074   1.418   .     A
C1072  C515    1.405   1_556 S
C1073  C1075   1.418   .     A
C1074  C1083   1.403   .     A
C1075  C1077   1.403   .     A
C1076  H1089   1.083   .     S
C1076  C519    1.380   1_556 S
C1077  H1094   1.083   .     S
C1078  H1093   1.083   .     S
C1079  N1103   1.157   .     T
C1080  N1104   1.157   .     T
C1081  N1105   1.158   .     T
C1082  N1106   1.158   .     T
C1083  H1095   1.083   .     S
C1083  C520    1.380   1_556 S
C1084  H1096   1.084   .     S
C1085  C1088   1.397   .     A
C1085  H1097   1.084   .     S
C1085  C963    1.369   1_655 S
C1086  H1098   1.084   .     S
C1086  C1088   1.397   .     A
C1086  C960    1.369   1_655 S
C1087  H1099   1.084   .     S
N1101  Zn1115  2.008   .     S
N1102  Zn1116  2.008   .     S
O1107  Zn1115  1.999   .     S
O1108  Zn1116  1.999   .     S
O1109  Zn1115  2.000   .     S
O1110  Zn1116  2.000   .     S
O1111  Zn1115  2.017   .     S
O1112  Zn1116  2.017   .     S
O1113  Zn1115  2.018   .     S
O1114  Zn1116  2.018   .     S
