data_str_m3_o10_o17_pcu_sym.22
_audit_creation_date              2020-01-03
_audit_creation_method            'Materials Studio'
_symmetry_space_group_name_H-M    'P1'
_symmetry_Int_Tables_number       1
_symmetry_cell_setting            triclinic
loop_
_symmetry_equiv_pos_as_xyz
  x,y,z
_cell_length_a                    23.4602
_cell_length_b                    26.0116
_cell_length_c                    29.7775
_cell_angle_alpha                 92.0198
_cell_angle_beta                  85.7013
_cell_angle_gamma                 92.9044
loop_
_atom_site_label
_atom_site_type_symbol
_atom_site_fract_x
_atom_site_fract_y
_atom_site_fract_z
_atom_site_U_iso_or_equiv
_atom_site_adp_type
_atom_site_occupancy
C1     C     0.18142   0.26468   0.24905   0.00000  Uiso   1.00
C2     C     0.17658   0.21343   0.40724   0.00000  Uiso   1.00
C3     C     0.16435   0.16662   0.11616   0.00000  Uiso   1.00
C4     C     0.16898   0.16671   0.38384   0.00000  Uiso   1.00
C5     C     0.17094   0.21331   0.09476   0.00000  Uiso   1.00
C6     C     0.16239   0.12002   0.40524   0.00000  Uiso   1.00
C7     C     0.18004   0.21293   0.04783   0.00000  Uiso   1.00
C8     C     0.15329   0.12040   0.45217   0.00000  Uiso   1.00
C9     C     0.16588   0.16662   0.02351   0.00000  Uiso   1.00
C10    C     0.16745   0.16671   0.47649   0.00000  Uiso   1.00
C11    C     0.15008   0.12028   0.04638   0.00000  Uiso   1.00
C12    C     0.15192   0.06865   0.25095   0.00000  Uiso   1.00
C13    C     0.18325   0.21305   0.45362   0.00000  Uiso   1.00
C14    C     0.20458   0.25611   0.02467   0.00000  Uiso   1.00
C15    C     0.12876   0.07722   0.47533   0.00000  Uiso   1.00
C16    C     0.20610   0.25627   0.47767   0.00000  Uiso   1.00
C17    C     0.12723   0.07707   0.02233   0.00000  Uiso   1.00
C18    C     0.18790   0.31798   0.24214   0.00000  Uiso   1.00
C19    C     0.14543   0.01535   0.25786   0.00000  Uiso   1.00
C20    C     0.16731   0.16661   0.33622   0.00000  Uiso   1.00
C21    C     0.16602   0.16673   0.16378   0.00000  Uiso   1.00
C22    C     0.15675   0.11990   0.09276   0.00000  Uiso   1.00
Cl23   Cl    0.16197   0.06277   0.12250   0.00000  Uiso   1.00
Cl24   Cl    0.08549   0.32996   0.29500   0.00000  Uiso   1.00
Cl25   Cl    0.01393   0.11045   0.19820   0.00000  Uiso   1.00
Cl26   Cl    0.31940   0.22288   0.30180   0.00000  Uiso   1.00
Cl27   Cl    0.17135   0.27056   0.37750   0.00000  Uiso   1.00
Cl28   Cl    0.15972   0.27033   0.12773   0.00000  Uiso   1.00
Cl29   Cl    0.17361   0.06300   0.37227   0.00000  Uiso   1.00
Cl30   Cl    0.24358   0.30641   0.05256   0.00000  Uiso   1.00
Cl31   Cl    0.08974   0.02693   0.44744   0.00000  Uiso   1.00
Cl32   Cl    0.24611   0.30743   0.45023   0.00000  Uiso   1.00
Cl33   Cl    0.08722   0.02590   0.04977   0.00000  Uiso   1.00
Cl34   Cl    0.24785   0.00337   0.20500   0.00000  Uiso   1.00
N35    N     0.31678   0.15265   0.23783   0.00000  Uiso   1.00
N36    N     0.01656   0.18068   0.26217   0.00000  Uiso   1.00
O37    O     0.12975   0.24619   0.25299   0.00000  Uiso   1.00
O38    O     0.20358   0.08714   0.24702   0.00000  Uiso   1.00
O39    O     0.22613   0.23721   0.24519   0.00000  Uiso   1.00
O40    O     0.10720   0.09613   0.25482   0.00000  Uiso   1.00
O41    O     0.11847   0.17117   0.31998   0.00000  Uiso   1.00
O42    O     0.21486   0.16216   0.18003   0.00000  Uiso   1.00
O43    O     0.21485   0.16219   0.31218   0.00000  Uiso   1.00
O44    O     0.11848   0.17115   0.18783   0.00000  Uiso   1.00
Zn45   Zn    0.10231   0.17266   0.25521   0.00000  Uiso   1.00
Zn46   Zn    0.23102   0.16067   0.24479   0.00000  Uiso   1.00
C47    C     0.51475   0.26468   0.24905   0.00000  Uiso   1.00
C48    C     0.50991   0.21343   0.40724   0.00000  Uiso   1.00
C49    C     0.49768   0.16662   0.11616   0.00000  Uiso   1.00
C50    C     0.50232   0.16671   0.38384   0.00000  Uiso   1.00
C51    C     0.50428   0.21331   0.09476   0.00000  Uiso   1.00
C52    C     0.49573   0.12002   0.40524   0.00000  Uiso   1.00
C53    C     0.51338   0.21293   0.04783   0.00000  Uiso   1.00
C54    C     0.48663   0.12040   0.45217   0.00000  Uiso   1.00
C55    C     0.49921   0.16662   0.02351   0.00000  Uiso   1.00
C56    C     0.50079   0.16671   0.47649   0.00000  Uiso   1.00
C57    C     0.48342   0.12028   0.04638   0.00000  Uiso   1.00
C58    C     0.48525   0.06865   0.25095   0.00000  Uiso   1.00
C59    C     0.51658   0.21305   0.45362   0.00000  Uiso   1.00
C60    C     0.53791   0.25611   0.02467   0.00000  Uiso   1.00
C61    C     0.46209   0.07722   0.47533   0.00000  Uiso   1.00
C62    C     0.53943   0.25627   0.47767   0.00000  Uiso   1.00
C63    C     0.46057   0.07707   0.02233   0.00000  Uiso   1.00
C64    C     0.52123   0.31798   0.24214   0.00000  Uiso   1.00
C65    C     0.47877   0.01535   0.25786   0.00000  Uiso   1.00
C66    C     0.50065   0.16661   0.33622   0.00000  Uiso   1.00
C67    C     0.49935   0.16673   0.16378   0.00000  Uiso   1.00
C68    C     0.49009   0.11990   0.09276   0.00000  Uiso   1.00
Cl69   Cl    0.49531   0.06277   0.12250   0.00000  Uiso   1.00
Cl70   Cl    0.41882   0.32996   0.29500   0.00000  Uiso   1.00
Cl71   Cl    0.34726   0.11045   0.19820   0.00000  Uiso   1.00
Cl72   Cl    0.65274   0.22288   0.30180   0.00000  Uiso   1.00
Cl73   Cl    0.50468   0.27056   0.37750   0.00000  Uiso   1.00
Cl74   Cl    0.49305   0.27033   0.12773   0.00000  Uiso   1.00
Cl75   Cl    0.50694   0.06300   0.37227   0.00000  Uiso   1.00
Cl76   Cl    0.57692   0.30641   0.05256   0.00000  Uiso   1.00
Cl77   Cl    0.42308   0.02693   0.44744   0.00000  Uiso   1.00
Cl78   Cl    0.57944   0.30743   0.45023   0.00000  Uiso   1.00
Cl79   Cl    0.42055   0.02590   0.04977   0.00000  Uiso   1.00
Cl80   Cl    0.58118   0.00337   0.20500   0.00000  Uiso   1.00
N81    N     0.65011   0.15265   0.23783   0.00000  Uiso   1.00
N82    N     0.34989   0.18068   0.26217   0.00000  Uiso   1.00
O83    O     0.46308   0.24619   0.25299   0.00000  Uiso   1.00
O84    O     0.53692   0.08714   0.24702   0.00000  Uiso   1.00
O85    O     0.55946   0.23721   0.24519   0.00000  Uiso   1.00
O86    O     0.44054   0.09613   0.25482   0.00000  Uiso   1.00
O87    O     0.45181   0.17117   0.31998   0.00000  Uiso   1.00
O88    O     0.54819   0.16216   0.18003   0.00000  Uiso   1.00
O89    O     0.54819   0.16219   0.31218   0.00000  Uiso   1.00
O90    O     0.45181   0.17115   0.18783   0.00000  Uiso   1.00
Zn91   Zn    0.43565   0.17266   0.25521   0.00000  Uiso   1.00
Zn92   Zn    0.56435   0.16067   0.24479   0.00000  Uiso   1.00
C93    C     0.84808   0.26468   0.24905   0.00000  Uiso   1.00
C94    C     0.84324   0.21343   0.40724   0.00000  Uiso   1.00
C95    C     0.83101   0.16662   0.11616   0.00000  Uiso   1.00
C96    C     0.83565   0.16671   0.38384   0.00000  Uiso   1.00
C97    C     0.83761   0.21331   0.09476   0.00000  Uiso   1.00
C98    C     0.82906   0.12002   0.40524   0.00000  Uiso   1.00
C99    C     0.84671   0.21293   0.04783   0.00000  Uiso   1.00
C100   C     0.81996   0.12040   0.45217   0.00000  Uiso   1.00
C101   C     0.83255   0.16662   0.02351   0.00000  Uiso   1.00
C102   C     0.83412   0.16671   0.47649   0.00000  Uiso   1.00
C103   C     0.81675   0.12028   0.04638   0.00000  Uiso   1.00
C104   C     0.81858   0.06865   0.25095   0.00000  Uiso   1.00
C105   C     0.84992   0.21305   0.45362   0.00000  Uiso   1.00
C106   C     0.87124   0.25611   0.02467   0.00000  Uiso   1.00
C107   C     0.79542   0.07722   0.47533   0.00000  Uiso   1.00
C108   C     0.87277   0.25627   0.47767   0.00000  Uiso   1.00
C109   C     0.79390   0.07707   0.02233   0.00000  Uiso   1.00
C110   C     0.85456   0.31798   0.24214   0.00000  Uiso   1.00
C111   C     0.81210   0.01535   0.25786   0.00000  Uiso   1.00
C112   C     0.83398   0.16661   0.33622   0.00000  Uiso   1.00
C113   C     0.83269   0.16673   0.16378   0.00000  Uiso   1.00
C114   C     0.82342   0.11990   0.09276   0.00000  Uiso   1.00
Cl115  Cl    0.82864   0.06277   0.12250   0.00000  Uiso   1.00
Cl116  Cl    0.75215   0.32996   0.29500   0.00000  Uiso   1.00
Cl117  Cl    0.68060   0.11045   0.19820   0.00000  Uiso   1.00
Cl118  Cl    0.98607   0.22288   0.30180   0.00000  Uiso   1.00
Cl119  Cl    0.83801   0.27056   0.37750   0.00000  Uiso   1.00
Cl120  Cl    0.82639   0.27033   0.12773   0.00000  Uiso   1.00
Cl121  Cl    0.84028   0.06300   0.37227   0.00000  Uiso   1.00
Cl122  Cl    0.91025   0.30641   0.05256   0.00000  Uiso   1.00
Cl123  Cl    0.75641   0.02693   0.44744   0.00000  Uiso   1.00
Cl124  Cl    0.91278   0.30743   0.45023   0.00000  Uiso   1.00
Cl125  Cl    0.75389   0.02590   0.04977   0.00000  Uiso   1.00
Cl126  Cl    0.91451   0.00337   0.20500   0.00000  Uiso   1.00
N127   N     0.98344   0.15265   0.23783   0.00000  Uiso   1.00
N128   N     0.68322   0.18068   0.26217   0.00000  Uiso   1.00
O129   O     0.79642   0.24619   0.25299   0.00000  Uiso   1.00
O130   O     0.87025   0.08714   0.24702   0.00000  Uiso   1.00
O131   O     0.89280   0.23721   0.24519   0.00000  Uiso   1.00
O132   O     0.77387   0.09613   0.25482   0.00000  Uiso   1.00
O133   O     0.78514   0.17117   0.31998   0.00000  Uiso   1.00
O134   O     0.88153   0.16216   0.18003   0.00000  Uiso   1.00
O135   O     0.88152   0.16219   0.31218   0.00000  Uiso   1.00
O136   O     0.78515   0.17115   0.18783   0.00000  Uiso   1.00
Zn137  Zn    0.76898   0.17266   0.25521   0.00000  Uiso   1.00
Zn138  Zn    0.89769   0.16067   0.24479   0.00000  Uiso   1.00
C139   C     0.18142   0.59801   0.24905   0.00000  Uiso   1.00
C140   C     0.17658   0.54677   0.40724   0.00000  Uiso   1.00
C141   C     0.16435   0.49996   0.11616   0.00000  Uiso   1.00
C142   C     0.16898   0.50004   0.38384   0.00000  Uiso   1.00
C143   C     0.17094   0.54664   0.09476   0.00000  Uiso   1.00
C144   C     0.16239   0.45336   0.40524   0.00000  Uiso   1.00
C145   C     0.18004   0.54626   0.04783   0.00000  Uiso   1.00
C146   C     0.15329   0.45374   0.45217   0.00000  Uiso   1.00
C147   C     0.16588   0.49996   0.02351   0.00000  Uiso   1.00
C148   C     0.16745   0.50004   0.47649   0.00000  Uiso   1.00
C149   C     0.15008   0.45361   0.04638   0.00000  Uiso   1.00
C150   C     0.15192   0.40199   0.25095   0.00000  Uiso   1.00
C151   C     0.18325   0.54639   0.45362   0.00000  Uiso   1.00
C152   C     0.20458   0.58944   0.02467   0.00000  Uiso   1.00
C153   C     0.12876   0.41056   0.47533   0.00000  Uiso   1.00
C154   C     0.20610   0.58960   0.47767   0.00000  Uiso   1.00
C155   C     0.12723   0.41040   0.02233   0.00000  Uiso   1.00
C156   C     0.18790   0.65131   0.24214   0.00000  Uiso   1.00
C157   C     0.14543   0.34869   0.25786   0.00000  Uiso   1.00
C158   C     0.16731   0.49994   0.33622   0.00000  Uiso   1.00
C159   C     0.16602   0.50006   0.16378   0.00000  Uiso   1.00
C160   C     0.15675   0.45323   0.09276   0.00000  Uiso   1.00
Cl161  Cl    0.16197   0.39610   0.12250   0.00000  Uiso   1.00
Cl162  Cl    0.08549   0.66330   0.29500   0.00000  Uiso   1.00
Cl163  Cl    0.01393   0.44378   0.19820   0.00000  Uiso   1.00
Cl164  Cl    0.31940   0.55622   0.30180   0.00000  Uiso   1.00
Cl165  Cl    0.17135   0.60390   0.37750   0.00000  Uiso   1.00
Cl166  Cl    0.15972   0.60367   0.12773   0.00000  Uiso   1.00
Cl167  Cl    0.17361   0.39633   0.37227   0.00000  Uiso   1.00
Cl168  Cl    0.24358   0.63974   0.05256   0.00000  Uiso   1.00
Cl169  Cl    0.08974   0.36027   0.44744   0.00000  Uiso   1.00
Cl170  Cl    0.24611   0.64076   0.45023   0.00000  Uiso   1.00
Cl171  Cl    0.08722   0.35924   0.04977   0.00000  Uiso   1.00
Cl172  Cl    0.24785   0.33670   0.20500   0.00000  Uiso   1.00
N173   N     0.31678   0.48598   0.23783   0.00000  Uiso   1.00
N174   N     0.01656   0.51402   0.26217   0.00000  Uiso   1.00
O175   O     0.12975   0.57952   0.25299   0.00000  Uiso   1.00
O176   O     0.20358   0.42048   0.24702   0.00000  Uiso   1.00
O177   O     0.22613   0.57054   0.24519   0.00000  Uiso   1.00
O178   O     0.10720   0.42946   0.25482   0.00000  Uiso   1.00
O179   O     0.11847   0.50450   0.31998   0.00000  Uiso   1.00
O180   O     0.21486   0.49550   0.18003   0.00000  Uiso   1.00
O181   O     0.21485   0.49552   0.31218   0.00000  Uiso   1.00
O182   O     0.11848   0.50448   0.18783   0.00000  Uiso   1.00
Zn183  Zn    0.10231   0.50600   0.25521   0.00000  Uiso   1.00
Zn184  Zn    0.23102   0.49400   0.24479   0.00000  Uiso   1.00
C185   C     0.51475   0.59801   0.24905   0.00000  Uiso   1.00
C186   C     0.50991   0.54677   0.40724   0.00000  Uiso   1.00
C187   C     0.49768   0.49996   0.11616   0.00000  Uiso   1.00
C188   C     0.50232   0.50004   0.38384   0.00000  Uiso   1.00
C189   C     0.50428   0.54664   0.09476   0.00000  Uiso   1.00
C190   C     0.49573   0.45336   0.40524   0.00000  Uiso   1.00
C191   C     0.51338   0.54626   0.04783   0.00000  Uiso   1.00
C192   C     0.48663   0.45374   0.45217   0.00000  Uiso   1.00
C193   C     0.49921   0.49996   0.02351   0.00000  Uiso   1.00
C194   C     0.50079   0.50004   0.47649   0.00000  Uiso   1.00
C195   C     0.48342   0.45361   0.04638   0.00000  Uiso   1.00
C196   C     0.48525   0.40199   0.25095   0.00000  Uiso   1.00
C197   C     0.51658   0.54639   0.45362   0.00000  Uiso   1.00
C198   C     0.53791   0.58944   0.02467   0.00000  Uiso   1.00
C199   C     0.46209   0.41056   0.47533   0.00000  Uiso   1.00
C200   C     0.53943   0.58960   0.47767   0.00000  Uiso   1.00
C201   C     0.46057   0.41040   0.02233   0.00000  Uiso   1.00
C202   C     0.52123   0.65131   0.24214   0.00000  Uiso   1.00
C203   C     0.47877   0.34869   0.25786   0.00000  Uiso   1.00
C204   C     0.50065   0.49994   0.33622   0.00000  Uiso   1.00
C205   C     0.49935   0.50006   0.16378   0.00000  Uiso   1.00
C206   C     0.49009   0.45323   0.09276   0.00000  Uiso   1.00
Cl207  Cl    0.49531   0.39610   0.12250   0.00000  Uiso   1.00
Cl208  Cl    0.41882   0.66330   0.29500   0.00000  Uiso   1.00
Cl209  Cl    0.34726   0.44378   0.19820   0.00000  Uiso   1.00
Cl210  Cl    0.65274   0.55622   0.30180   0.00000  Uiso   1.00
Cl211  Cl    0.50468   0.60390   0.37750   0.00000  Uiso   1.00
Cl212  Cl    0.49305   0.60367   0.12773   0.00000  Uiso   1.00
Cl213  Cl    0.50694   0.39633   0.37227   0.00000  Uiso   1.00
Cl214  Cl    0.57692   0.63974   0.05256   0.00000  Uiso   1.00
Cl215  Cl    0.42308   0.36027   0.44744   0.00000  Uiso   1.00
Cl216  Cl    0.57944   0.64076   0.45023   0.00000  Uiso   1.00
Cl217  Cl    0.42055   0.35924   0.04977   0.00000  Uiso   1.00
Cl218  Cl    0.58118   0.33670   0.20500   0.00000  Uiso   1.00
N219   N     0.65011   0.48598   0.23783   0.00000  Uiso   1.00
N220   N     0.34989   0.51402   0.26217   0.00000  Uiso   1.00
O221   O     0.46308   0.57952   0.25299   0.00000  Uiso   1.00
O222   O     0.53692   0.42048   0.24702   0.00000  Uiso   1.00
O223   O     0.55946   0.57054   0.24519   0.00000  Uiso   1.00
O224   O     0.44054   0.42946   0.25482   0.00000  Uiso   1.00
O225   O     0.45181   0.50450   0.31998   0.00000  Uiso   1.00
O226   O     0.54819   0.49550   0.18003   0.00000  Uiso   1.00
O227   O     0.54819   0.49552   0.31218   0.00000  Uiso   1.00
O228   O     0.45181   0.50448   0.18783   0.00000  Uiso   1.00
Zn229  Zn    0.43565   0.50600   0.25521   0.00000  Uiso   1.00
Zn230  Zn    0.56435   0.49400   0.24479   0.00000  Uiso   1.00
C231   C     0.84808   0.59801   0.24905   0.00000  Uiso   1.00
C232   C     0.84324   0.54677   0.40724   0.00000  Uiso   1.00
C233   C     0.83101   0.49996   0.11616   0.00000  Uiso   1.00
C234   C     0.83565   0.50004   0.38384   0.00000  Uiso   1.00
C235   C     0.83761   0.54664   0.09476   0.00000  Uiso   1.00
C236   C     0.82906   0.45336   0.40524   0.00000  Uiso   1.00
C237   C     0.84671   0.54626   0.04783   0.00000  Uiso   1.00
C238   C     0.81996   0.45374   0.45217   0.00000  Uiso   1.00
C239   C     0.83255   0.49996   0.02351   0.00000  Uiso   1.00
C240   C     0.83412   0.50004   0.47649   0.00000  Uiso   1.00
C241   C     0.81675   0.45361   0.04638   0.00000  Uiso   1.00
C242   C     0.81858   0.40199   0.25095   0.00000  Uiso   1.00
C243   C     0.84992   0.54639   0.45362   0.00000  Uiso   1.00
C244   C     0.87124   0.58944   0.02467   0.00000  Uiso   1.00
C245   C     0.79542   0.41056   0.47533   0.00000  Uiso   1.00
C246   C     0.87277   0.58960   0.47767   0.00000  Uiso   1.00
C247   C     0.79390   0.41040   0.02233   0.00000  Uiso   1.00
C248   C     0.85456   0.65131   0.24214   0.00000  Uiso   1.00
C249   C     0.81210   0.34869   0.25786   0.00000  Uiso   1.00
C250   C     0.83398   0.49994   0.33622   0.00000  Uiso   1.00
C251   C     0.83269   0.50006   0.16378   0.00000  Uiso   1.00
C252   C     0.82342   0.45323   0.09276   0.00000  Uiso   1.00
Cl253  Cl    0.82864   0.39610   0.12250   0.00000  Uiso   1.00
Cl254  Cl    0.75215   0.66330   0.29500   0.00000  Uiso   1.00
Cl255  Cl    0.68060   0.44378   0.19820   0.00000  Uiso   1.00
Cl256  Cl    0.98607   0.55622   0.30180   0.00000  Uiso   1.00
Cl257  Cl    0.83801   0.60390   0.37750   0.00000  Uiso   1.00
Cl258  Cl    0.82639   0.60367   0.12773   0.00000  Uiso   1.00
Cl259  Cl    0.84028   0.39633   0.37227   0.00000  Uiso   1.00
Cl260  Cl    0.91025   0.63974   0.05256   0.00000  Uiso   1.00
Cl261  Cl    0.75641   0.36027   0.44744   0.00000  Uiso   1.00
Cl262  Cl    0.91278   0.64076   0.45023   0.00000  Uiso   1.00
Cl263  Cl    0.75389   0.35924   0.04977   0.00000  Uiso   1.00
Cl264  Cl    0.91451   0.33670   0.20500   0.00000  Uiso   1.00
N265   N     0.98344   0.48598   0.23783   0.00000  Uiso   1.00
N266   N     0.68322   0.51402   0.26217   0.00000  Uiso   1.00
O267   O     0.79642   0.57952   0.25299   0.00000  Uiso   1.00
O268   O     0.87025   0.42048   0.24702   0.00000  Uiso   1.00
O269   O     0.89280   0.57054   0.24519   0.00000  Uiso   1.00
O270   O     0.77387   0.42946   0.25482   0.00000  Uiso   1.00
O271   O     0.78514   0.50450   0.31998   0.00000  Uiso   1.00
O272   O     0.88153   0.49550   0.18003   0.00000  Uiso   1.00
O273   O     0.88152   0.49552   0.31218   0.00000  Uiso   1.00
O274   O     0.78515   0.50448   0.18783   0.00000  Uiso   1.00
Zn275  Zn    0.76898   0.50600   0.25521   0.00000  Uiso   1.00
Zn276  Zn    0.89769   0.49400   0.24479   0.00000  Uiso   1.00
C277   C     0.18142   0.93135   0.24905   0.00000  Uiso   1.00
C278   C     0.17658   0.88010   0.40724   0.00000  Uiso   1.00
C279   C     0.16435   0.83329   0.11616   0.00000  Uiso   1.00
C280   C     0.16898   0.83338   0.38384   0.00000  Uiso   1.00
C281   C     0.17094   0.87998   0.09476   0.00000  Uiso   1.00
C282   C     0.16239   0.78669   0.40524   0.00000  Uiso   1.00
C283   C     0.18004   0.87960   0.04783   0.00000  Uiso   1.00
C284   C     0.15329   0.78707   0.45217   0.00000  Uiso   1.00
C285   C     0.16588   0.83329   0.02351   0.00000  Uiso   1.00
C286   C     0.16745   0.83338   0.47649   0.00000  Uiso   1.00
C287   C     0.15008   0.78694   0.04638   0.00000  Uiso   1.00
C288   C     0.15192   0.73532   0.25095   0.00000  Uiso   1.00
C289   C     0.18325   0.87972   0.45362   0.00000  Uiso   1.00
C290   C     0.20458   0.92278   0.02467   0.00000  Uiso   1.00
C291   C     0.12876   0.74389   0.47533   0.00000  Uiso   1.00
C292   C     0.20610   0.92293   0.47767   0.00000  Uiso   1.00
C293   C     0.12723   0.74373   0.02233   0.00000  Uiso   1.00
C294   C     0.18790   0.98465   0.24214   0.00000  Uiso   1.00
C295   C     0.14543   0.68202   0.25786   0.00000  Uiso   1.00
C296   C     0.16731   0.83327   0.33622   0.00000  Uiso   1.00
C297   C     0.16602   0.83339   0.16378   0.00000  Uiso   1.00
C298   C     0.15675   0.78657   0.09276   0.00000  Uiso   1.00
Cl299  Cl    0.16197   0.72943   0.12250   0.00000  Uiso   1.00
Cl300  Cl    0.08549   0.99663   0.29500   0.00000  Uiso   1.00
Cl301  Cl    0.01393   0.77712   0.19820   0.00000  Uiso   1.00
Cl302  Cl    0.31940   0.88955   0.30180   0.00000  Uiso   1.00
Cl303  Cl    0.17135   0.93723   0.37750   0.00000  Uiso   1.00
Cl304  Cl    0.15972   0.93700   0.12773   0.00000  Uiso   1.00
Cl305  Cl    0.17361   0.72966   0.37227   0.00000  Uiso   1.00
Cl306  Cl    0.24358   0.97307   0.05256   0.00000  Uiso   1.00
Cl307  Cl    0.08974   0.69360   0.44744   0.00000  Uiso   1.00
Cl308  Cl    0.24611   0.97410   0.45023   0.00000  Uiso   1.00
Cl309  Cl    0.08722   0.69257   0.04977   0.00000  Uiso   1.00
Cl310  Cl    0.24785   0.67004   0.20500   0.00000  Uiso   1.00
N311   N     0.31678   0.81932   0.23783   0.00000  Uiso   1.00
N312   N     0.01656   0.84735   0.26217   0.00000  Uiso   1.00
O313   O     0.12975   0.91286   0.25299   0.00000  Uiso   1.00
O314   O     0.20358   0.75381   0.24702   0.00000  Uiso   1.00
O315   O     0.22613   0.90387   0.24519   0.00000  Uiso   1.00
O316   O     0.10720   0.76279   0.25482   0.00000  Uiso   1.00
O317   O     0.11847   0.83784   0.31998   0.00000  Uiso   1.00
O318   O     0.21486   0.82883   0.18003   0.00000  Uiso   1.00
O319   O     0.21485   0.82885   0.31218   0.00000  Uiso   1.00
O320   O     0.11848   0.83781   0.18783   0.00000  Uiso   1.00
Zn321  Zn    0.10231   0.83933   0.25521   0.00000  Uiso   1.00
Zn322  Zn    0.23102   0.82734   0.24479   0.00000  Uiso   1.00
C323   C     0.51475   0.93135   0.24905   0.00000  Uiso   1.00
C324   C     0.50991   0.88010   0.40724   0.00000  Uiso   1.00
C325   C     0.49768   0.83329   0.11616   0.00000  Uiso   1.00
C326   C     0.50232   0.83338   0.38384   0.00000  Uiso   1.00
C327   C     0.50428   0.87998   0.09476   0.00000  Uiso   1.00
C328   C     0.49573   0.78669   0.40524   0.00000  Uiso   1.00
C329   C     0.51338   0.87960   0.04783   0.00000  Uiso   1.00
C330   C     0.48663   0.78707   0.45217   0.00000  Uiso   1.00
C331   C     0.49921   0.83329   0.02351   0.00000  Uiso   1.00
C332   C     0.50079   0.83338   0.47649   0.00000  Uiso   1.00
C333   C     0.48342   0.78694   0.04638   0.00000  Uiso   1.00
C334   C     0.48525   0.73532   0.25095   0.00000  Uiso   1.00
C335   C     0.51658   0.87972   0.45362   0.00000  Uiso   1.00
C336   C     0.53791   0.92278   0.02467   0.00000  Uiso   1.00
C337   C     0.46209   0.74389   0.47533   0.00000  Uiso   1.00
C338   C     0.53943   0.92293   0.47767   0.00000  Uiso   1.00
C339   C     0.46057   0.74373   0.02233   0.00000  Uiso   1.00
C340   C     0.52123   0.98465   0.24214   0.00000  Uiso   1.00
C341   C     0.47877   0.68202   0.25786   0.00000  Uiso   1.00
C342   C     0.50065   0.83327   0.33622   0.00000  Uiso   1.00
C343   C     0.49935   0.83339   0.16378   0.00000  Uiso   1.00
C344   C     0.49009   0.78657   0.09276   0.00000  Uiso   1.00
Cl345  Cl    0.49531   0.72943   0.12250   0.00000  Uiso   1.00
Cl346  Cl    0.41882   0.99663   0.29500   0.00000  Uiso   1.00
Cl347  Cl    0.34726   0.77712   0.19820   0.00000  Uiso   1.00
Cl348  Cl    0.65274   0.88955   0.30180   0.00000  Uiso   1.00
Cl349  Cl    0.50468   0.93723   0.37750   0.00000  Uiso   1.00
Cl350  Cl    0.49305   0.93700   0.12773   0.00000  Uiso   1.00
Cl351  Cl    0.50694   0.72966   0.37227   0.00000  Uiso   1.00
Cl352  Cl    0.57692   0.97307   0.05256   0.00000  Uiso   1.00
Cl353  Cl    0.42308   0.69360   0.44744   0.00000  Uiso   1.00
Cl354  Cl    0.57944   0.97410   0.45023   0.00000  Uiso   1.00
Cl355  Cl    0.42055   0.69257   0.04977   0.00000  Uiso   1.00
Cl356  Cl    0.58118   0.67004   0.20500   0.00000  Uiso   1.00
N357   N     0.65011   0.81932   0.23783   0.00000  Uiso   1.00
N358   N     0.34989   0.84735   0.26217   0.00000  Uiso   1.00
O359   O     0.46308   0.91286   0.25299   0.00000  Uiso   1.00
O360   O     0.53692   0.75381   0.24702   0.00000  Uiso   1.00
O361   O     0.55946   0.90387   0.24519   0.00000  Uiso   1.00
O362   O     0.44054   0.76279   0.25482   0.00000  Uiso   1.00
O363   O     0.45181   0.83784   0.31998   0.00000  Uiso   1.00
O364   O     0.54819   0.82883   0.18003   0.00000  Uiso   1.00
O365   O     0.54819   0.82885   0.31218   0.00000  Uiso   1.00
O366   O     0.45181   0.83781   0.18783   0.00000  Uiso   1.00
Zn367  Zn    0.43565   0.83933   0.25521   0.00000  Uiso   1.00
Zn368  Zn    0.56435   0.82734   0.24479   0.00000  Uiso   1.00
C369   C     0.84808   0.93135   0.24905   0.00000  Uiso   1.00
C370   C     0.84324   0.88010   0.40724   0.00000  Uiso   1.00
C371   C     0.83101   0.83329   0.11616   0.00000  Uiso   1.00
C372   C     0.83565   0.83338   0.38384   0.00000  Uiso   1.00
C373   C     0.83761   0.87998   0.09476   0.00000  Uiso   1.00
C374   C     0.82906   0.78669   0.40524   0.00000  Uiso   1.00
C375   C     0.84671   0.87960   0.04783   0.00000  Uiso   1.00
C376   C     0.81996   0.78707   0.45217   0.00000  Uiso   1.00
C377   C     0.83255   0.83329   0.02351   0.00000  Uiso   1.00
C378   C     0.83412   0.83338   0.47649   0.00000  Uiso   1.00
C379   C     0.81675   0.78694   0.04638   0.00000  Uiso   1.00
C380   C     0.81858   0.73532   0.25095   0.00000  Uiso   1.00
C381   C     0.84992   0.87972   0.45362   0.00000  Uiso   1.00
C382   C     0.87124   0.92278   0.02467   0.00000  Uiso   1.00
C383   C     0.79542   0.74389   0.47533   0.00000  Uiso   1.00
C384   C     0.87277   0.92293   0.47767   0.00000  Uiso   1.00
C385   C     0.79390   0.74373   0.02233   0.00000  Uiso   1.00
C386   C     0.85456   0.98465   0.24214   0.00000  Uiso   1.00
C387   C     0.81210   0.68202   0.25786   0.00000  Uiso   1.00
C388   C     0.83398   0.83327   0.33622   0.00000  Uiso   1.00
C389   C     0.83269   0.83339   0.16378   0.00000  Uiso   1.00
C390   C     0.82342   0.78657   0.09276   0.00000  Uiso   1.00
Cl391  Cl    0.82864   0.72943   0.12250   0.00000  Uiso   1.00
Cl392  Cl    0.75215   0.99663   0.29500   0.00000  Uiso   1.00
Cl393  Cl    0.68060   0.77712   0.19820   0.00000  Uiso   1.00
Cl394  Cl    0.98607   0.88955   0.30180   0.00000  Uiso   1.00
Cl395  Cl    0.83801   0.93723   0.37750   0.00000  Uiso   1.00
Cl396  Cl    0.82639   0.93700   0.12773   0.00000  Uiso   1.00
Cl397  Cl    0.84028   0.72966   0.37227   0.00000  Uiso   1.00
Cl398  Cl    0.91025   0.97307   0.05256   0.00000  Uiso   1.00
Cl399  Cl    0.75641   0.69360   0.44744   0.00000  Uiso   1.00
Cl400  Cl    0.91278   0.97410   0.45023   0.00000  Uiso   1.00
Cl401  Cl    0.75389   0.69257   0.04977   0.00000  Uiso   1.00
Cl402  Cl    0.91451   0.67004   0.20500   0.00000  Uiso   1.00
N403   N     0.98344   0.81932   0.23783   0.00000  Uiso   1.00
N404   N     0.68322   0.84735   0.26217   0.00000  Uiso   1.00
O405   O     0.79642   0.91286   0.25299   0.00000  Uiso   1.00
O406   O     0.87025   0.75381   0.24702   0.00000  Uiso   1.00
O407   O     0.89280   0.90387   0.24519   0.00000  Uiso   1.00
O408   O     0.77387   0.76279   0.25482   0.00000  Uiso   1.00
O409   O     0.78514   0.83784   0.31998   0.00000  Uiso   1.00
O410   O     0.88153   0.82883   0.18003   0.00000  Uiso   1.00
O411   O     0.88152   0.82885   0.31218   0.00000  Uiso   1.00
O412   O     0.78515   0.83781   0.18783   0.00000  Uiso   1.00
Zn413  Zn    0.76898   0.83933   0.25521   0.00000  Uiso   1.00
Zn414  Zn    0.89769   0.82734   0.24479   0.00000  Uiso   1.00
C415   C     0.18142   0.26468   0.74905   0.00000  Uiso   1.00
C416   C     0.17658   0.21343   0.90724   0.00000  Uiso   1.00
C417   C     0.16435   0.16662   0.61616   0.00000  Uiso   1.00
C418   C     0.16898   0.16671   0.88384   0.00000  Uiso   1.00
C419   C     0.17094   0.21331   0.59476   0.00000  Uiso   1.00
C420   C     0.16239   0.12002   0.90524   0.00000  Uiso   1.00
C421   C     0.18004   0.21293   0.54783   0.00000  Uiso   1.00
C422   C     0.15329   0.12040   0.95217   0.00000  Uiso   1.00
C423   C     0.16588   0.16662   0.52351   0.00000  Uiso   1.00
C424   C     0.16745   0.16671   0.97649   0.00000  Uiso   1.00
C425   C     0.15008   0.12028   0.54638   0.00000  Uiso   1.00
C426   C     0.15192   0.06865   0.75095   0.00000  Uiso   1.00
C427   C     0.18325   0.21305   0.95362   0.00000  Uiso   1.00
C428   C     0.20458   0.25611   0.52467   0.00000  Uiso   1.00
C429   C     0.12876   0.07722   0.97533   0.00000  Uiso   1.00
C430   C     0.20610   0.25627   0.97767   0.00000  Uiso   1.00
C431   C     0.12723   0.07707   0.52233   0.00000  Uiso   1.00
C432   C     0.18790   0.31798   0.74214   0.00000  Uiso   1.00
C433   C     0.14543   0.01535   0.75786   0.00000  Uiso   1.00
C434   C     0.16731   0.16661   0.83622   0.00000  Uiso   1.00
C435   C     0.16602   0.16673   0.66378   0.00000  Uiso   1.00
C436   C     0.15675   0.11990   0.59276   0.00000  Uiso   1.00
Cl437  Cl    0.16197   0.06277   0.62250   0.00000  Uiso   1.00
Cl438  Cl    0.08549   0.32996   0.79500   0.00000  Uiso   1.00
Cl439  Cl    0.01393   0.11045   0.69820   0.00000  Uiso   1.00
Cl440  Cl    0.31940   0.22288   0.80180   0.00000  Uiso   1.00
Cl441  Cl    0.17135   0.27056   0.87750   0.00000  Uiso   1.00
Cl442  Cl    0.15972   0.27033   0.62773   0.00000  Uiso   1.00
Cl443  Cl    0.17361   0.06300   0.87227   0.00000  Uiso   1.00
Cl444  Cl    0.24358   0.30641   0.55256   0.00000  Uiso   1.00
Cl445  Cl    0.08974   0.02693   0.94744   0.00000  Uiso   1.00
Cl446  Cl    0.24611   0.30743   0.95023   0.00000  Uiso   1.00
Cl447  Cl    0.08722   0.02590   0.54977   0.00000  Uiso   1.00
Cl448  Cl    0.24785   0.00337   0.70500   0.00000  Uiso   1.00
N449   N     0.31678   0.15265   0.73783   0.00000  Uiso   1.00
N450   N     0.01656   0.18068   0.76217   0.00000  Uiso   1.00
O451   O     0.12975   0.24619   0.75299   0.00000  Uiso   1.00
O452   O     0.20358   0.08714   0.74702   0.00000  Uiso   1.00
O453   O     0.22613   0.23721   0.74519   0.00000  Uiso   1.00
O454   O     0.10720   0.09613   0.75482   0.00000  Uiso   1.00
O455   O     0.11847   0.17117   0.81998   0.00000  Uiso   1.00
O456   O     0.21486   0.16216   0.68003   0.00000  Uiso   1.00
O457   O     0.21485   0.16219   0.81218   0.00000  Uiso   1.00
O458   O     0.11848   0.17115   0.68783   0.00000  Uiso   1.00
Zn459  Zn    0.10231   0.17266   0.75521   0.00000  Uiso   1.00
Zn460  Zn    0.23102   0.16067   0.74479   0.00000  Uiso   1.00
C461   C     0.51475   0.26468   0.74905   0.00000  Uiso   1.00
C462   C     0.50991   0.21343   0.90724   0.00000  Uiso   1.00
C463   C     0.49768   0.16662   0.61616   0.00000  Uiso   1.00
C464   C     0.50232   0.16671   0.88384   0.00000  Uiso   1.00
C465   C     0.50428   0.21331   0.59476   0.00000  Uiso   1.00
C466   C     0.49573   0.12002   0.90524   0.00000  Uiso   1.00
C467   C     0.51338   0.21293   0.54783   0.00000  Uiso   1.00
C468   C     0.48663   0.12040   0.95217   0.00000  Uiso   1.00
C469   C     0.49921   0.16662   0.52351   0.00000  Uiso   1.00
C470   C     0.50079   0.16671   0.97649   0.00000  Uiso   1.00
C471   C     0.48342   0.12028   0.54638   0.00000  Uiso   1.00
C472   C     0.48525   0.06865   0.75095   0.00000  Uiso   1.00
C473   C     0.51658   0.21305   0.95362   0.00000  Uiso   1.00
C474   C     0.53791   0.25611   0.52467   0.00000  Uiso   1.00
C475   C     0.46209   0.07722   0.97533   0.00000  Uiso   1.00
C476   C     0.53943   0.25627   0.97767   0.00000  Uiso   1.00
C477   C     0.46057   0.07707   0.52233   0.00000  Uiso   1.00
C478   C     0.52123   0.31798   0.74214   0.00000  Uiso   1.00
C479   C     0.47877   0.01535   0.75786   0.00000  Uiso   1.00
C480   C     0.50065   0.16661   0.83622   0.00000  Uiso   1.00
C481   C     0.49935   0.16673   0.66378   0.00000  Uiso   1.00
C482   C     0.49009   0.11990   0.59276   0.00000  Uiso   1.00
Cl483  Cl    0.49531   0.06277   0.62250   0.00000  Uiso   1.00
Cl484  Cl    0.41882   0.32996   0.79500   0.00000  Uiso   1.00
Cl485  Cl    0.34726   0.11045   0.69820   0.00000  Uiso   1.00
Cl486  Cl    0.65274   0.22288   0.80180   0.00000  Uiso   1.00
Cl487  Cl    0.50468   0.27056   0.87750   0.00000  Uiso   1.00
Cl488  Cl    0.49305   0.27033   0.62773   0.00000  Uiso   1.00
Cl489  Cl    0.50694   0.06300   0.87227   0.00000  Uiso   1.00
Cl490  Cl    0.57692   0.30641   0.55256   0.00000  Uiso   1.00
Cl491  Cl    0.42308   0.02693   0.94744   0.00000  Uiso   1.00
Cl492  Cl    0.57944   0.30743   0.95023   0.00000  Uiso   1.00
Cl493  Cl    0.42055   0.02590   0.54977   0.00000  Uiso   1.00
Cl494  Cl    0.58118   0.00337   0.70500   0.00000  Uiso   1.00
N495   N     0.65011   0.15265   0.73783   0.00000  Uiso   1.00
N496   N     0.34989   0.18068   0.76217   0.00000  Uiso   1.00
O497   O     0.46308   0.24619   0.75299   0.00000  Uiso   1.00
O498   O     0.53692   0.08714   0.74702   0.00000  Uiso   1.00
O499   O     0.55946   0.23721   0.74519   0.00000  Uiso   1.00
O500   O     0.44054   0.09613   0.75482   0.00000  Uiso   1.00
O501   O     0.45181   0.17117   0.81998   0.00000  Uiso   1.00
O502   O     0.54819   0.16216   0.68003   0.00000  Uiso   1.00
O503   O     0.54819   0.16219   0.81218   0.00000  Uiso   1.00
O504   O     0.45181   0.17115   0.68783   0.00000  Uiso   1.00
Zn505  Zn    0.43565   0.17266   0.75521   0.00000  Uiso   1.00
Zn506  Zn    0.56435   0.16067   0.74479   0.00000  Uiso   1.00
C507   C     0.84808   0.26468   0.74905   0.00000  Uiso   1.00
C508   C     0.84324   0.21343   0.90724   0.00000  Uiso   1.00
C509   C     0.83101   0.16662   0.61616   0.00000  Uiso   1.00
C510   C     0.83565   0.16671   0.88384   0.00000  Uiso   1.00
C511   C     0.83761   0.21331   0.59476   0.00000  Uiso   1.00
C512   C     0.82906   0.12002   0.90524   0.00000  Uiso   1.00
C513   C     0.84671   0.21293   0.54783   0.00000  Uiso   1.00
C514   C     0.81996   0.12040   0.95217   0.00000  Uiso   1.00
C515   C     0.83255   0.16662   0.52351   0.00000  Uiso   1.00
C516   C     0.83412   0.16671   0.97649   0.00000  Uiso   1.00
C517   C     0.81675   0.12028   0.54638   0.00000  Uiso   1.00
C518   C     0.81858   0.06865   0.75095   0.00000  Uiso   1.00
C519   C     0.84992   0.21305   0.95362   0.00000  Uiso   1.00
C520   C     0.87124   0.25611   0.52467   0.00000  Uiso   1.00
C521   C     0.79542   0.07722   0.97533   0.00000  Uiso   1.00
C522   C     0.87277   0.25627   0.97767   0.00000  Uiso   1.00
C523   C     0.79390   0.07707   0.52233   0.00000  Uiso   1.00
C524   C     0.85456   0.31798   0.74214   0.00000  Uiso   1.00
C525   C     0.81210   0.01535   0.75786   0.00000  Uiso   1.00
C526   C     0.83398   0.16661   0.83622   0.00000  Uiso   1.00
C527   C     0.83269   0.16673   0.66378   0.00000  Uiso   1.00
C528   C     0.82342   0.11990   0.59276   0.00000  Uiso   1.00
Cl529  Cl    0.82864   0.06277   0.62250   0.00000  Uiso   1.00
Cl530  Cl    0.75215   0.32996   0.79500   0.00000  Uiso   1.00
Cl531  Cl    0.68060   0.11045   0.69820   0.00000  Uiso   1.00
Cl532  Cl    0.98607   0.22288   0.80180   0.00000  Uiso   1.00
Cl533  Cl    0.83801   0.27056   0.87750   0.00000  Uiso   1.00
Cl534  Cl    0.82639   0.27033   0.62773   0.00000  Uiso   1.00
Cl535  Cl    0.84028   0.06300   0.87227   0.00000  Uiso   1.00
Cl536  Cl    0.91025   0.30641   0.55256   0.00000  Uiso   1.00
Cl537  Cl    0.75641   0.02693   0.94744   0.00000  Uiso   1.00
Cl538  Cl    0.91278   0.30743   0.95023   0.00000  Uiso   1.00
Cl539  Cl    0.75389   0.02590   0.54977   0.00000  Uiso   1.00
Cl540  Cl    0.91451   0.00337   0.70500   0.00000  Uiso   1.00
N541   N     0.98344   0.15265   0.73783   0.00000  Uiso   1.00
N542   N     0.68322   0.18068   0.76217   0.00000  Uiso   1.00
O543   O     0.79642   0.24619   0.75299   0.00000  Uiso   1.00
O544   O     0.87025   0.08714   0.74702   0.00000  Uiso   1.00
O545   O     0.89280   0.23721   0.74519   0.00000  Uiso   1.00
O546   O     0.77387   0.09613   0.75482   0.00000  Uiso   1.00
O547   O     0.78514   0.17117   0.81998   0.00000  Uiso   1.00
O548   O     0.88153   0.16216   0.68003   0.00000  Uiso   1.00
O549   O     0.88152   0.16219   0.81218   0.00000  Uiso   1.00
O550   O     0.78515   0.17115   0.68783   0.00000  Uiso   1.00
Zn551  Zn    0.76898   0.17266   0.75521   0.00000  Uiso   1.00
Zn552  Zn    0.89769   0.16067   0.74479   0.00000  Uiso   1.00
C553   C     0.18142   0.59801   0.74905   0.00000  Uiso   1.00
C554   C     0.17658   0.54677   0.90724   0.00000  Uiso   1.00
C555   C     0.16435   0.49996   0.61616   0.00000  Uiso   1.00
C556   C     0.16898   0.50004   0.88384   0.00000  Uiso   1.00
C557   C     0.17094   0.54664   0.59476   0.00000  Uiso   1.00
C558   C     0.16239   0.45336   0.90524   0.00000  Uiso   1.00
C559   C     0.18004   0.54626   0.54783   0.00000  Uiso   1.00
C560   C     0.15329   0.45374   0.95217   0.00000  Uiso   1.00
C561   C     0.16588   0.49996   0.52351   0.00000  Uiso   1.00
C562   C     0.16745   0.50004   0.97649   0.00000  Uiso   1.00
C563   C     0.15008   0.45361   0.54638   0.00000  Uiso   1.00
C564   C     0.15192   0.40199   0.75095   0.00000  Uiso   1.00
C565   C     0.18325   0.54639   0.95362   0.00000  Uiso   1.00
C566   C     0.20458   0.58944   0.52467   0.00000  Uiso   1.00
C567   C     0.12876   0.41056   0.97533   0.00000  Uiso   1.00
C568   C     0.20610   0.58960   0.97767   0.00000  Uiso   1.00
C569   C     0.12723   0.41040   0.52233   0.00000  Uiso   1.00
C570   C     0.18790   0.65131   0.74214   0.00000  Uiso   1.00
C571   C     0.14543   0.34869   0.75786   0.00000  Uiso   1.00
C572   C     0.16731   0.49994   0.83622   0.00000  Uiso   1.00
C573   C     0.16602   0.50006   0.66378   0.00000  Uiso   1.00
C574   C     0.15675   0.45323   0.59276   0.00000  Uiso   1.00
Cl575  Cl    0.16197   0.39610   0.62250   0.00000  Uiso   1.00
Cl576  Cl    0.08549   0.66330   0.79500   0.00000  Uiso   1.00
Cl577  Cl    0.01393   0.44378   0.69820   0.00000  Uiso   1.00
Cl578  Cl    0.31940   0.55622   0.80180   0.00000  Uiso   1.00
Cl579  Cl    0.17135   0.60390   0.87750   0.00000  Uiso   1.00
Cl580  Cl    0.15972   0.60367   0.62773   0.00000  Uiso   1.00
Cl581  Cl    0.17361   0.39633   0.87227   0.00000  Uiso   1.00
Cl582  Cl    0.24358   0.63974   0.55256   0.00000  Uiso   1.00
Cl583  Cl    0.08974   0.36027   0.94744   0.00000  Uiso   1.00
Cl584  Cl    0.24611   0.64076   0.95023   0.00000  Uiso   1.00
Cl585  Cl    0.08722   0.35924   0.54977   0.00000  Uiso   1.00
Cl586  Cl    0.24785   0.33670   0.70500   0.00000  Uiso   1.00
N587   N     0.31678   0.48598   0.73783   0.00000  Uiso   1.00
N588   N     0.01656   0.51402   0.76217   0.00000  Uiso   1.00
O589   O     0.12975   0.57952   0.75299   0.00000  Uiso   1.00
O590   O     0.20358   0.42048   0.74702   0.00000  Uiso   1.00
O591   O     0.22613   0.57054   0.74519   0.00000  Uiso   1.00
O592   O     0.10720   0.42946   0.75482   0.00000  Uiso   1.00
O593   O     0.11847   0.50450   0.81998   0.00000  Uiso   1.00
O594   O     0.21486   0.49550   0.68003   0.00000  Uiso   1.00
O595   O     0.21485   0.49552   0.81218   0.00000  Uiso   1.00
O596   O     0.11848   0.50448   0.68783   0.00000  Uiso   1.00
Zn597  Zn    0.10231   0.50600   0.75521   0.00000  Uiso   1.00
Zn598  Zn    0.23102   0.49400   0.74479   0.00000  Uiso   1.00
C599   C     0.51475   0.59801   0.74905   0.00000  Uiso   1.00
C600   C     0.50991   0.54677   0.90724   0.00000  Uiso   1.00
C601   C     0.49768   0.49996   0.61616   0.00000  Uiso   1.00
C602   C     0.50232   0.50004   0.88384   0.00000  Uiso   1.00
C603   C     0.50428   0.54664   0.59476   0.00000  Uiso   1.00
C604   C     0.49573   0.45336   0.90524   0.00000  Uiso   1.00
C605   C     0.51338   0.54626   0.54783   0.00000  Uiso   1.00
C606   C     0.48663   0.45374   0.95217   0.00000  Uiso   1.00
C607   C     0.49921   0.49996   0.52351   0.00000  Uiso   1.00
C608   C     0.50079   0.50004   0.97649   0.00000  Uiso   1.00
C609   C     0.48342   0.45361   0.54638   0.00000  Uiso   1.00
C610   C     0.48525   0.40199   0.75095   0.00000  Uiso   1.00
C611   C     0.51658   0.54639   0.95362   0.00000  Uiso   1.00
C612   C     0.53791   0.58944   0.52467   0.00000  Uiso   1.00
C613   C     0.46209   0.41056   0.97533   0.00000  Uiso   1.00
C614   C     0.53943   0.58960   0.97767   0.00000  Uiso   1.00
C615   C     0.46057   0.41040   0.52233   0.00000  Uiso   1.00
C616   C     0.52123   0.65131   0.74214   0.00000  Uiso   1.00
C617   C     0.47877   0.34869   0.75786   0.00000  Uiso   1.00
C618   C     0.50065   0.49994   0.83622   0.00000  Uiso   1.00
C619   C     0.49935   0.50006   0.66378   0.00000  Uiso   1.00
C620   C     0.49009   0.45323   0.59276   0.00000  Uiso   1.00
Cl621  Cl    0.49531   0.39610   0.62250   0.00000  Uiso   1.00
Cl622  Cl    0.41882   0.66330   0.79500   0.00000  Uiso   1.00
Cl623  Cl    0.34726   0.44378   0.69820   0.00000  Uiso   1.00
Cl624  Cl    0.65274   0.55622   0.80180   0.00000  Uiso   1.00
Cl625  Cl    0.50468   0.60390   0.87750   0.00000  Uiso   1.00
Cl626  Cl    0.49305   0.60367   0.62773   0.00000  Uiso   1.00
Cl627  Cl    0.50694   0.39633   0.87227   0.00000  Uiso   1.00
Cl628  Cl    0.57692   0.63974   0.55256   0.00000  Uiso   1.00
Cl629  Cl    0.42308   0.36027   0.94744   0.00000  Uiso   1.00
Cl630  Cl    0.57944   0.64076   0.95023   0.00000  Uiso   1.00
Cl631  Cl    0.42055   0.35924   0.54977   0.00000  Uiso   1.00
Cl632  Cl    0.58118   0.33670   0.70500   0.00000  Uiso   1.00
N633   N     0.65011   0.48598   0.73783   0.00000  Uiso   1.00
N634   N     0.34989   0.51402   0.76217   0.00000  Uiso   1.00
O635   O     0.46308   0.57952   0.75299   0.00000  Uiso   1.00
O636   O     0.53692   0.42048   0.74702   0.00000  Uiso   1.00
O637   O     0.55946   0.57054   0.74519   0.00000  Uiso   1.00
O638   O     0.44054   0.42946   0.75482   0.00000  Uiso   1.00
O639   O     0.45181   0.50450   0.81998   0.00000  Uiso   1.00
O640   O     0.54819   0.49550   0.68003   0.00000  Uiso   1.00
O641   O     0.54819   0.49552   0.81218   0.00000  Uiso   1.00
O642   O     0.45181   0.50448   0.68783   0.00000  Uiso   1.00
Zn643  Zn    0.43565   0.50600   0.75521   0.00000  Uiso   1.00
Zn644  Zn    0.56435   0.49400   0.74479   0.00000  Uiso   1.00
C645   C     0.84808   0.59801   0.74905   0.00000  Uiso   1.00
C646   C     0.84324   0.54677   0.90724   0.00000  Uiso   1.00
C647   C     0.83101   0.49996   0.61616   0.00000  Uiso   1.00
C648   C     0.83565   0.50004   0.88384   0.00000  Uiso   1.00
C649   C     0.83761   0.54664   0.59476   0.00000  Uiso   1.00
C650   C     0.82906   0.45336   0.90524   0.00000  Uiso   1.00
C651   C     0.84671   0.54626   0.54783   0.00000  Uiso   1.00
C652   C     0.81996   0.45374   0.95217   0.00000  Uiso   1.00
C653   C     0.83255   0.49996   0.52351   0.00000  Uiso   1.00
C654   C     0.83412   0.50004   0.97649   0.00000  Uiso   1.00
C655   C     0.81675   0.45361   0.54638   0.00000  Uiso   1.00
C656   C     0.81858   0.40199   0.75095   0.00000  Uiso   1.00
C657   C     0.84992   0.54639   0.95362   0.00000  Uiso   1.00
C658   C     0.87124   0.58944   0.52467   0.00000  Uiso   1.00
C659   C     0.79542   0.41056   0.97533   0.00000  Uiso   1.00
C660   C     0.87277   0.58960   0.97767   0.00000  Uiso   1.00
C661   C     0.79390   0.41040   0.52233   0.00000  Uiso   1.00
C662   C     0.85456   0.65131   0.74214   0.00000  Uiso   1.00
C663   C     0.81210   0.34869   0.75786   0.00000  Uiso   1.00
C664   C     0.83398   0.49994   0.83622   0.00000  Uiso   1.00
C665   C     0.83269   0.50006   0.66378   0.00000  Uiso   1.00
C666   C     0.82342   0.45323   0.59276   0.00000  Uiso   1.00
Cl667  Cl    0.82864   0.39610   0.62250   0.00000  Uiso   1.00
Cl668  Cl    0.75215   0.66330   0.79500   0.00000  Uiso   1.00
Cl669  Cl    0.68060   0.44378   0.69820   0.00000  Uiso   1.00
Cl670  Cl    0.98607   0.55622   0.80180   0.00000  Uiso   1.00
Cl671  Cl    0.83801   0.60390   0.87750   0.00000  Uiso   1.00
Cl672  Cl    0.82639   0.60367   0.62773   0.00000  Uiso   1.00
Cl673  Cl    0.84028   0.39633   0.87227   0.00000  Uiso   1.00
Cl674  Cl    0.91025   0.63974   0.55256   0.00000  Uiso   1.00
Cl675  Cl    0.75641   0.36027   0.94744   0.00000  Uiso   1.00
Cl676  Cl    0.91278   0.64076   0.95023   0.00000  Uiso   1.00
Cl677  Cl    0.75389   0.35924   0.54977   0.00000  Uiso   1.00
Cl678  Cl    0.91451   0.33670   0.70500   0.00000  Uiso   1.00
N679   N     0.98344   0.48598   0.73783   0.00000  Uiso   1.00
N680   N     0.68322   0.51402   0.76217   0.00000  Uiso   1.00
O681   O     0.79642   0.57952   0.75299   0.00000  Uiso   1.00
O682   O     0.87025   0.42048   0.74702   0.00000  Uiso   1.00
O683   O     0.89280   0.57054   0.74519   0.00000  Uiso   1.00
O684   O     0.77387   0.42946   0.75482   0.00000  Uiso   1.00
O685   O     0.78514   0.50450   0.81998   0.00000  Uiso   1.00
O686   O     0.88153   0.49550   0.68003   0.00000  Uiso   1.00
O687   O     0.88152   0.49552   0.81218   0.00000  Uiso   1.00
O688   O     0.78515   0.50448   0.68783   0.00000  Uiso   1.00
Zn689  Zn    0.76898   0.50600   0.75521   0.00000  Uiso   1.00
Zn690  Zn    0.89769   0.49400   0.74479   0.00000  Uiso   1.00
C691   C     0.18142   0.93135   0.74905   0.00000  Uiso   1.00
C692   C     0.17658   0.88010   0.90724   0.00000  Uiso   1.00
C693   C     0.16435   0.83329   0.61616   0.00000  Uiso   1.00
C694   C     0.16898   0.83338   0.88384   0.00000  Uiso   1.00
C695   C     0.17094   0.87998   0.59476   0.00000  Uiso   1.00
C696   C     0.16239   0.78669   0.90524   0.00000  Uiso   1.00
C697   C     0.18004   0.87960   0.54783   0.00000  Uiso   1.00
C698   C     0.15329   0.78707   0.95217   0.00000  Uiso   1.00
C699   C     0.16588   0.83329   0.52351   0.00000  Uiso   1.00
C700   C     0.16745   0.83338   0.97649   0.00000  Uiso   1.00
C701   C     0.15008   0.78694   0.54638   0.00000  Uiso   1.00
C702   C     0.15192   0.73532   0.75095   0.00000  Uiso   1.00
C703   C     0.18325   0.87972   0.95362   0.00000  Uiso   1.00
C704   C     0.20458   0.92278   0.52467   0.00000  Uiso   1.00
C705   C     0.12876   0.74389   0.97533   0.00000  Uiso   1.00
C706   C     0.20610   0.92293   0.97767   0.00000  Uiso   1.00
C707   C     0.12723   0.74373   0.52233   0.00000  Uiso   1.00
C708   C     0.18790   0.98465   0.74214   0.00000  Uiso   1.00
C709   C     0.14543   0.68202   0.75786   0.00000  Uiso   1.00
C710   C     0.16731   0.83327   0.83622   0.00000  Uiso   1.00
C711   C     0.16602   0.83339   0.66378   0.00000  Uiso   1.00
C712   C     0.15675   0.78657   0.59276   0.00000  Uiso   1.00
Cl713  Cl    0.16197   0.72943   0.62250   0.00000  Uiso   1.00
Cl714  Cl    0.08549   0.99663   0.79500   0.00000  Uiso   1.00
Cl715  Cl    0.01393   0.77712   0.69820   0.00000  Uiso   1.00
Cl716  Cl    0.31940   0.88955   0.80180   0.00000  Uiso   1.00
Cl717  Cl    0.17135   0.93723   0.87750   0.00000  Uiso   1.00
Cl718  Cl    0.15972   0.93700   0.62773   0.00000  Uiso   1.00
Cl719  Cl    0.17361   0.72966   0.87227   0.00000  Uiso   1.00
Cl720  Cl    0.24358   0.97307   0.55256   0.00000  Uiso   1.00
Cl721  Cl    0.08974   0.69360   0.94744   0.00000  Uiso   1.00
Cl722  Cl    0.24611   0.97410   0.95023   0.00000  Uiso   1.00
Cl723  Cl    0.08722   0.69257   0.54977   0.00000  Uiso   1.00
Cl724  Cl    0.24785   0.67004   0.70500   0.00000  Uiso   1.00
N725   N     0.31678   0.81932   0.73783   0.00000  Uiso   1.00
N726   N     0.01656   0.84735   0.76217   0.00000  Uiso   1.00
O727   O     0.12975   0.91286   0.75299   0.00000  Uiso   1.00
O728   O     0.20358   0.75381   0.74702   0.00000  Uiso   1.00
O729   O     0.22613   0.90387   0.74519   0.00000  Uiso   1.00
O730   O     0.10720   0.76279   0.75482   0.00000  Uiso   1.00
O731   O     0.11847   0.83784   0.81998   0.00000  Uiso   1.00
O732   O     0.21486   0.82883   0.68003   0.00000  Uiso   1.00
O733   O     0.21485   0.82885   0.81218   0.00000  Uiso   1.00
O734   O     0.11848   0.83781   0.68783   0.00000  Uiso   1.00
Zn735  Zn    0.10231   0.83933   0.75521   0.00000  Uiso   1.00
Zn736  Zn    0.23102   0.82734   0.74479   0.00000  Uiso   1.00
C737   C     0.51475   0.93135   0.74905   0.00000  Uiso   1.00
C738   C     0.50991   0.88010   0.90724   0.00000  Uiso   1.00
C739   C     0.49768   0.83329   0.61616   0.00000  Uiso   1.00
C740   C     0.50232   0.83338   0.88384   0.00000  Uiso   1.00
C741   C     0.50428   0.87998   0.59476   0.00000  Uiso   1.00
C742   C     0.49573   0.78669   0.90524   0.00000  Uiso   1.00
C743   C     0.51338   0.87960   0.54783   0.00000  Uiso   1.00
C744   C     0.48663   0.78707   0.95217   0.00000  Uiso   1.00
C745   C     0.49921   0.83329   0.52351   0.00000  Uiso   1.00
C746   C     0.50079   0.83338   0.97649   0.00000  Uiso   1.00
C747   C     0.48342   0.78694   0.54638   0.00000  Uiso   1.00
C748   C     0.48525   0.73532   0.75095   0.00000  Uiso   1.00
C749   C     0.51658   0.87972   0.95362   0.00000  Uiso   1.00
C750   C     0.53791   0.92278   0.52467   0.00000  Uiso   1.00
C751   C     0.46209   0.74389   0.97533   0.00000  Uiso   1.00
C752   C     0.53943   0.92293   0.97767   0.00000  Uiso   1.00
C753   C     0.46057   0.74373   0.52233   0.00000  Uiso   1.00
C754   C     0.52123   0.98465   0.74214   0.00000  Uiso   1.00
C755   C     0.47877   0.68202   0.75786   0.00000  Uiso   1.00
C756   C     0.50065   0.83327   0.83622   0.00000  Uiso   1.00
C757   C     0.49935   0.83339   0.66378   0.00000  Uiso   1.00
C758   C     0.49009   0.78657   0.59276   0.00000  Uiso   1.00
Cl759  Cl    0.49531   0.72943   0.62250   0.00000  Uiso   1.00
Cl760  Cl    0.41882   0.99663   0.79500   0.00000  Uiso   1.00
Cl761  Cl    0.34726   0.77712   0.69820   0.00000  Uiso   1.00
Cl762  Cl    0.65274   0.88955   0.80180   0.00000  Uiso   1.00
Cl763  Cl    0.50468   0.93723   0.87750   0.00000  Uiso   1.00
Cl764  Cl    0.49305   0.93700   0.62773   0.00000  Uiso   1.00
Cl765  Cl    0.50694   0.72966   0.87227   0.00000  Uiso   1.00
Cl766  Cl    0.57692   0.97307   0.55256   0.00000  Uiso   1.00
Cl767  Cl    0.42308   0.69360   0.94744   0.00000  Uiso   1.00
Cl768  Cl    0.57944   0.97410   0.95023   0.00000  Uiso   1.00
Cl769  Cl    0.42055   0.69257   0.54977   0.00000  Uiso   1.00
Cl770  Cl    0.58118   0.67004   0.70500   0.00000  Uiso   1.00
N771   N     0.65011   0.81932   0.73783   0.00000  Uiso   1.00
N772   N     0.34989   0.84735   0.76217   0.00000  Uiso   1.00
O773   O     0.46308   0.91286   0.75299   0.00000  Uiso   1.00
O774   O     0.53692   0.75381   0.74702   0.00000  Uiso   1.00
O775   O     0.55946   0.90387   0.74519   0.00000  Uiso   1.00
O776   O     0.44054   0.76279   0.75482   0.00000  Uiso   1.00
O777   O     0.45181   0.83784   0.81998   0.00000  Uiso   1.00
O778   O     0.54819   0.82883   0.68003   0.00000  Uiso   1.00
O779   O     0.54819   0.82885   0.81218   0.00000  Uiso   1.00
O780   O     0.45181   0.83781   0.68783   0.00000  Uiso   1.00
Zn781  Zn    0.43565   0.83933   0.75521   0.00000  Uiso   1.00
Zn782  Zn    0.56435   0.82734   0.74479   0.00000  Uiso   1.00
C783   C     0.84808   0.93135   0.74905   0.00000  Uiso   1.00
C784   C     0.84324   0.88010   0.90724   0.00000  Uiso   1.00
C785   C     0.83101   0.83329   0.61616   0.00000  Uiso   1.00
C786   C     0.83565   0.83338   0.88384   0.00000  Uiso   1.00
C787   C     0.83761   0.87998   0.59476   0.00000  Uiso   1.00
C788   C     0.82906   0.78669   0.90524   0.00000  Uiso   1.00
C789   C     0.84671   0.87960   0.54783   0.00000  Uiso   1.00
C790   C     0.81996   0.78707   0.95217   0.00000  Uiso   1.00
C791   C     0.83255   0.83329   0.52351   0.00000  Uiso   1.00
C792   C     0.83412   0.83338   0.97649   0.00000  Uiso   1.00
C793   C     0.81675   0.78694   0.54638   0.00000  Uiso   1.00
C794   C     0.81858   0.73532   0.75095   0.00000  Uiso   1.00
C795   C     0.84992   0.87972   0.95362   0.00000  Uiso   1.00
C796   C     0.87124   0.92278   0.52467   0.00000  Uiso   1.00
C797   C     0.79542   0.74389   0.97533   0.00000  Uiso   1.00
C798   C     0.87277   0.92293   0.97767   0.00000  Uiso   1.00
C799   C     0.79390   0.74373   0.52233   0.00000  Uiso   1.00
C800   C     0.85456   0.98465   0.74214   0.00000  Uiso   1.00
C801   C     0.81210   0.68202   0.75786   0.00000  Uiso   1.00
C802   C     0.83398   0.83327   0.83622   0.00000  Uiso   1.00
C803   C     0.83269   0.83339   0.66378   0.00000  Uiso   1.00
C804   C     0.82342   0.78657   0.59276   0.00000  Uiso   1.00
Cl805  Cl    0.82864   0.72943   0.62250   0.00000  Uiso   1.00
Cl806  Cl    0.75215   0.99663   0.79500   0.00000  Uiso   1.00
Cl807  Cl    0.68060   0.77712   0.69820   0.00000  Uiso   1.00
Cl808  Cl    0.98607   0.88955   0.80180   0.00000  Uiso   1.00
Cl809  Cl    0.83801   0.93723   0.87750   0.00000  Uiso   1.00
Cl810  Cl    0.82639   0.93700   0.62773   0.00000  Uiso   1.00
Cl811  Cl    0.84028   0.72966   0.87227   0.00000  Uiso   1.00
Cl812  Cl    0.91025   0.97307   0.55256   0.00000  Uiso   1.00
Cl813  Cl    0.75641   0.69360   0.94744   0.00000  Uiso   1.00
Cl814  Cl    0.91278   0.97410   0.95023   0.00000  Uiso   1.00
Cl815  Cl    0.75389   0.69257   0.54977   0.00000  Uiso   1.00
Cl816  Cl    0.91451   0.67004   0.70500   0.00000  Uiso   1.00
N817   N     0.98344   0.81932   0.73783   0.00000  Uiso   1.00
N818   N     0.68322   0.84735   0.76217   0.00000  Uiso   1.00
O819   O     0.79642   0.91286   0.75299   0.00000  Uiso   1.00
O820   O     0.87025   0.75381   0.74702   0.00000  Uiso   1.00
O821   O     0.89280   0.90387   0.74519   0.00000  Uiso   1.00
O822   O     0.77387   0.76279   0.75482   0.00000  Uiso   1.00
O823   O     0.78514   0.83784   0.81998   0.00000  Uiso   1.00
O824   O     0.88153   0.82883   0.68003   0.00000  Uiso   1.00
O825   O     0.88152   0.82885   0.81218   0.00000  Uiso   1.00
O826   O     0.78515   0.83781   0.68783   0.00000  Uiso   1.00
Zn827  Zn    0.76898   0.83933   0.75521   0.00000  Uiso   1.00
Zn828  Zn    0.89769   0.82734   0.74479   0.00000  Uiso   1.00
loop_
_geom_bond_atom_site_label_1
_geom_bond_atom_site_label_2
_geom_bond_distance
_geom_bond_site_symmetry_2
_ccdc_geom_bond_type
C1     O37     1.280   .     A
C1     C18     1.408   .     S
C1     O39     1.295   .     A
C2     C4      1.390   .     A
C2     Cl27    1.771   .     S
C2     C13     1.402   .     A
C3     C21     1.421   .     S
C3     C22     1.390   .     A
C3     C5      1.388   .     A
C4     C6      1.388   .     A
C4     C20     1.421   .     S
C5     Cl28    1.770   .     S
C5     C7      1.398   .     A
C6     Cl29    1.770   .     S
C6     C8      1.398   .     A
C7     C9      1.421   .     A
C7     C14     1.413   .     A
C8     C15     1.414   .     A
C8     C10     1.421   .     A
C9     C11     1.424   .     A
C9     C424    1.398   1_554 S
C10    C13     1.424   .     A
C10    C423    1.398   .     S
C11    C22     1.402   .     A
C11    C17     1.415   .     A
C12    O40     1.295   .     A
C12    C19     1.408   .     S
C12    O38     1.280   .     A
C13    C16     1.415   .     A
C14    Cl30    1.776   .     S
C14    C430    1.397   1_554 S
C15    Cl31    1.776   .     S
C15    C431    1.397   .     S
C16    Cl32    1.776   .     S
C16    C428    1.397   .     S
C17    Cl33    1.776   .     S
C17    C429    1.397   1_554 S
C18    C157    1.354   .     S
C18    Cl172   1.781   .     S
C19    C294    1.354   1_545 S
C19    Cl300   1.781   1_545 S
C20    O41     1.289   .     A
C20    O43     1.287   .     A
C21    O44     1.287   .     A
C21    O42     1.289   .     A
C22    Cl23    1.771   .     S
Cl24   C157    1.781   .     S
Cl25   N127    1.724   1_455 S
Cl26   N82     1.724   .     S
Cl34   C294    1.781   1_545 S
N35    Zn46    2.028   .     S
N35    Cl71    1.724   .     S
N35    N82     1.285   .     S
N36    Zn45    2.028   .     S
N36    N127    1.285   1_455 S
N36    Cl118   1.724   1_455 S
O37    Zn45    1.989   .     S
O38    Zn46    1.989   .     S
O39    Zn46    2.000   .     S
O40    Zn45    2.000   .     S
O41    Zn45    1.995   .     S
O42    Zn46    1.995   .     S
O43    Zn46    2.013   .     S
O44    Zn45    2.013   .     S
C47    O83     1.280   .     A
C47    C64     1.408   .     S
C47    O85     1.295   .     A
C48    C50     1.390   .     A
C48    Cl73    1.771   .     S
C48    C59     1.402   .     A
C49    C67     1.421   .     S
C49    C68     1.390   .     A
C49    C51     1.388   .     A
C50    C52     1.388   .     A
C50    C66     1.421   .     S
C51    Cl74    1.770   .     S
C51    C53     1.398   .     A
C52    Cl75    1.770   .     S
C52    C54     1.398   .     A
C53    C55     1.421   .     A
C53    C60     1.413   .     A
C54    C61     1.414   .     A
C54    C56     1.421   .     A
C55    C57     1.424   .     A
C55    C470    1.398   1_554 S
C56    C59     1.424   .     A
C56    C469    1.398   .     S
C57    C68     1.402   .     A
C57    C63     1.415   .     A
C58    O86     1.295   .     A
C58    C65     1.408   .     S
C58    O84     1.280   .     A
C59    C62     1.415   .     A
C60    Cl76    1.776   .     S
C60    C476    1.397   1_554 S
C61    Cl77    1.776   .     S
C61    C477    1.397   .     S
C62    Cl78    1.776   .     S
C62    C474    1.397   .     S
C63    Cl79    1.776   .     S
C63    C475    1.397   1_554 S
C64    C203    1.354   .     S
C64    Cl218   1.781   .     S
C65    C340    1.354   1_545 S
C65    Cl346   1.781   1_545 S
C66    O87     1.289   .     A
C66    O89     1.287   .     A
C67    O90     1.287   .     A
C67    O88     1.289   .     A
C68    Cl69    1.771   .     S
Cl70   C203    1.781   .     S
Cl72   N128    1.724   .     S
Cl80   C340    1.781   1_545 S
N81    Zn92    2.028   .     S
N81    Cl117   1.724   .     S
N81    N128    1.285   .     S
N82    Zn91    2.028   .     S
O83    Zn91    1.989   .     S
O84    Zn92    1.989   .     S
O85    Zn92    2.000   .     S
O86    Zn91    2.000   .     S
O87    Zn91    1.995   .     S
O88    Zn92    1.995   .     S
O89    Zn92    2.013   .     S
O90    Zn91    2.013   .     S
C93    O129    1.280   .     A
C93    C110    1.408   .     S
C93    O131    1.295   .     A
C94    C96     1.390   .     A
C94    Cl119   1.771   .     S
C94    C105    1.402   .     A
C95    C113    1.421   .     S
C95    C114    1.390   .     A
C95    C97     1.388   .     A
C96    C98     1.388   .     A
C96    C112    1.421   .     S
C97    Cl120   1.770   .     S
C97    C99     1.398   .     A
C98    Cl121   1.770   .     S
C98    C100    1.398   .     A
C99    C101    1.421   .     A
C99    C106    1.413   .     A
C100   C107    1.414   .     A
C100   C102    1.421   .     A
C101   C103    1.424   .     A
C101   C516    1.398   1_554 S
C102   C105    1.424   .     A
C102   C515    1.398   .     S
C103   C114    1.402   .     A
C103   C109    1.415   .     A
C104   O132    1.295   .     A
C104   C111    1.408   .     S
C104   O130    1.280   .     A
C105   C108    1.415   .     A
C106   Cl122   1.776   .     S
C106   C522    1.397   1_554 S
C107   Cl123   1.776   .     S
C107   C523    1.397   .     S
C108   Cl124   1.776   .     S
C108   C520    1.397   .     S
C109   Cl125   1.776   .     S
C109   C521    1.397   1_554 S
C110   C249    1.354   .     S
C110   Cl264   1.781   .     S
C111   C386    1.354   1_545 S
C111   Cl392   1.781   1_545 S
C112   O133    1.289   .     A
C112   O135    1.287   .     A
C113   O136    1.287   .     A
C113   O134    1.289   .     A
C114   Cl115   1.771   .     S
Cl116  C249    1.781   .     S
Cl118  N36     1.724   1_655 S
Cl126  C386    1.781   1_545 S
N127   Zn138   2.028   .     S
N127   Cl25    1.724   1_655 S
N127   N36     1.285   1_655 S
N128   Zn137   2.028   .     S
O129   Zn137   1.989   .     S
O130   Zn138   1.989   .     S
O131   Zn138   2.000   .     S
O132   Zn137   2.000   .     S
O133   Zn137   1.995   .     S
O134   Zn138   1.995   .     S
O135   Zn138   2.013   .     S
O136   Zn137   2.013   .     S
C139   O175    1.280   .     A
C139   C156    1.408   .     S
C139   O177    1.295   .     A
C140   C142    1.390   .     A
C140   Cl165   1.771   .     S
C140   C151    1.402   .     A
C141   C159    1.421   .     S
C141   C160    1.390   .     A
C141   C143    1.388   .     A
C142   C144    1.388   .     A
C142   C158    1.421   .     S
C143   Cl166   1.770   .     S
C143   C145    1.398   .     A
C144   Cl167   1.770   .     S
C144   C146    1.398   .     A
C145   C147    1.421   .     A
C145   C152    1.413   .     A
C146   C153    1.414   .     A
C146   C148    1.421   .     A
C147   C149    1.424   .     A
C147   C562    1.398   1_554 S
C148   C151    1.424   .     A
C148   C561    1.398   .     S
C149   C160    1.402   .     A
C149   C155    1.415   .     A
C150   O178    1.295   .     A
C150   C157    1.408   .     S
C150   O176    1.280   .     A
C151   C154    1.415   .     A
C152   Cl168   1.776   .     S
C152   C568    1.397   1_554 S
C153   Cl169   1.776   .     S
C153   C569    1.397   .     S
C154   Cl170   1.776   .     S
C154   C566    1.397   .     S
C155   Cl171   1.776   .     S
C155   C567    1.397   1_554 S
C156   C295    1.354   .     S
C156   Cl310   1.781   .     S
C158   O179    1.289   .     A
C158   O181    1.287   .     A
C159   O182    1.287   .     A
C159   O180    1.289   .     A
C160   Cl161   1.771   .     S
Cl162  C295    1.781   .     S
Cl163  N265    1.724   1_455 S
Cl164  N220    1.724   .     S
N173   Zn184   2.028   .     S
N173   Cl209   1.724   .     S
N173   N220    1.285   .     S
N174   Zn183   2.028   .     S
N174   N265    1.285   1_455 S
N174   Cl256   1.724   1_455 S
O175   Zn183   1.989   .     S
O176   Zn184   1.989   .     S
O177   Zn184   2.000   .     S
O178   Zn183   2.000   .     S
O179   Zn183   1.995   .     S
O180   Zn184   1.995   .     S
O181   Zn184   2.013   .     S
O182   Zn183   2.013   .     S
C185   O221    1.280   .     A
C185   C202    1.408   .     S
C185   O223    1.295   .     A
C186   C188    1.390   .     A
C186   Cl211   1.771   .     S
C186   C197    1.402   .     A
C187   C205    1.421   .     S
C187   C206    1.390   .     A
C187   C189    1.388   .     A
C188   C190    1.388   .     A
C188   C204    1.421   .     S
C189   Cl212   1.770   .     S
C189   C191    1.398   .     A
C190   Cl213   1.770   .     S
C190   C192    1.398   .     A
C191   C193    1.421   .     A
C191   C198    1.413   .     A
C192   C199    1.414   .     A
C192   C194    1.421   .     A
C193   C195    1.424   .     A
C193   C608    1.398   1_554 S
C194   C197    1.424   .     A
C194   C607    1.398   .     S
C195   C206    1.402   .     A
C195   C201    1.415   .     A
C196   O224    1.295   .     A
C196   C203    1.408   .     S
C196   O222    1.280   .     A
C197   C200    1.415   .     A
C198   Cl214   1.776   .     S
C198   C614    1.397   1_554 S
C199   Cl215   1.776   .     S
C199   C615    1.397   .     S
C200   Cl216   1.776   .     S
C200   C612    1.397   .     S
C201   Cl217   1.776   .     S
C201   C613    1.397   1_554 S
C202   C341    1.354   .     S
C202   Cl356   1.781   .     S
C204   O225    1.289   .     A
C204   O227    1.287   .     A
C205   O228    1.287   .     A
C205   O226    1.289   .     A
C206   Cl207   1.771   .     S
Cl208  C341    1.781   .     S
Cl210  N266    1.724   .     S
N219   Zn230   2.028   .     S
N219   Cl255   1.724   .     S
N219   N266    1.285   .     S
N220   Zn229   2.028   .     S
O221   Zn229   1.989   .     S
O222   Zn230   1.989   .     S
O223   Zn230   2.000   .     S
O224   Zn229   2.000   .     S
O225   Zn229   1.995   .     S
O226   Zn230   1.995   .     S
O227   Zn230   2.013   .     S
O228   Zn229   2.013   .     S
C231   O267    1.280   .     A
C231   C248    1.408   .     S
C231   O269    1.295   .     A
C232   C234    1.390   .     A
C232   Cl257   1.771   .     S
C232   C243    1.402   .     A
C233   C251    1.421   .     S
C233   C252    1.390   .     A
C233   C235    1.388   .     A
C234   C236    1.388   .     A
C234   C250    1.421   .     S
C235   Cl258   1.770   .     S
C235   C237    1.398   .     A
C236   Cl259   1.770   .     S
C236   C238    1.398   .     A
C237   C239    1.421   .     A
C237   C244    1.413   .     A
C238   C245    1.414   .     A
C238   C240    1.421   .     A
C239   C241    1.424   .     A
C239   C654    1.398   1_554 S
C240   C243    1.424   .     A
C240   C653    1.398   .     S
C241   C252    1.402   .     A
C241   C247    1.415   .     A
C242   O270    1.295   .     A
C242   C249    1.408   .     S
C242   O268    1.280   .     A
C243   C246    1.415   .     A
C244   Cl260   1.776   .     S
C244   C660    1.397   1_554 S
C245   Cl261   1.776   .     S
C245   C661    1.397   .     S
C246   Cl262   1.776   .     S
C246   C658    1.397   .     S
C247   Cl263   1.776   .     S
C247   C659    1.397   1_554 S
C248   C387    1.354   .     S
C248   Cl402   1.781   .     S
C250   O271    1.289   .     A
C250   O273    1.287   .     A
C251   O274    1.287   .     A
C251   O272    1.289   .     A
C252   Cl253   1.771   .     S
Cl254  C387    1.781   .     S
Cl256  N174    1.724   1_655 S
N265   Zn276   2.028   .     S
N265   Cl163   1.724   1_655 S
N265   N174    1.285   1_655 S
N266   Zn275   2.028   .     S
O267   Zn275   1.989   .     S
O268   Zn276   1.989   .     S
O269   Zn276   2.000   .     S
O270   Zn275   2.000   .     S
O271   Zn275   1.995   .     S
O272   Zn276   1.995   .     S
O273   Zn276   2.013   .     S
O274   Zn275   2.013   .     S
C277   O313    1.280   .     A
C277   C294    1.408   .     S
C277   O315    1.295   .     A
C278   C280    1.390   .     A
C278   Cl303   1.771   .     S
C278   C289    1.402   .     A
C279   C297    1.421   .     S
C279   C298    1.390   .     A
C279   C281    1.388   .     A
C280   C282    1.388   .     A
C280   C296    1.421   .     S
C281   Cl304   1.770   .     S
C281   C283    1.398   .     A
C282   Cl305   1.770   .     S
C282   C284    1.398   .     A
C283   C285    1.421   .     A
C283   C290    1.413   .     A
C284   C291    1.414   .     A
C284   C286    1.421   .     A
C285   C287    1.424   .     A
C285   C700    1.398   1_554 S
C286   C289    1.424   .     A
C286   C699    1.398   .     S
C287   C298    1.402   .     A
C287   C293    1.415   .     A
C288   O316    1.295   .     A
C288   C295    1.408   .     S
C288   O314    1.280   .     A
C289   C292    1.415   .     A
C290   Cl306   1.776   .     S
C290   C706    1.397   1_554 S
C291   Cl307   1.776   .     S
C291   C707    1.397   .     S
C292   Cl308   1.776   .     S
C292   C704    1.397   .     S
C293   Cl309   1.776   .     S
C293   C705    1.397   1_554 S
C294   C19     1.354   1_565 S
C294   Cl34    1.781   1_565 S
C296   O317    1.289   .     A
C296   O319    1.287   .     A
C297   O320    1.287   .     A
C297   O318    1.289   .     A
C298   Cl299   1.771   .     S
Cl300  C19     1.781   1_565 S
Cl301  N403    1.724   1_455 S
Cl302  N358    1.724   .     S
N311   Zn322   2.028   .     S
N311   Cl347   1.724   .     S
N311   N358    1.285   .     S
N312   Zn321   2.028   .     S
N312   N403    1.285   1_455 S
N312   Cl394   1.724   1_455 S
O313   Zn321   1.989   .     S
O314   Zn322   1.989   .     S
O315   Zn322   2.000   .     S
O316   Zn321   2.000   .     S
O317   Zn321   1.995   .     S
O318   Zn322   1.995   .     S
O319   Zn322   2.013   .     S
O320   Zn321   2.013   .     S
C323   O359    1.280   .     A
C323   C340    1.408   .     S
C323   O361    1.295   .     A
C324   C326    1.390   .     A
C324   Cl349   1.771   .     S
C324   C335    1.402   .     A
C325   C343    1.421   .     S
C325   C344    1.390   .     A
C325   C327    1.388   .     A
C326   C328    1.388   .     A
C326   C342    1.421   .     S
C327   Cl350   1.770   .     S
C327   C329    1.398   .     A
C328   Cl351   1.770   .     S
C328   C330    1.398   .     A
C329   C331    1.421   .     A
C329   C336    1.413   .     A
C330   C337    1.414   .     A
C330   C332    1.421   .     A
C331   C333    1.424   .     A
C331   C746    1.398   1_554 S
C332   C335    1.424   .     A
C332   C745    1.398   .     S
C333   C344    1.402   .     A
C333   C339    1.415   .     A
C334   O362    1.295   .     A
C334   C341    1.408   .     S
C334   O360    1.280   .     A
C335   C338    1.415   .     A
C336   Cl352   1.776   .     S
C336   C752    1.397   1_554 S
C337   Cl353   1.776   .     S
C337   C753    1.397   .     S
C338   Cl354   1.776   .     S
C338   C750    1.397   .     S
C339   Cl355   1.776   .     S
C339   C751    1.397   1_554 S
C340   C65     1.354   1_565 S
C340   Cl80    1.781   1_565 S
C342   O363    1.289   .     A
C342   O365    1.287   .     A
C343   O366    1.287   .     A
C343   O364    1.289   .     A
C344   Cl345   1.771   .     S
Cl346  C65     1.781   1_565 S
Cl348  N404    1.724   .     S
N357   Zn368   2.028   .     S
N357   Cl393   1.724   .     S
N357   N404    1.285   .     S
N358   Zn367   2.028   .     S
O359   Zn367   1.989   .     S
O360   Zn368   1.989   .     S
O361   Zn368   2.000   .     S
O362   Zn367   2.000   .     S
O363   Zn367   1.995   .     S
O364   Zn368   1.995   .     S
O365   Zn368   2.013   .     S
O366   Zn367   2.013   .     S
C369   O405    1.280   .     A
C369   C386    1.408   .     S
C369   O407    1.295   .     A
C370   C372    1.390   .     A
C370   Cl395   1.771   .     S
C370   C381    1.402   .     A
C371   C389    1.421   .     S
C371   C390    1.390   .     A
C371   C373    1.388   .     A
C372   C374    1.388   .     A
C372   C388    1.421   .     S
C373   Cl396   1.770   .     S
C373   C375    1.398   .     A
C374   Cl397   1.770   .     S
C374   C376    1.398   .     A
C375   C377    1.421   .     A
C375   C382    1.413   .     A
C376   C383    1.414   .     A
C376   C378    1.421   .     A
C377   C379    1.424   .     A
C377   C792    1.398   1_554 S
C378   C381    1.424   .     A
C378   C791    1.398   .     S
C379   C390    1.402   .     A
C379   C385    1.415   .     A
C380   O408    1.295   .     A
C380   C387    1.408   .     S
C380   O406    1.280   .     A
C381   C384    1.415   .     A
C382   Cl398   1.776   .     S
C382   C798    1.397   1_554 S
C383   Cl399   1.776   .     S
C383   C799    1.397   .     S
C384   Cl400   1.776   .     S
C384   C796    1.397   .     S
C385   Cl401   1.776   .     S
C385   C797    1.397   1_554 S
C386   C111    1.354   1_565 S
C386   Cl126   1.781   1_565 S
C388   O409    1.289   .     A
C388   O411    1.287   .     A
C389   O412    1.287   .     A
C389   O410    1.289   .     A
C390   Cl391   1.771   .     S
Cl392  C111    1.781   1_565 S
Cl394  N312    1.724   1_655 S
N403   Zn414   2.028   .     S
N403   Cl301   1.724   1_655 S
N403   N312    1.285   1_655 S
N404   Zn413   2.028   .     S
O405   Zn413   1.989   .     S
O406   Zn414   1.989   .     S
O407   Zn414   2.000   .     S
O408   Zn413   2.000   .     S
O409   Zn413   1.995   .     S
O410   Zn414   1.995   .     S
O411   Zn414   2.013   .     S
O412   Zn413   2.013   .     S
C415   O451    1.280   .     A
C415   C432    1.408   .     S
C415   O453    1.295   .     A
C416   C418    1.390   .     A
C416   Cl441   1.771   .     S
C416   C427    1.402   .     A
C417   C435    1.421   .     S
C417   C436    1.390   .     A
C417   C419    1.388   .     A
C418   C420    1.388   .     A
C418   C434    1.421   .     S
C419   Cl442   1.770   .     S
C419   C421    1.398   .     A
C420   Cl443   1.770   .     S
C420   C422    1.398   .     A
C421   C423    1.421   .     A
C421   C428    1.413   .     A
C422   C429    1.414   .     A
C422   C424    1.421   .     A
C423   C425    1.424   .     A
C424   C427    1.424   .     A
C424   C9      1.398   1_556 S
C425   C436    1.402   .     A
C425   C431    1.415   .     A
C426   O454    1.295   .     A
C426   C433    1.408   .     S
C426   O452    1.280   .     A
C427   C430    1.415   .     A
C428   Cl444   1.776   .     S
C429   Cl445   1.776   .     S
C429   C17     1.397   1_556 S
C430   Cl446   1.776   .     S
C430   C14     1.397   1_556 S
C431   Cl447   1.776   .     S
C432   C571    1.354   .     S
C432   Cl586   1.781   .     S
C433   C708    1.354   1_545 S
C433   Cl714   1.781   1_545 S
C434   O455    1.289   .     A
C434   O457    1.287   .     A
C435   O458    1.287   .     A
C435   O456    1.289   .     A
C436   Cl437   1.771   .     S
Cl438  C571    1.781   .     S
Cl439  N541    1.724   1_455 S
Cl440  N496    1.724   .     S
Cl448  C708    1.781   1_545 S
N449   Zn460   2.028   .     S
N449   Cl485   1.724   .     S
N449   N496    1.285   .     S
N450   Zn459   2.028   .     S
N450   N541    1.285   1_455 S
N450   Cl532   1.724   1_455 S
O451   Zn459   1.989   .     S
O452   Zn460   1.989   .     S
O453   Zn460   2.000   .     S
O454   Zn459   2.000   .     S
O455   Zn459   1.995   .     S
O456   Zn460   1.995   .     S
O457   Zn460   2.013   .     S
O458   Zn459   2.013   .     S
C461   O497    1.280   .     A
C461   C478    1.408   .     S
C461   O499    1.295   .     A
C462   C464    1.390   .     A
C462   Cl487   1.771   .     S
C462   C473    1.402   .     A
C463   C481    1.421   .     S
C463   C482    1.390   .     A
C463   C465    1.388   .     A
C464   C466    1.388   .     A
C464   C480    1.421   .     S
C465   Cl488   1.770   .     S
C465   C467    1.398   .     A
C466   Cl489   1.770   .     S
C466   C468    1.398   .     A
C467   C469    1.421   .     A
C467   C474    1.413   .     A
C468   C475    1.414   .     A
C468   C470    1.421   .     A
C469   C471    1.424   .     A
C470   C473    1.424   .     A
C470   C55     1.398   1_556 S
C471   C482    1.402   .     A
C471   C477    1.415   .     A
C472   O500    1.295   .     A
C472   C479    1.408   .     S
C472   O498    1.280   .     A
C473   C476    1.415   .     A
C474   Cl490   1.776   .     S
C475   Cl491   1.776   .     S
C475   C63     1.397   1_556 S
C476   Cl492   1.776   .     S
C476   C60     1.397   1_556 S
C477   Cl493   1.776   .     S
C478   C617    1.354   .     S
C478   Cl632   1.781   .     S
C479   C754    1.354   1_545 S
C479   Cl760   1.781   1_545 S
C480   O501    1.289   .     A
C480   O503    1.287   .     A
C481   O504    1.287   .     A
C481   O502    1.289   .     A
C482   Cl483   1.771   .     S
Cl484  C617    1.781   .     S
Cl486  N542    1.724   .     S
Cl494  C754    1.781   1_545 S
N495   Zn506   2.028   .     S
N495   Cl531   1.724   .     S
N495   N542    1.285   .     S
N496   Zn505   2.028   .     S
O497   Zn505   1.989   .     S
O498   Zn506   1.989   .     S
O499   Zn506   2.000   .     S
O500   Zn505   2.000   .     S
O501   Zn505   1.995   .     S
O502   Zn506   1.995   .     S
O503   Zn506   2.013   .     S
O504   Zn505   2.013   .     S
C507   O543    1.280   .     A
C507   C524    1.408   .     S
C507   O545    1.295   .     A
C508   C510    1.390   .     A
C508   Cl533   1.771   .     S
C508   C519    1.402   .     A
C509   C527    1.421   .     S
C509   C528    1.390   .     A
C509   C511    1.388   .     A
C510   C512    1.388   .     A
C510   C526    1.421   .     S
C511   Cl534   1.770   .     S
C511   C513    1.398   .     A
C512   Cl535   1.770   .     S
C512   C514    1.398   .     A
C513   C515    1.421   .     A
C513   C520    1.413   .     A
C514   C521    1.414   .     A
C514   C516    1.421   .     A
C515   C517    1.424   .     A
C516   C519    1.424   .     A
C516   C101    1.398   1_556 S
C517   C528    1.402   .     A
C517   C523    1.415   .     A
C518   O546    1.295   .     A
C518   C525    1.408   .     S
C518   O544    1.280   .     A
C519   C522    1.415   .     A
C520   Cl536   1.776   .     S
C521   Cl537   1.776   .     S
C521   C109    1.397   1_556 S
C522   Cl538   1.776   .     S
C522   C106    1.397   1_556 S
C523   Cl539   1.776   .     S
C524   C663    1.354   .     S
C524   Cl678   1.781   .     S
C525   C800    1.354   1_545 S
C525   Cl806   1.781   1_545 S
C526   O547    1.289   .     A
C526   O549    1.287   .     A
C527   O550    1.287   .     A
C527   O548    1.289   .     A
C528   Cl529   1.771   .     S
Cl530  C663    1.781   .     S
Cl532  N450    1.724   1_655 S
Cl540  C800    1.781   1_545 S
N541   Zn552   2.028   .     S
N541   Cl439   1.724   1_655 S
N541   N450    1.285   1_655 S
N542   Zn551   2.028   .     S
O543   Zn551   1.989   .     S
O544   Zn552   1.989   .     S
O545   Zn552   2.000   .     S
O546   Zn551   2.000   .     S
O547   Zn551   1.995   .     S
O548   Zn552   1.995   .     S
O549   Zn552   2.013   .     S
O550   Zn551   2.013   .     S
C553   O589    1.280   .     A
C553   C570    1.408   .     S
C553   O591    1.295   .     A
C554   C556    1.390   .     A
C554   Cl579   1.771   .     S
C554   C565    1.402   .     A
C555   C573    1.421   .     S
C555   C574    1.390   .     A
C555   C557    1.388   .     A
C556   C558    1.388   .     A
C556   C572    1.421   .     S
C557   Cl580   1.770   .     S
C557   C559    1.398   .     A
C558   Cl581   1.770   .     S
C558   C560    1.398   .     A
C559   C561    1.421   .     A
C559   C566    1.413   .     A
C560   C567    1.414   .     A
C560   C562    1.421   .     A
C561   C563    1.424   .     A
C562   C565    1.424   .     A
C562   C147    1.398   1_556 S
C563   C574    1.402   .     A
C563   C569    1.415   .     A
C564   O592    1.295   .     A
C564   C571    1.408   .     S
C564   O590    1.280   .     A
C565   C568    1.415   .     A
C566   Cl582   1.776   .     S
C567   Cl583   1.776   .     S
C567   C155    1.397   1_556 S
C568   Cl584   1.776   .     S
C568   C152    1.397   1_556 S
C569   Cl585   1.776   .     S
C570   C709    1.354   .     S
C570   Cl724   1.781   .     S
C572   O593    1.289   .     A
C572   O595    1.287   .     A
C573   O596    1.287   .     A
C573   O594    1.289   .     A
C574   Cl575   1.771   .     S
Cl576  C709    1.781   .     S
Cl577  N679    1.724   1_455 S
Cl578  N634    1.724   .     S
N587   Zn598   2.028   .     S
N587   Cl623   1.724   .     S
N587   N634    1.285   .     S
N588   Zn597   2.028   .     S
N588   N679    1.285   1_455 S
N588   Cl670   1.724   1_455 S
O589   Zn597   1.989   .     S
O590   Zn598   1.989   .     S
O591   Zn598   2.000   .     S
O592   Zn597   2.000   .     S
O593   Zn597   1.995   .     S
O594   Zn598   1.995   .     S
O595   Zn598   2.013   .     S
O596   Zn597   2.013   .     S
C599   O635    1.280   .     A
C599   C616    1.408   .     S
C599   O637    1.295   .     A
C600   C602    1.390   .     A
C600   Cl625   1.771   .     S
C600   C611    1.402   .     A
C601   C619    1.421   .     S
C601   C620    1.390   .     A
C601   C603    1.388   .     A
C602   C604    1.388   .     A
C602   C618    1.421   .     S
C603   Cl626   1.770   .     S
C603   C605    1.398   .     A
C604   Cl627   1.770   .     S
C604   C606    1.398   .     A
C605   C607    1.421   .     A
C605   C612    1.413   .     A
C606   C613    1.414   .     A
C606   C608    1.421   .     A
C607   C609    1.424   .     A
C608   C611    1.424   .     A
C608   C193    1.398   1_556 S
C609   C620    1.402   .     A
C609   C615    1.415   .     A
C610   O638    1.295   .     A
C610   C617    1.408   .     S
C610   O636    1.280   .     A
C611   C614    1.415   .     A
C612   Cl628   1.776   .     S
C613   Cl629   1.776   .     S
C613   C201    1.397   1_556 S
C614   Cl630   1.776   .     S
C614   C198    1.397   1_556 S
C615   Cl631   1.776   .     S
C616   C755    1.354   .     S
C616   Cl770   1.781   .     S
C618   O639    1.289   .     A
C618   O641    1.287   .     A
C619   O642    1.287   .     A
C619   O640    1.289   .     A
C620   Cl621   1.771   .     S
Cl622  C755    1.781   .     S
Cl624  N680    1.724   .     S
N633   Zn644   2.028   .     S
N633   Cl669   1.724   .     S
N633   N680    1.285   .     S
N634   Zn643   2.028   .     S
O635   Zn643   1.989   .     S
O636   Zn644   1.989   .     S
O637   Zn644   2.000   .     S
O638   Zn643   2.000   .     S
O639   Zn643   1.995   .     S
O640   Zn644   1.995   .     S
O641   Zn644   2.013   .     S
O642   Zn643   2.013   .     S
C645   O681    1.280   .     A
C645   C662    1.408   .     S
C645   O683    1.295   .     A
C646   C648    1.390   .     A
C646   Cl671   1.771   .     S
C646   C657    1.402   .     A
C647   C665    1.421   .     S
C647   C666    1.390   .     A
C647   C649    1.388   .     A
C648   C650    1.388   .     A
C648   C664    1.421   .     S
C649   Cl672   1.770   .     S
C649   C651    1.398   .     A
C650   Cl673   1.770   .     S
C650   C652    1.398   .     A
C651   C653    1.421   .     A
C651   C658    1.413   .     A
C652   C659    1.414   .     A
C652   C654    1.421   .     A
C653   C655    1.424   .     A
C654   C657    1.424   .     A
C654   C239    1.398   1_556 S
C655   C666    1.402   .     A
C655   C661    1.415   .     A
C656   O684    1.295   .     A
C656   C663    1.408   .     S
C656   O682    1.280   .     A
C657   C660    1.415   .     A
C658   Cl674   1.776   .     S
C659   Cl675   1.776   .     S
C659   C247    1.397   1_556 S
C660   Cl676   1.776   .     S
C660   C244    1.397   1_556 S
C661   Cl677   1.776   .     S
C662   C801    1.354   .     S
C662   Cl816   1.781   .     S
C664   O685    1.289   .     A
C664   O687    1.287   .     A
C665   O688    1.287   .     A
C665   O686    1.289   .     A
C666   Cl667   1.771   .     S
Cl668  C801    1.781   .     S
Cl670  N588    1.724   1_655 S
N679   Zn690   2.028   .     S
N679   Cl577   1.724   1_655 S
N679   N588    1.285   1_655 S
N680   Zn689   2.028   .     S
O681   Zn689   1.989   .     S
O682   Zn690   1.989   .     S
O683   Zn690   2.000   .     S
O684   Zn689   2.000   .     S
O685   Zn689   1.995   .     S
O686   Zn690   1.995   .     S
O687   Zn690   2.013   .     S
O688   Zn689   2.013   .     S
C691   O727    1.280   .     A
C691   C708    1.408   .     S
C691   O729    1.295   .     A
C692   C694    1.390   .     A
C692   Cl717   1.771   .     S
C692   C703    1.402   .     A
C693   C711    1.421   .     S
C693   C712    1.390   .     A
C693   C695    1.388   .     A
C694   C696    1.388   .     A
C694   C710    1.421   .     S
C695   Cl718   1.770   .     S
C695   C697    1.398   .     A
C696   Cl719   1.770   .     S
C696   C698    1.398   .     A
C697   C699    1.421   .     A
C697   C704    1.413   .     A
C698   C705    1.414   .     A
C698   C700    1.421   .     A
C699   C701    1.424   .     A
C700   C703    1.424   .     A
C700   C285    1.398   1_556 S
C701   C712    1.402   .     A
C701   C707    1.415   .     A
C702   O730    1.295   .     A
C702   C709    1.408   .     S
C702   O728    1.280   .     A
C703   C706    1.415   .     A
C704   Cl720   1.776   .     S
C705   Cl721   1.776   .     S
C705   C293    1.397   1_556 S
C706   Cl722   1.776   .     S
C706   C290    1.397   1_556 S
C707   Cl723   1.776   .     S
C708   C433    1.354   1_565 S
C708   Cl448   1.781   1_565 S
C710   O731    1.289   .     A
C710   O733    1.287   .     A
C711   O734    1.287   .     A
C711   O732    1.289   .     A
C712   Cl713   1.771   .     S
Cl714  C433    1.781   1_565 S
Cl715  N817    1.724   1_455 S
Cl716  N772    1.724   .     S
N725   Zn736   2.028   .     S
N725   Cl761   1.724   .     S
N725   N772    1.285   .     S
N726   Zn735   2.028   .     S
N726   N817    1.285   1_455 S
N726   Cl808   1.724   1_455 S
O727   Zn735   1.989   .     S
O728   Zn736   1.989   .     S
O729   Zn736   2.000   .     S
O730   Zn735   2.000   .     S
O731   Zn735   1.995   .     S
O732   Zn736   1.995   .     S
O733   Zn736   2.013   .     S
O734   Zn735   2.013   .     S
C737   O773    1.280   .     A
C737   C754    1.408   .     S
C737   O775    1.295   .     A
C738   C740    1.390   .     A
C738   Cl763   1.771   .     S
C738   C749    1.402   .     A
C739   C757    1.421   .     S
C739   C758    1.390   .     A
C739   C741    1.388   .     A
C740   C742    1.388   .     A
C740   C756    1.421   .     S
C741   Cl764   1.770   .     S
C741   C743    1.398   .     A
C742   Cl765   1.770   .     S
C742   C744    1.398   .     A
C743   C745    1.421   .     A
C743   C750    1.413   .     A
C744   C751    1.414   .     A
C744   C746    1.421   .     A
C745   C747    1.424   .     A
C746   C749    1.424   .     A
C746   C331    1.398   1_556 S
C747   C758    1.402   .     A
C747   C753    1.415   .     A
C748   O776    1.295   .     A
C748   C755    1.408   .     S
C748   O774    1.280   .     A
C749   C752    1.415   .     A
C750   Cl766   1.776   .     S
C751   Cl767   1.776   .     S
C751   C339    1.397   1_556 S
C752   Cl768   1.776   .     S
C752   C336    1.397   1_556 S
C753   Cl769   1.776   .     S
C754   C479    1.354   1_565 S
C754   Cl494   1.781   1_565 S
C756   O777    1.289   .     A
C756   O779    1.287   .     A
C757   O780    1.287   .     A
C757   O778    1.289   .     A
C758   Cl759   1.771   .     S
Cl760  C479    1.781   1_565 S
Cl762  N818    1.724   .     S
N771   Zn782   2.028   .     S
N771   Cl807   1.724   .     S
N771   N818    1.285   .     S
N772   Zn781   2.028   .     S
O773   Zn781   1.989   .     S
O774   Zn782   1.989   .     S
O775   Zn782   2.000   .     S
O776   Zn781   2.000   .     S
O777   Zn781   1.995   .     S
O778   Zn782   1.995   .     S
O779   Zn782   2.013   .     S
O780   Zn781   2.013   .     S
C783   O819    1.280   .     A
C783   C800    1.408   .     S
C783   O821    1.295   .     A
C784   C786    1.390   .     A
C784   Cl809   1.771   .     S
C784   C795    1.402   .     A
C785   C803    1.421   .     S
C785   C804    1.390   .     A
C785   C787    1.388   .     A
C786   C788    1.388   .     A
C786   C802    1.421   .     S
C787   Cl810   1.770   .     S
C787   C789    1.398   .     A
C788   Cl811   1.770   .     S
C788   C790    1.398   .     A
C789   C791    1.421   .     A
C789   C796    1.413   .     A
C790   C797    1.414   .     A
C790   C792    1.421   .     A
C791   C793    1.424   .     A
C792   C795    1.424   .     A
C792   C377    1.398   1_556 S
C793   C804    1.402   .     A
C793   C799    1.415   .     A
C794   O822    1.295   .     A
C794   C801    1.408   .     S
C794   O820    1.280   .     A
C795   C798    1.415   .     A
C796   Cl812   1.776   .     S
C797   Cl813   1.776   .     S
C797   C385    1.397   1_556 S
C798   Cl814   1.776   .     S
C798   C382    1.397   1_556 S
C799   Cl815   1.776   .     S
C800   C525    1.354   1_565 S
C800   Cl540   1.781   1_565 S
C802   O823    1.289   .     A
C802   O825    1.287   .     A
C803   O826    1.287   .     A
C803   O824    1.289   .     A
C804   Cl805   1.771   .     S
Cl806  C525    1.781   1_565 S
Cl808  N726    1.724   1_655 S
N817   Zn828   2.028   .     S
N817   Cl715   1.724   1_655 S
N817   N726    1.285   1_655 S
N818   Zn827   2.028   .     S
O819   Zn827   1.989   .     S
O820   Zn828   1.989   .     S
O821   Zn828   2.000   .     S
O822   Zn827   2.000   .     S
O823   Zn827   1.995   .     S
O824   Zn828   1.995   .     S
O825   Zn828   2.013   .     S
O826   Zn827   2.013   .     S
