data_str_m3_o10_o16_pcu_sym.45
_audit_creation_date              2020-01-03
_audit_creation_method            'Materials Studio'
_symmetry_space_group_name_H-M    'P1'
_symmetry_Int_Tables_number       1
_symmetry_cell_setting            triclinic
loop_
_symmetry_equiv_pos_as_xyz
  x,y,z
_cell_length_a                    23.4543
_cell_length_b                    25.7583
_cell_length_c                    24.4515
_cell_angle_alpha                 92.2307
_cell_angle_beta                  101.1856
_cell_angle_gamma                 94.4535
loop_
_atom_site_label
_atom_site_type_symbol
_atom_site_fract_x
_atom_site_fract_y
_atom_site_fract_z
_atom_site_U_iso_or_equiv
_atom_site_adp_type
_atom_site_occupancy
C1     C     0.01387   0.26463   0.24520   0.00000  Uiso   1.00
C2     C     0.05617   0.17555   0.41494   0.00000  Uiso   1.00
C3     C     0.01695   0.31746   0.23089   0.00000  Uiso   1.00
C4     C     0.03561   0.16838   0.35498   0.00000  Uiso   1.00
C5     C     0.31144   0.01363   0.24898   0.00000  Uiso   1.00
C6     C     0.31785   0.06835   0.24865   0.00000  Uiso   1.00
C7     C     0.29775   0.16407   0.14508   0.00000  Uiso   1.00
C8     C     0.28189   0.11938   0.49579   0.00000  Uiso   1.00
C9     C     0.27898   0.16076   0.08511   0.00000  Uiso   1.00
C10    C     0.03116   0.21261   0.44408   0.00000  Uiso   1.00
C11    C     0.06438   0.23975   0.49105   0.00000  Uiso   1.00
C12    C     0.14402   0.18487   0.48676   0.00000  Uiso   1.00
C13    C     0.12221   0.22932   0.00982   0.00000  Uiso   1.00
C14    C     0.16003   0.26979   0.04472   0.00000  Uiso   1.00
C15    C     0.05703   0.00015   0.19068   0.00000  Uiso   1.00
C16    C     0.02183   0.01482   0.13455   0.00000  Uiso   1.00
C17    C     0.06199   0.02888   0.09435   0.00000  Uiso   1.00
C18    C     0.11032   0.15798   0.43855   0.00000  Uiso   1.00
C19    C     0.19900   0.16729   0.00827   0.00000  Uiso   1.00
C20    C     0.22478   0.13220   0.47619   0.00000  Uiso   1.00
C21    C     0.19124   0.10691   0.42810   0.00000  Uiso   1.00
C22    C     0.13319   0.11657   0.41224   0.00000  Uiso   1.00
C23    C     0.22522   0.17807   0.06371   0.00000  Uiso   1.00
C24    C     0.30987   0.13538   0.05005   0.00000  Uiso   1.00
H25    H     0.01982   0.12422   0.06592   0.00000  Uiso   1.00
H26    H     0.10684   0.09259   0.37775   0.00000  Uiso   1.00
H27    H     0.09051   0.06495   0.11007   0.00000  Uiso   1.00
H28    H     0.08957   0.33004   0.09005   0.00000  Uiso   1.00
H29    H     0.03569   0.03488   0.05255   0.00000  Uiso   1.00
H30    H     0.32409   0.31445   0.11573   0.00000  Uiso   1.00
H31    H     0.32968   0.04846   0.14027   0.00000  Uiso   1.00
H32    H     0.09127   0.03138   0.20927   0.00000  Uiso   1.00
H33    H     0.08211   0.30042   0.18151   0.00000  Uiso   1.00
H34    H     0.27887   0.33134   0.27156   0.00000  Uiso   1.00
H35    H     0.15665   0.12527   0.20837   0.00000  Uiso   1.00
H36    H     0.17667   0.20804   0.29163   0.00000  Uiso   1.00
H37    H     0.20870   0.07733   0.40488   0.00000  Uiso   1.00
H38    H     0.30338   0.09483   0.47056   0.00000  Uiso   1.00
H39    H     0.20125   0.19546   0.09213   0.00000  Uiso   1.00
H40    H     0.32227   0.22560   0.42655   0.00000  Uiso   1.00
H41    H     0.04667   0.27242   0.00909   0.00000  Uiso   1.00
N42    N     0.14493   0.15223   0.23542   0.00000  Uiso   1.00
N43    N     0.18840   0.18110   0.26457   0.00000  Uiso   1.00
N44    N     0.19066   0.30210   0.07236   0.00000  Uiso   1.00
O45    O     0.29769   0.24629   0.25357   0.00000  Uiso   1.00
O46    O     0.05742   0.23704   0.24423   0.00000  Uiso   1.00
O47    O     0.31490   0.17358   0.33380   0.00000  Uiso   1.00
O48    O     0.07463   0.16433   0.32446   0.00000  Uiso   1.00
O49    O     0.27592   0.09629   0.25576   0.00000  Uiso   1.00
O50    O     0.03565   0.08704   0.24643   0.00000  Uiso   1.00
O51    O     0.25870   0.16901   0.17554   0.00000  Uiso   1.00
O52    O     0.01843   0.15976   0.16620   0.00000  Uiso   1.00
Zn53   Zn    0.27119   0.17284   0.25623   0.00000  Uiso   1.00
Zn54   Zn    0.06214   0.16049   0.24376   0.00000  Uiso   1.00
C55    C     0.34720   0.26463   0.24520   0.00000  Uiso   1.00
C56    C     0.38950   0.17555   0.41494   0.00000  Uiso   1.00
C57    C     0.35029   0.31746   0.23089   0.00000  Uiso   1.00
C58    C     0.36894   0.16838   0.35498   0.00000  Uiso   1.00
C59    C     0.64477   0.01363   0.24898   0.00000  Uiso   1.00
C60    C     0.65119   0.06835   0.24865   0.00000  Uiso   1.00
C61    C     0.63108   0.16407   0.14508   0.00000  Uiso   1.00
C62    C     0.61522   0.11938   0.49579   0.00000  Uiso   1.00
C63    C     0.61231   0.16076   0.08511   0.00000  Uiso   1.00
C64    C     0.36449   0.21261   0.44408   0.00000  Uiso   1.00
C65    C     0.39771   0.23975   0.49105   0.00000  Uiso   1.00
C66    C     0.47735   0.18487   0.48676   0.00000  Uiso   1.00
C67    C     0.45554   0.22932   0.00982   0.00000  Uiso   1.00
C68    C     0.49336   0.26979   0.04472   0.00000  Uiso   1.00
C69    C     0.39037   0.00015   0.19068   0.00000  Uiso   1.00
C70    C     0.35516   0.01482   0.13455   0.00000  Uiso   1.00
C71    C     0.39533   0.02888   0.09435   0.00000  Uiso   1.00
C72    C     0.44365   0.15798   0.43855   0.00000  Uiso   1.00
C73    C     0.53234   0.16729   0.00827   0.00000  Uiso   1.00
C74    C     0.55811   0.13220   0.47619   0.00000  Uiso   1.00
C75    C     0.52458   0.10691   0.42810   0.00000  Uiso   1.00
C76    C     0.46652   0.11657   0.41224   0.00000  Uiso   1.00
C77    C     0.55856   0.17807   0.06371   0.00000  Uiso   1.00
C78    C     0.64320   0.13538   0.05005   0.00000  Uiso   1.00
H79    H     0.35316   0.12422   0.06592   0.00000  Uiso   1.00
H80    H     0.44017   0.09259   0.37775   0.00000  Uiso   1.00
H81    H     0.42385   0.06495   0.11007   0.00000  Uiso   1.00
H82    H     0.42290   0.33004   0.09005   0.00000  Uiso   1.00
H83    H     0.36902   0.03488   0.05255   0.00000  Uiso   1.00
H84    H     0.65742   0.31445   0.11573   0.00000  Uiso   1.00
H85    H     0.66301   0.04846   0.14027   0.00000  Uiso   1.00
H86    H     0.42461   0.03138   0.20927   0.00000  Uiso   1.00
H87    H     0.41544   0.30042   0.18151   0.00000  Uiso   1.00
H88    H     0.61220   0.33134   0.27156   0.00000  Uiso   1.00
H89    H     0.48998   0.12527   0.20837   0.00000  Uiso   1.00
H90    H     0.51000   0.20804   0.29163   0.00000  Uiso   1.00
H91    H     0.54203   0.07733   0.40488   0.00000  Uiso   1.00
H92    H     0.63672   0.09483   0.47056   0.00000  Uiso   1.00
H93    H     0.53458   0.19546   0.09213   0.00000  Uiso   1.00
H94    H     0.65560   0.22560   0.42655   0.00000  Uiso   1.00
H95    H     0.38001   0.27242   0.00909   0.00000  Uiso   1.00
N96    N     0.47827   0.15223   0.23542   0.00000  Uiso   1.00
N97    N     0.52173   0.18110   0.26457   0.00000  Uiso   1.00
N98    N     0.52399   0.30210   0.07236   0.00000  Uiso   1.00
O99    O     0.63102   0.24629   0.25357   0.00000  Uiso   1.00
O100   O     0.39075   0.23704   0.24423   0.00000  Uiso   1.00
O101   O     0.64823   0.17358   0.33380   0.00000  Uiso   1.00
O102   O     0.40796   0.16433   0.32446   0.00000  Uiso   1.00
O103   O     0.60925   0.09629   0.25576   0.00000  Uiso   1.00
O104   O     0.36898   0.08704   0.24643   0.00000  Uiso   1.00
O105   O     0.59204   0.16901   0.17554   0.00000  Uiso   1.00
O106   O     0.35177   0.15976   0.16620   0.00000  Uiso   1.00
Zn107  Zn    0.60453   0.17284   0.25623   0.00000  Uiso   1.00
Zn108  Zn    0.39547   0.16049   0.24376   0.00000  Uiso   1.00
C109   C     0.68053   0.26463   0.24520   0.00000  Uiso   1.00
C110   C     0.72284   0.17555   0.41494   0.00000  Uiso   1.00
C111   C     0.68362   0.31746   0.23089   0.00000  Uiso   1.00
C112   C     0.70227   0.16838   0.35498   0.00000  Uiso   1.00
C113   C     0.97811   0.01363   0.24898   0.00000  Uiso   1.00
C114   C     0.98452   0.06835   0.24865   0.00000  Uiso   1.00
C115   C     0.96441   0.16407   0.14508   0.00000  Uiso   1.00
C116   C     0.94856   0.11938   0.49579   0.00000  Uiso   1.00
C117   C     0.94565   0.16076   0.08511   0.00000  Uiso   1.00
C118   C     0.69783   0.21261   0.44408   0.00000  Uiso   1.00
C119   C     0.73104   0.23975   0.49105   0.00000  Uiso   1.00
C120   C     0.81068   0.18487   0.48676   0.00000  Uiso   1.00
C121   C     0.78888   0.22932   0.00982   0.00000  Uiso   1.00
C122   C     0.82669   0.26979   0.04472   0.00000  Uiso   1.00
C123   C     0.72370   0.00015   0.19068   0.00000  Uiso   1.00
C124   C     0.68849   0.01482   0.13455   0.00000  Uiso   1.00
C125   C     0.72866   0.02888   0.09435   0.00000  Uiso   1.00
C126   C     0.77699   0.15798   0.43855   0.00000  Uiso   1.00
C127   C     0.86567   0.16729   0.00827   0.00000  Uiso   1.00
C128   C     0.89145   0.13220   0.47619   0.00000  Uiso   1.00
C129   C     0.85791   0.10691   0.42810   0.00000  Uiso   1.00
C130   C     0.79986   0.11657   0.41224   0.00000  Uiso   1.00
C131   C     0.89189   0.17807   0.06371   0.00000  Uiso   1.00
C132   C     0.97653   0.13538   0.05005   0.00000  Uiso   1.00
H133   H     0.68649   0.12422   0.06592   0.00000  Uiso   1.00
H134   H     0.77350   0.09259   0.37775   0.00000  Uiso   1.00
H135   H     0.75718   0.06495   0.11007   0.00000  Uiso   1.00
H136   H     0.75624   0.33004   0.09005   0.00000  Uiso   1.00
H137   H     0.70236   0.03488   0.05255   0.00000  Uiso   1.00
H138   H     0.99076   0.31445   0.11573   0.00000  Uiso   1.00
H139   H     0.99634   0.04846   0.14027   0.00000  Uiso   1.00
H140   H     0.75794   0.03138   0.20927   0.00000  Uiso   1.00
H141   H     0.74877   0.30042   0.18151   0.00000  Uiso   1.00
H142   H     0.94553   0.33134   0.27156   0.00000  Uiso   1.00
H143   H     0.82332   0.12527   0.20837   0.00000  Uiso   1.00
H144   H     0.84333   0.20804   0.29163   0.00000  Uiso   1.00
H145   H     0.87536   0.07733   0.40488   0.00000  Uiso   1.00
H146   H     0.97005   0.09483   0.47056   0.00000  Uiso   1.00
H147   H     0.86791   0.19546   0.09213   0.00000  Uiso   1.00
H148   H     0.98893   0.22560   0.42655   0.00000  Uiso   1.00
H149   H     0.71334   0.27242   0.00909   0.00000  Uiso   1.00
N150   N     0.81160   0.15223   0.23542   0.00000  Uiso   1.00
N151   N     0.85507   0.18110   0.26457   0.00000  Uiso   1.00
N152   N     0.85732   0.30210   0.07236   0.00000  Uiso   1.00
O153   O     0.96435   0.24629   0.25357   0.00000  Uiso   1.00
O154   O     0.72408   0.23704   0.24423   0.00000  Uiso   1.00
O155   O     0.98157   0.17358   0.33380   0.00000  Uiso   1.00
O156   O     0.74130   0.16433   0.32446   0.00000  Uiso   1.00
O157   O     0.94258   0.09629   0.25576   0.00000  Uiso   1.00
O158   O     0.70231   0.08704   0.24643   0.00000  Uiso   1.00
O159   O     0.92537   0.16901   0.17554   0.00000  Uiso   1.00
O160   O     0.68510   0.15976   0.16620   0.00000  Uiso   1.00
Zn161  Zn    0.93786   0.17284   0.25623   0.00000  Uiso   1.00
Zn162  Zn    0.72881   0.16049   0.24376   0.00000  Uiso   1.00
C163   C     0.01387   0.59796   0.24520   0.00000  Uiso   1.00
C164   C     0.05617   0.50889   0.41494   0.00000  Uiso   1.00
C165   C     0.01695   0.65079   0.23089   0.00000  Uiso   1.00
C166   C     0.03561   0.50171   0.35498   0.00000  Uiso   1.00
C167   C     0.31144   0.34696   0.24898   0.00000  Uiso   1.00
C168   C     0.31785   0.40168   0.24865   0.00000  Uiso   1.00
C169   C     0.29775   0.49741   0.14508   0.00000  Uiso   1.00
C170   C     0.28189   0.45272   0.49579   0.00000  Uiso   1.00
C171   C     0.27898   0.49410   0.08511   0.00000  Uiso   1.00
C172   C     0.03116   0.54595   0.44408   0.00000  Uiso   1.00
C173   C     0.06438   0.57308   0.49105   0.00000  Uiso   1.00
C174   C     0.14402   0.51820   0.48676   0.00000  Uiso   1.00
C175   C     0.12221   0.56266   0.00982   0.00000  Uiso   1.00
C176   C     0.16003   0.60312   0.04472   0.00000  Uiso   1.00
C177   C     0.05703   0.33348   0.19068   0.00000  Uiso   1.00
C178   C     0.02183   0.34816   0.13455   0.00000  Uiso   1.00
C179   C     0.06199   0.36221   0.09435   0.00000  Uiso   1.00
C180   C     0.11032   0.49131   0.43855   0.00000  Uiso   1.00
C181   C     0.19900   0.50062   0.00827   0.00000  Uiso   1.00
C182   C     0.22478   0.46553   0.47619   0.00000  Uiso   1.00
C183   C     0.19124   0.44024   0.42810   0.00000  Uiso   1.00
C184   C     0.13319   0.44990   0.41224   0.00000  Uiso   1.00
C185   C     0.22522   0.51141   0.06371   0.00000  Uiso   1.00
C186   C     0.30987   0.46871   0.05005   0.00000  Uiso   1.00
H187   H     0.01982   0.45756   0.06592   0.00000  Uiso   1.00
H188   H     0.10684   0.42592   0.37775   0.00000  Uiso   1.00
H189   H     0.09051   0.39828   0.11007   0.00000  Uiso   1.00
H190   H     0.08957   0.66337   0.09005   0.00000  Uiso   1.00
H191   H     0.03569   0.36821   0.05255   0.00000  Uiso   1.00
H192   H     0.32409   0.64778   0.11573   0.00000  Uiso   1.00
H193   H     0.32968   0.38179   0.14027   0.00000  Uiso   1.00
H194   H     0.09127   0.36471   0.20927   0.00000  Uiso   1.00
H195   H     0.08211   0.63376   0.18151   0.00000  Uiso   1.00
H196   H     0.27887   0.66467   0.27156   0.00000  Uiso   1.00
H197   H     0.15665   0.45861   0.20837   0.00000  Uiso   1.00
H198   H     0.17667   0.54138   0.29163   0.00000  Uiso   1.00
H199   H     0.20870   0.41067   0.40488   0.00000  Uiso   1.00
H200   H     0.30338   0.42817   0.47056   0.00000  Uiso   1.00
H201   H     0.20125   0.52879   0.09213   0.00000  Uiso   1.00
H202   H     0.32227   0.55893   0.42655   0.00000  Uiso   1.00
H203   H     0.04667   0.60575   0.00909   0.00000  Uiso   1.00
N204   N     0.14493   0.48556   0.23542   0.00000  Uiso   1.00
N205   N     0.18840   0.51444   0.26457   0.00000  Uiso   1.00
N206   N     0.19066   0.63543   0.07236   0.00000  Uiso   1.00
O207   O     0.29769   0.57963   0.25357   0.00000  Uiso   1.00
O208   O     0.05742   0.57038   0.24423   0.00000  Uiso   1.00
O209   O     0.31490   0.50691   0.33380   0.00000  Uiso   1.00
O210   O     0.07463   0.49766   0.32446   0.00000  Uiso   1.00
O211   O     0.27592   0.42962   0.25576   0.00000  Uiso   1.00
O212   O     0.03565   0.42037   0.24643   0.00000  Uiso   1.00
O213   O     0.25870   0.50234   0.17554   0.00000  Uiso   1.00
O214   O     0.01843   0.49309   0.16620   0.00000  Uiso   1.00
Zn215  Zn    0.27119   0.50618   0.25623   0.00000  Uiso   1.00
Zn216  Zn    0.06214   0.49382   0.24376   0.00000  Uiso   1.00
C217   C     0.34720   0.59796   0.24520   0.00000  Uiso   1.00
C218   C     0.38950   0.50889   0.41494   0.00000  Uiso   1.00
C219   C     0.35029   0.65079   0.23089   0.00000  Uiso   1.00
C220   C     0.36894   0.50171   0.35498   0.00000  Uiso   1.00
C221   C     0.64477   0.34696   0.24898   0.00000  Uiso   1.00
C222   C     0.65119   0.40168   0.24865   0.00000  Uiso   1.00
C223   C     0.63108   0.49741   0.14508   0.00000  Uiso   1.00
C224   C     0.61522   0.45272   0.49579   0.00000  Uiso   1.00
C225   C     0.61231   0.49410   0.08511   0.00000  Uiso   1.00
C226   C     0.36449   0.54595   0.44408   0.00000  Uiso   1.00
C227   C     0.39771   0.57308   0.49105   0.00000  Uiso   1.00
C228   C     0.47735   0.51820   0.48676   0.00000  Uiso   1.00
C229   C     0.45554   0.56266   0.00982   0.00000  Uiso   1.00
C230   C     0.49336   0.60312   0.04472   0.00000  Uiso   1.00
C231   C     0.39037   0.33348   0.19068   0.00000  Uiso   1.00
C232   C     0.35516   0.34816   0.13455   0.00000  Uiso   1.00
C233   C     0.39533   0.36221   0.09435   0.00000  Uiso   1.00
C234   C     0.44365   0.49131   0.43855   0.00000  Uiso   1.00
C235   C     0.53234   0.50062   0.00827   0.00000  Uiso   1.00
C236   C     0.55811   0.46553   0.47619   0.00000  Uiso   1.00
C237   C     0.52458   0.44024   0.42810   0.00000  Uiso   1.00
C238   C     0.46652   0.44990   0.41224   0.00000  Uiso   1.00
C239   C     0.55856   0.51141   0.06371   0.00000  Uiso   1.00
C240   C     0.64320   0.46871   0.05005   0.00000  Uiso   1.00
H241   H     0.35316   0.45756   0.06592   0.00000  Uiso   1.00
H242   H     0.44017   0.42592   0.37775   0.00000  Uiso   1.00
H243   H     0.42385   0.39828   0.11007   0.00000  Uiso   1.00
H244   H     0.42290   0.66337   0.09005   0.00000  Uiso   1.00
H245   H     0.36902   0.36821   0.05255   0.00000  Uiso   1.00
H246   H     0.65742   0.64778   0.11573   0.00000  Uiso   1.00
H247   H     0.66301   0.38179   0.14027   0.00000  Uiso   1.00
H248   H     0.42461   0.36471   0.20927   0.00000  Uiso   1.00
H249   H     0.41544   0.63376   0.18151   0.00000  Uiso   1.00
H250   H     0.61220   0.66467   0.27156   0.00000  Uiso   1.00
H251   H     0.48998   0.45861   0.20837   0.00000  Uiso   1.00
H252   H     0.51000   0.54138   0.29163   0.00000  Uiso   1.00
H253   H     0.54203   0.41067   0.40488   0.00000  Uiso   1.00
H254   H     0.63672   0.42817   0.47056   0.00000  Uiso   1.00
H255   H     0.53458   0.52879   0.09213   0.00000  Uiso   1.00
H256   H     0.65560   0.55893   0.42655   0.00000  Uiso   1.00
H257   H     0.38001   0.60575   0.00909   0.00000  Uiso   1.00
N258   N     0.47827   0.48556   0.23542   0.00000  Uiso   1.00
N259   N     0.52173   0.51444   0.26457   0.00000  Uiso   1.00
N260   N     0.52399   0.63543   0.07236   0.00000  Uiso   1.00
O261   O     0.63102   0.57963   0.25357   0.00000  Uiso   1.00
O262   O     0.39075   0.57038   0.24423   0.00000  Uiso   1.00
O263   O     0.64823   0.50691   0.33380   0.00000  Uiso   1.00
O264   O     0.40796   0.49766   0.32446   0.00000  Uiso   1.00
O265   O     0.60925   0.42962   0.25576   0.00000  Uiso   1.00
O266   O     0.36898   0.42037   0.24643   0.00000  Uiso   1.00
O267   O     0.59204   0.50234   0.17554   0.00000  Uiso   1.00
O268   O     0.35177   0.49309   0.16620   0.00000  Uiso   1.00
Zn269  Zn    0.60453   0.50618   0.25623   0.00000  Uiso   1.00
Zn270  Zn    0.39547   0.49382   0.24376   0.00000  Uiso   1.00
C271   C     0.68053   0.59796   0.24520   0.00000  Uiso   1.00
C272   C     0.72284   0.50889   0.41494   0.00000  Uiso   1.00
C273   C     0.68362   0.65079   0.23089   0.00000  Uiso   1.00
C274   C     0.70227   0.50171   0.35498   0.00000  Uiso   1.00
C275   C     0.97811   0.34696   0.24898   0.00000  Uiso   1.00
C276   C     0.98452   0.40168   0.24865   0.00000  Uiso   1.00
C277   C     0.96441   0.49741   0.14508   0.00000  Uiso   1.00
C278   C     0.94856   0.45272   0.49579   0.00000  Uiso   1.00
C279   C     0.94565   0.49410   0.08511   0.00000  Uiso   1.00
C280   C     0.69783   0.54595   0.44408   0.00000  Uiso   1.00
C281   C     0.73104   0.57308   0.49105   0.00000  Uiso   1.00
C282   C     0.81068   0.51820   0.48676   0.00000  Uiso   1.00
C283   C     0.78888   0.56266   0.00982   0.00000  Uiso   1.00
C284   C     0.82669   0.60312   0.04472   0.00000  Uiso   1.00
C285   C     0.72370   0.33348   0.19068   0.00000  Uiso   1.00
C286   C     0.68849   0.34816   0.13455   0.00000  Uiso   1.00
C287   C     0.72866   0.36221   0.09435   0.00000  Uiso   1.00
C288   C     0.77699   0.49131   0.43855   0.00000  Uiso   1.00
C289   C     0.86567   0.50062   0.00827   0.00000  Uiso   1.00
C290   C     0.89145   0.46553   0.47619   0.00000  Uiso   1.00
C291   C     0.85791   0.44024   0.42810   0.00000  Uiso   1.00
C292   C     0.79986   0.44990   0.41224   0.00000  Uiso   1.00
C293   C     0.89189   0.51141   0.06371   0.00000  Uiso   1.00
C294   C     0.97653   0.46871   0.05005   0.00000  Uiso   1.00
H295   H     0.68649   0.45756   0.06592   0.00000  Uiso   1.00
H296   H     0.77350   0.42592   0.37775   0.00000  Uiso   1.00
H297   H     0.75718   0.39828   0.11007   0.00000  Uiso   1.00
H298   H     0.75624   0.66337   0.09005   0.00000  Uiso   1.00
H299   H     0.70236   0.36821   0.05255   0.00000  Uiso   1.00
H300   H     0.99076   0.64778   0.11573   0.00000  Uiso   1.00
H301   H     0.99634   0.38179   0.14027   0.00000  Uiso   1.00
H302   H     0.75794   0.36471   0.20927   0.00000  Uiso   1.00
H303   H     0.74877   0.63376   0.18151   0.00000  Uiso   1.00
H304   H     0.94553   0.66467   0.27156   0.00000  Uiso   1.00
H305   H     0.82332   0.45861   0.20837   0.00000  Uiso   1.00
H306   H     0.84333   0.54138   0.29163   0.00000  Uiso   1.00
H307   H     0.87536   0.41067   0.40488   0.00000  Uiso   1.00
H308   H     0.97005   0.42817   0.47056   0.00000  Uiso   1.00
H309   H     0.86791   0.52879   0.09213   0.00000  Uiso   1.00
H310   H     0.98893   0.55893   0.42655   0.00000  Uiso   1.00
H311   H     0.71334   0.60575   0.00909   0.00000  Uiso   1.00
N312   N     0.81160   0.48556   0.23542   0.00000  Uiso   1.00
N313   N     0.85507   0.51444   0.26457   0.00000  Uiso   1.00
N314   N     0.85732   0.63543   0.07236   0.00000  Uiso   1.00
O315   O     0.96435   0.57963   0.25357   0.00000  Uiso   1.00
O316   O     0.72408   0.57038   0.24423   0.00000  Uiso   1.00
O317   O     0.98157   0.50691   0.33380   0.00000  Uiso   1.00
O318   O     0.74130   0.49766   0.32446   0.00000  Uiso   1.00
O319   O     0.94258   0.42962   0.25576   0.00000  Uiso   1.00
O320   O     0.70231   0.42037   0.24643   0.00000  Uiso   1.00
O321   O     0.92537   0.50234   0.17554   0.00000  Uiso   1.00
O322   O     0.68510   0.49309   0.16620   0.00000  Uiso   1.00
Zn323  Zn    0.93786   0.50618   0.25623   0.00000  Uiso   1.00
Zn324  Zn    0.72881   0.49382   0.24376   0.00000  Uiso   1.00
C325   C     0.01387   0.93129   0.24520   0.00000  Uiso   1.00
C326   C     0.05617   0.84222   0.41494   0.00000  Uiso   1.00
C327   C     0.01695   0.98413   0.23089   0.00000  Uiso   1.00
C328   C     0.03561   0.83504   0.35498   0.00000  Uiso   1.00
C329   C     0.31144   0.68029   0.24898   0.00000  Uiso   1.00
C330   C     0.31785   0.73501   0.24865   0.00000  Uiso   1.00
C331   C     0.29775   0.83074   0.14508   0.00000  Uiso   1.00
C332   C     0.28189   0.78605   0.49579   0.00000  Uiso   1.00
C333   C     0.27898   0.82743   0.08511   0.00000  Uiso   1.00
C334   C     0.03116   0.87928   0.44408   0.00000  Uiso   1.00
C335   C     0.06438   0.90641   0.49105   0.00000  Uiso   1.00
C336   C     0.14402   0.85153   0.48676   0.00000  Uiso   1.00
C337   C     0.12221   0.89599   0.00982   0.00000  Uiso   1.00
C338   C     0.16003   0.93646   0.04472   0.00000  Uiso   1.00
C339   C     0.05703   0.66682   0.19068   0.00000  Uiso   1.00
C340   C     0.02183   0.68149   0.13455   0.00000  Uiso   1.00
C341   C     0.06199   0.69555   0.09435   0.00000  Uiso   1.00
C342   C     0.11032   0.82464   0.43855   0.00000  Uiso   1.00
C343   C     0.19900   0.83395   0.00827   0.00000  Uiso   1.00
C344   C     0.22478   0.79886   0.47619   0.00000  Uiso   1.00
C345   C     0.19124   0.77358   0.42810   0.00000  Uiso   1.00
C346   C     0.13319   0.78324   0.41224   0.00000  Uiso   1.00
C347   C     0.22522   0.84474   0.06371   0.00000  Uiso   1.00
C348   C     0.30987   0.80205   0.05005   0.00000  Uiso   1.00
H349   H     0.01982   0.79089   0.06592   0.00000  Uiso   1.00
H350   H     0.10684   0.75926   0.37775   0.00000  Uiso   1.00
H351   H     0.09051   0.73161   0.11007   0.00000  Uiso   1.00
H352   H     0.08957   0.99670   0.09005   0.00000  Uiso   1.00
H353   H     0.03569   0.70155   0.05255   0.00000  Uiso   1.00
H354   H     0.32409   0.98111   0.11573   0.00000  Uiso   1.00
H355   H     0.32968   0.71513   0.14027   0.00000  Uiso   1.00
H356   H     0.09127   0.69804   0.20927   0.00000  Uiso   1.00
H357   H     0.08211   0.96709   0.18151   0.00000  Uiso   1.00
H358   H     0.27887   0.99801   0.27156   0.00000  Uiso   1.00
H359   H     0.15665   0.79194   0.20837   0.00000  Uiso   1.00
H360   H     0.17667   0.87471   0.29163   0.00000  Uiso   1.00
H361   H     0.20870   0.74400   0.40488   0.00000  Uiso   1.00
H362   H     0.30338   0.76150   0.47056   0.00000  Uiso   1.00
H363   H     0.20125   0.86212   0.09213   0.00000  Uiso   1.00
H364   H     0.32227   0.89226   0.42655   0.00000  Uiso   1.00
H365   H     0.04667   0.93909   0.00909   0.00000  Uiso   1.00
N366   N     0.14493   0.81890   0.23542   0.00000  Uiso   1.00
N367   N     0.18840   0.84777   0.26457   0.00000  Uiso   1.00
N368   N     0.19066   0.96877   0.07236   0.00000  Uiso   1.00
O369   O     0.29769   0.91296   0.25357   0.00000  Uiso   1.00
O370   O     0.05742   0.90371   0.24423   0.00000  Uiso   1.00
O371   O     0.31490   0.84024   0.33380   0.00000  Uiso   1.00
O372   O     0.07463   0.83099   0.32446   0.00000  Uiso   1.00
O373   O     0.27592   0.76296   0.25576   0.00000  Uiso   1.00
O374   O     0.03565   0.75371   0.24643   0.00000  Uiso   1.00
O375   O     0.25870   0.83567   0.17554   0.00000  Uiso   1.00
O376   O     0.01843   0.82642   0.16620   0.00000  Uiso   1.00
Zn377  Zn    0.27119   0.83951   0.25623   0.00000  Uiso   1.00
Zn378  Zn    0.06214   0.82716   0.24376   0.00000  Uiso   1.00
C379   C     0.34720   0.93129   0.24520   0.00000  Uiso   1.00
C380   C     0.38950   0.84222   0.41494   0.00000  Uiso   1.00
C381   C     0.35029   0.98413   0.23089   0.00000  Uiso   1.00
C382   C     0.36894   0.83504   0.35498   0.00000  Uiso   1.00
C383   C     0.64477   0.68029   0.24898   0.00000  Uiso   1.00
C384   C     0.65119   0.73501   0.24865   0.00000  Uiso   1.00
C385   C     0.63108   0.83074   0.14508   0.00000  Uiso   1.00
C386   C     0.61522   0.78605   0.49579   0.00000  Uiso   1.00
C387   C     0.61231   0.82743   0.08511   0.00000  Uiso   1.00
C388   C     0.36449   0.87928   0.44408   0.00000  Uiso   1.00
C389   C     0.39771   0.90641   0.49105   0.00000  Uiso   1.00
C390   C     0.47735   0.85153   0.48676   0.00000  Uiso   1.00
C391   C     0.45554   0.89599   0.00982   0.00000  Uiso   1.00
C392   C     0.49336   0.93646   0.04472   0.00000  Uiso   1.00
C393   C     0.39037   0.66682   0.19068   0.00000  Uiso   1.00
C394   C     0.35516   0.68149   0.13455   0.00000  Uiso   1.00
C395   C     0.39533   0.69555   0.09435   0.00000  Uiso   1.00
C396   C     0.44365   0.82464   0.43855   0.00000  Uiso   1.00
C397   C     0.53234   0.83395   0.00827   0.00000  Uiso   1.00
C398   C     0.55811   0.79886   0.47619   0.00000  Uiso   1.00
C399   C     0.52458   0.77358   0.42810   0.00000  Uiso   1.00
C400   C     0.46652   0.78324   0.41224   0.00000  Uiso   1.00
C401   C     0.55856   0.84474   0.06371   0.00000  Uiso   1.00
C402   C     0.64320   0.80205   0.05005   0.00000  Uiso   1.00
H403   H     0.35316   0.79089   0.06592   0.00000  Uiso   1.00
H404   H     0.44017   0.75926   0.37775   0.00000  Uiso   1.00
H405   H     0.42385   0.73161   0.11007   0.00000  Uiso   1.00
H406   H     0.42290   0.99670   0.09005   0.00000  Uiso   1.00
H407   H     0.36902   0.70155   0.05255   0.00000  Uiso   1.00
H408   H     0.65742   0.98111   0.11573   0.00000  Uiso   1.00
H409   H     0.66301   0.71513   0.14027   0.00000  Uiso   1.00
H410   H     0.42461   0.69804   0.20927   0.00000  Uiso   1.00
H411   H     0.41544   0.96709   0.18151   0.00000  Uiso   1.00
H412   H     0.61220   0.99801   0.27156   0.00000  Uiso   1.00
H413   H     0.48998   0.79194   0.20837   0.00000  Uiso   1.00
H414   H     0.51000   0.87471   0.29163   0.00000  Uiso   1.00
H415   H     0.54203   0.74400   0.40488   0.00000  Uiso   1.00
H416   H     0.63672   0.76150   0.47056   0.00000  Uiso   1.00
H417   H     0.53458   0.86212   0.09213   0.00000  Uiso   1.00
H418   H     0.65560   0.89226   0.42655   0.00000  Uiso   1.00
H419   H     0.38001   0.93909   0.00909   0.00000  Uiso   1.00
N420   N     0.47827   0.81890   0.23542   0.00000  Uiso   1.00
N421   N     0.52173   0.84777   0.26457   0.00000  Uiso   1.00
N422   N     0.52399   0.96877   0.07236   0.00000  Uiso   1.00
O423   O     0.63102   0.91296   0.25357   0.00000  Uiso   1.00
O424   O     0.39075   0.90371   0.24423   0.00000  Uiso   1.00
O425   O     0.64823   0.84024   0.33380   0.00000  Uiso   1.00
O426   O     0.40796   0.83099   0.32446   0.00000  Uiso   1.00
O427   O     0.60925   0.76296   0.25576   0.00000  Uiso   1.00
O428   O     0.36898   0.75371   0.24643   0.00000  Uiso   1.00
O429   O     0.59204   0.83567   0.17554   0.00000  Uiso   1.00
O430   O     0.35177   0.82642   0.16620   0.00000  Uiso   1.00
Zn431  Zn    0.60453   0.83951   0.25623   0.00000  Uiso   1.00
Zn432  Zn    0.39547   0.82716   0.24376   0.00000  Uiso   1.00
C433   C     0.68053   0.93129   0.24520   0.00000  Uiso   1.00
C434   C     0.72284   0.84222   0.41494   0.00000  Uiso   1.00
C435   C     0.68362   0.98413   0.23089   0.00000  Uiso   1.00
C436   C     0.70227   0.83504   0.35498   0.00000  Uiso   1.00
C437   C     0.97811   0.68029   0.24898   0.00000  Uiso   1.00
C438   C     0.98452   0.73501   0.24865   0.00000  Uiso   1.00
C439   C     0.96441   0.83074   0.14508   0.00000  Uiso   1.00
C440   C     0.94856   0.78605   0.49579   0.00000  Uiso   1.00
C441   C     0.94565   0.82743   0.08511   0.00000  Uiso   1.00
C442   C     0.69783   0.87928   0.44408   0.00000  Uiso   1.00
C443   C     0.73104   0.90641   0.49105   0.00000  Uiso   1.00
C444   C     0.81068   0.85153   0.48676   0.00000  Uiso   1.00
C445   C     0.78888   0.89599   0.00982   0.00000  Uiso   1.00
C446   C     0.82669   0.93646   0.04472   0.00000  Uiso   1.00
C447   C     0.72370   0.66682   0.19068   0.00000  Uiso   1.00
C448   C     0.68849   0.68149   0.13455   0.00000  Uiso   1.00
C449   C     0.72866   0.69555   0.09435   0.00000  Uiso   1.00
C450   C     0.77699   0.82464   0.43855   0.00000  Uiso   1.00
C451   C     0.86567   0.83395   0.00827   0.00000  Uiso   1.00
C452   C     0.89145   0.79886   0.47619   0.00000  Uiso   1.00
C453   C     0.85791   0.77358   0.42810   0.00000  Uiso   1.00
C454   C     0.79986   0.78324   0.41224   0.00000  Uiso   1.00
C455   C     0.89189   0.84474   0.06371   0.00000  Uiso   1.00
C456   C     0.97653   0.80205   0.05005   0.00000  Uiso   1.00
H457   H     0.68649   0.79089   0.06592   0.00000  Uiso   1.00
H458   H     0.77350   0.75926   0.37775   0.00000  Uiso   1.00
H459   H     0.75718   0.73161   0.11007   0.00000  Uiso   1.00
H460   H     0.75624   0.99670   0.09005   0.00000  Uiso   1.00
H461   H     0.70236   0.70155   0.05255   0.00000  Uiso   1.00
H462   H     0.99076   0.98111   0.11573   0.00000  Uiso   1.00
H463   H     0.99634   0.71513   0.14027   0.00000  Uiso   1.00
H464   H     0.75794   0.69804   0.20927   0.00000  Uiso   1.00
H465   H     0.74877   0.96709   0.18151   0.00000  Uiso   1.00
H466   H     0.94553   0.99801   0.27156   0.00000  Uiso   1.00
H467   H     0.82332   0.79194   0.20837   0.00000  Uiso   1.00
H468   H     0.84333   0.87471   0.29163   0.00000  Uiso   1.00
H469   H     0.87536   0.74400   0.40488   0.00000  Uiso   1.00
H470   H     0.97005   0.76150   0.47056   0.00000  Uiso   1.00
H471   H     0.86791   0.86212   0.09213   0.00000  Uiso   1.00
H472   H     0.98893   0.89226   0.42655   0.00000  Uiso   1.00
H473   H     0.71334   0.93909   0.00909   0.00000  Uiso   1.00
N474   N     0.81160   0.81890   0.23542   0.00000  Uiso   1.00
N475   N     0.85507   0.84777   0.26457   0.00000  Uiso   1.00
N476   N     0.85732   0.96877   0.07236   0.00000  Uiso   1.00
O477   O     0.96435   0.91296   0.25357   0.00000  Uiso   1.00
O478   O     0.72408   0.90371   0.24423   0.00000  Uiso   1.00
O479   O     0.98157   0.84024   0.33380   0.00000  Uiso   1.00
O480   O     0.74130   0.83099   0.32446   0.00000  Uiso   1.00
O481   O     0.94258   0.76296   0.25576   0.00000  Uiso   1.00
O482   O     0.70231   0.75371   0.24643   0.00000  Uiso   1.00
O483   O     0.92537   0.83567   0.17554   0.00000  Uiso   1.00
O484   O     0.68510   0.82642   0.16620   0.00000  Uiso   1.00
Zn485  Zn    0.93786   0.83951   0.25623   0.00000  Uiso   1.00
Zn486  Zn    0.72881   0.82716   0.24376   0.00000  Uiso   1.00
C487   C     0.01387   0.26463   0.74520   0.00000  Uiso   1.00
C488   C     0.05617   0.17555   0.91494   0.00000  Uiso   1.00
C489   C     0.01695   0.31746   0.73089   0.00000  Uiso   1.00
C490   C     0.03561   0.16838   0.85498   0.00000  Uiso   1.00
C491   C     0.31144   0.01363   0.74898   0.00000  Uiso   1.00
C492   C     0.31785   0.06835   0.74865   0.00000  Uiso   1.00
C493   C     0.29775   0.16407   0.64508   0.00000  Uiso   1.00
C494   C     0.28189   0.11938   0.99579   0.00000  Uiso   1.00
C495   C     0.27898   0.16076   0.58511   0.00000  Uiso   1.00
C496   C     0.03116   0.21261   0.94408   0.00000  Uiso   1.00
C497   C     0.06438   0.23975   0.99105   0.00000  Uiso   1.00
C498   C     0.14402   0.18487   0.98676   0.00000  Uiso   1.00
C499   C     0.12221   0.22932   0.50982   0.00000  Uiso   1.00
C500   C     0.16003   0.26979   0.54472   0.00000  Uiso   1.00
C501   C     0.05703   0.00015   0.69068   0.00000  Uiso   1.00
C502   C     0.02183   0.01482   0.63455   0.00000  Uiso   1.00
C503   C     0.06199   0.02888   0.59435   0.00000  Uiso   1.00
C504   C     0.11032   0.15798   0.93855   0.00000  Uiso   1.00
C505   C     0.19900   0.16729   0.50827   0.00000  Uiso   1.00
C506   C     0.22478   0.13220   0.97619   0.00000  Uiso   1.00
C507   C     0.19124   0.10691   0.92810   0.00000  Uiso   1.00
C508   C     0.13319   0.11657   0.91224   0.00000  Uiso   1.00
C509   C     0.22522   0.17807   0.56371   0.00000  Uiso   1.00
C510   C     0.30987   0.13538   0.55005   0.00000  Uiso   1.00
H511   H     0.01982   0.12422   0.56592   0.00000  Uiso   1.00
H512   H     0.10684   0.09259   0.87775   0.00000  Uiso   1.00
H513   H     0.09051   0.06495   0.61007   0.00000  Uiso   1.00
H514   H     0.08957   0.33004   0.59005   0.00000  Uiso   1.00
H515   H     0.03569   0.03488   0.55255   0.00000  Uiso   1.00
H516   H     0.32409   0.31445   0.61573   0.00000  Uiso   1.00
H517   H     0.32968   0.04846   0.64027   0.00000  Uiso   1.00
H518   H     0.09127   0.03138   0.70927   0.00000  Uiso   1.00
H519   H     0.08211   0.30042   0.68151   0.00000  Uiso   1.00
H520   H     0.27887   0.33134   0.77156   0.00000  Uiso   1.00
H521   H     0.15665   0.12527   0.70837   0.00000  Uiso   1.00
H522   H     0.17667   0.20804   0.79163   0.00000  Uiso   1.00
H523   H     0.20870   0.07733   0.90488   0.00000  Uiso   1.00
H524   H     0.30338   0.09483   0.97056   0.00000  Uiso   1.00
H525   H     0.20125   0.19546   0.59213   0.00000  Uiso   1.00
H526   H     0.32227   0.22560   0.92655   0.00000  Uiso   1.00
H527   H     0.04667   0.27242   0.50909   0.00000  Uiso   1.00
N528   N     0.14493   0.15223   0.73542   0.00000  Uiso   1.00
N529   N     0.18840   0.18110   0.76457   0.00000  Uiso   1.00
N530   N     0.19066   0.30210   0.57236   0.00000  Uiso   1.00
O531   O     0.29769   0.24629   0.75357   0.00000  Uiso   1.00
O532   O     0.05742   0.23704   0.74423   0.00000  Uiso   1.00
O533   O     0.31490   0.17358   0.83380   0.00000  Uiso   1.00
O534   O     0.07463   0.16433   0.82446   0.00000  Uiso   1.00
O535   O     0.27592   0.09629   0.75576   0.00000  Uiso   1.00
O536   O     0.03565   0.08704   0.74643   0.00000  Uiso   1.00
O537   O     0.25870   0.16901   0.67554   0.00000  Uiso   1.00
O538   O     0.01843   0.15976   0.66620   0.00000  Uiso   1.00
Zn539  Zn    0.27119   0.17284   0.75623   0.00000  Uiso   1.00
Zn540  Zn    0.06214   0.16049   0.74376   0.00000  Uiso   1.00
C541   C     0.34720   0.26463   0.74520   0.00000  Uiso   1.00
C542   C     0.38950   0.17555   0.91494   0.00000  Uiso   1.00
C543   C     0.35029   0.31746   0.73089   0.00000  Uiso   1.00
C544   C     0.36894   0.16838   0.85498   0.00000  Uiso   1.00
C545   C     0.64477   0.01363   0.74898   0.00000  Uiso   1.00
C546   C     0.65119   0.06835   0.74865   0.00000  Uiso   1.00
C547   C     0.63108   0.16407   0.64508   0.00000  Uiso   1.00
C548   C     0.61522   0.11938   0.99579   0.00000  Uiso   1.00
C549   C     0.61231   0.16076   0.58511   0.00000  Uiso   1.00
C550   C     0.36449   0.21261   0.94408   0.00000  Uiso   1.00
C551   C     0.39771   0.23975   0.99105   0.00000  Uiso   1.00
C552   C     0.47735   0.18487   0.98676   0.00000  Uiso   1.00
C553   C     0.45554   0.22932   0.50982   0.00000  Uiso   1.00
C554   C     0.49336   0.26979   0.54472   0.00000  Uiso   1.00
C555   C     0.39037   0.00015   0.69068   0.00000  Uiso   1.00
C556   C     0.35516   0.01482   0.63455   0.00000  Uiso   1.00
C557   C     0.39533   0.02888   0.59435   0.00000  Uiso   1.00
C558   C     0.44365   0.15798   0.93855   0.00000  Uiso   1.00
C559   C     0.53234   0.16729   0.50827   0.00000  Uiso   1.00
C560   C     0.55811   0.13220   0.97619   0.00000  Uiso   1.00
C561   C     0.52458   0.10691   0.92810   0.00000  Uiso   1.00
C562   C     0.46652   0.11657   0.91224   0.00000  Uiso   1.00
C563   C     0.55856   0.17807   0.56371   0.00000  Uiso   1.00
C564   C     0.64320   0.13538   0.55005   0.00000  Uiso   1.00
H565   H     0.35316   0.12422   0.56592   0.00000  Uiso   1.00
H566   H     0.44017   0.09259   0.87775   0.00000  Uiso   1.00
H567   H     0.42385   0.06495   0.61007   0.00000  Uiso   1.00
H568   H     0.42290   0.33004   0.59005   0.00000  Uiso   1.00
H569   H     0.36902   0.03488   0.55255   0.00000  Uiso   1.00
H570   H     0.65742   0.31445   0.61573   0.00000  Uiso   1.00
H571   H     0.66301   0.04846   0.64027   0.00000  Uiso   1.00
H572   H     0.42461   0.03138   0.70927   0.00000  Uiso   1.00
H573   H     0.41544   0.30042   0.68151   0.00000  Uiso   1.00
H574   H     0.61220   0.33134   0.77156   0.00000  Uiso   1.00
H575   H     0.48998   0.12527   0.70837   0.00000  Uiso   1.00
H576   H     0.51000   0.20804   0.79163   0.00000  Uiso   1.00
H577   H     0.54203   0.07733   0.90488   0.00000  Uiso   1.00
H578   H     0.63672   0.09483   0.97056   0.00000  Uiso   1.00
H579   H     0.53458   0.19546   0.59213   0.00000  Uiso   1.00
H580   H     0.65560   0.22560   0.92655   0.00000  Uiso   1.00
H581   H     0.38001   0.27242   0.50909   0.00000  Uiso   1.00
N582   N     0.47827   0.15223   0.73542   0.00000  Uiso   1.00
N583   N     0.52173   0.18110   0.76457   0.00000  Uiso   1.00
N584   N     0.52399   0.30210   0.57236   0.00000  Uiso   1.00
O585   O     0.63102   0.24629   0.75357   0.00000  Uiso   1.00
O586   O     0.39075   0.23704   0.74423   0.00000  Uiso   1.00
O587   O     0.64823   0.17358   0.83380   0.00000  Uiso   1.00
O588   O     0.40796   0.16433   0.82446   0.00000  Uiso   1.00
O589   O     0.60925   0.09629   0.75576   0.00000  Uiso   1.00
O590   O     0.36898   0.08704   0.74643   0.00000  Uiso   1.00
O591   O     0.59204   0.16901   0.67554   0.00000  Uiso   1.00
O592   O     0.35177   0.15976   0.66620   0.00000  Uiso   1.00
Zn593  Zn    0.60453   0.17284   0.75623   0.00000  Uiso   1.00
Zn594  Zn    0.39547   0.16049   0.74376   0.00000  Uiso   1.00
C595   C     0.68053   0.26463   0.74520   0.00000  Uiso   1.00
C596   C     0.72284   0.17555   0.91494   0.00000  Uiso   1.00
C597   C     0.68362   0.31746   0.73089   0.00000  Uiso   1.00
C598   C     0.70227   0.16838   0.85498   0.00000  Uiso   1.00
C599   C     0.97811   0.01363   0.74898   0.00000  Uiso   1.00
C600   C     0.98452   0.06835   0.74865   0.00000  Uiso   1.00
C601   C     0.96441   0.16407   0.64508   0.00000  Uiso   1.00
C602   C     0.94856   0.11938   0.99579   0.00000  Uiso   1.00
C603   C     0.94565   0.16076   0.58511   0.00000  Uiso   1.00
C604   C     0.69783   0.21261   0.94408   0.00000  Uiso   1.00
C605   C     0.73104   0.23975   0.99105   0.00000  Uiso   1.00
C606   C     0.81068   0.18487   0.98676   0.00000  Uiso   1.00
C607   C     0.78888   0.22932   0.50982   0.00000  Uiso   1.00
C608   C     0.82669   0.26979   0.54472   0.00000  Uiso   1.00
C609   C     0.72370   0.00015   0.69068   0.00000  Uiso   1.00
C610   C     0.68849   0.01482   0.63455   0.00000  Uiso   1.00
C611   C     0.72866   0.02888   0.59435   0.00000  Uiso   1.00
C612   C     0.77699   0.15798   0.93855   0.00000  Uiso   1.00
C613   C     0.86567   0.16729   0.50827   0.00000  Uiso   1.00
C614   C     0.89145   0.13220   0.97619   0.00000  Uiso   1.00
C615   C     0.85791   0.10691   0.92810   0.00000  Uiso   1.00
C616   C     0.79986   0.11657   0.91224   0.00000  Uiso   1.00
C617   C     0.89189   0.17807   0.56371   0.00000  Uiso   1.00
C618   C     0.97653   0.13538   0.55005   0.00000  Uiso   1.00
H619   H     0.68649   0.12422   0.56592   0.00000  Uiso   1.00
H620   H     0.77350   0.09259   0.87775   0.00000  Uiso   1.00
H621   H     0.75718   0.06495   0.61007   0.00000  Uiso   1.00
H622   H     0.75624   0.33004   0.59005   0.00000  Uiso   1.00
H623   H     0.70236   0.03488   0.55255   0.00000  Uiso   1.00
H624   H     0.99076   0.31445   0.61573   0.00000  Uiso   1.00
H625   H     0.99634   0.04846   0.64027   0.00000  Uiso   1.00
H626   H     0.75794   0.03138   0.70927   0.00000  Uiso   1.00
H627   H     0.74877   0.30042   0.68151   0.00000  Uiso   1.00
H628   H     0.94553   0.33134   0.77156   0.00000  Uiso   1.00
H629   H     0.82332   0.12527   0.70837   0.00000  Uiso   1.00
H630   H     0.84333   0.20804   0.79163   0.00000  Uiso   1.00
H631   H     0.87536   0.07733   0.90488   0.00000  Uiso   1.00
H632   H     0.97005   0.09483   0.97056   0.00000  Uiso   1.00
H633   H     0.86791   0.19546   0.59213   0.00000  Uiso   1.00
H634   H     0.98893   0.22560   0.92655   0.00000  Uiso   1.00
H635   H     0.71334   0.27242   0.50909   0.00000  Uiso   1.00
N636   N     0.81160   0.15223   0.73542   0.00000  Uiso   1.00
N637   N     0.85507   0.18110   0.76457   0.00000  Uiso   1.00
N638   N     0.85732   0.30210   0.57236   0.00000  Uiso   1.00
O639   O     0.96435   0.24629   0.75357   0.00000  Uiso   1.00
O640   O     0.72408   0.23704   0.74423   0.00000  Uiso   1.00
O641   O     0.98157   0.17358   0.83380   0.00000  Uiso   1.00
O642   O     0.74130   0.16433   0.82446   0.00000  Uiso   1.00
O643   O     0.94258   0.09629   0.75576   0.00000  Uiso   1.00
O644   O     0.70231   0.08704   0.74643   0.00000  Uiso   1.00
O645   O     0.92537   0.16901   0.67554   0.00000  Uiso   1.00
O646   O     0.68510   0.15976   0.66620   0.00000  Uiso   1.00
Zn647  Zn    0.93786   0.17284   0.75623   0.00000  Uiso   1.00
Zn648  Zn    0.72881   0.16049   0.74376   0.00000  Uiso   1.00
C649   C     0.01387   0.59796   0.74520   0.00000  Uiso   1.00
C650   C     0.05617   0.50889   0.91494   0.00000  Uiso   1.00
C651   C     0.01695   0.65079   0.73089   0.00000  Uiso   1.00
C652   C     0.03561   0.50171   0.85498   0.00000  Uiso   1.00
C653   C     0.31144   0.34696   0.74898   0.00000  Uiso   1.00
C654   C     0.31785   0.40168   0.74865   0.00000  Uiso   1.00
C655   C     0.29775   0.49741   0.64508   0.00000  Uiso   1.00
C656   C     0.28189   0.45272   0.99579   0.00000  Uiso   1.00
C657   C     0.27898   0.49410   0.58511   0.00000  Uiso   1.00
C658   C     0.03116   0.54595   0.94408   0.00000  Uiso   1.00
C659   C     0.06438   0.57308   0.99105   0.00000  Uiso   1.00
C660   C     0.14402   0.51820   0.98676   0.00000  Uiso   1.00
C661   C     0.12221   0.56266   0.50982   0.00000  Uiso   1.00
C662   C     0.16003   0.60312   0.54472   0.00000  Uiso   1.00
C663   C     0.05703   0.33348   0.69068   0.00000  Uiso   1.00
C664   C     0.02183   0.34816   0.63455   0.00000  Uiso   1.00
C665   C     0.06199   0.36221   0.59435   0.00000  Uiso   1.00
C666   C     0.11032   0.49131   0.93855   0.00000  Uiso   1.00
C667   C     0.19900   0.50062   0.50827   0.00000  Uiso   1.00
C668   C     0.22478   0.46553   0.97619   0.00000  Uiso   1.00
C669   C     0.19124   0.44024   0.92810   0.00000  Uiso   1.00
C670   C     0.13319   0.44990   0.91224   0.00000  Uiso   1.00
C671   C     0.22522   0.51141   0.56371   0.00000  Uiso   1.00
C672   C     0.30987   0.46871   0.55005   0.00000  Uiso   1.00
H673   H     0.01982   0.45756   0.56592   0.00000  Uiso   1.00
H674   H     0.10684   0.42592   0.87775   0.00000  Uiso   1.00
H675   H     0.09051   0.39828   0.61007   0.00000  Uiso   1.00
H676   H     0.08957   0.66337   0.59005   0.00000  Uiso   1.00
H677   H     0.03569   0.36821   0.55255   0.00000  Uiso   1.00
H678   H     0.32409   0.64778   0.61573   0.00000  Uiso   1.00
H679   H     0.32968   0.38179   0.64027   0.00000  Uiso   1.00
H680   H     0.09127   0.36471   0.70927   0.00000  Uiso   1.00
H681   H     0.08211   0.63376   0.68151   0.00000  Uiso   1.00
H682   H     0.27887   0.66467   0.77156   0.00000  Uiso   1.00
H683   H     0.15665   0.45861   0.70837   0.00000  Uiso   1.00
H684   H     0.17667   0.54138   0.79163   0.00000  Uiso   1.00
H685   H     0.20870   0.41067   0.90488   0.00000  Uiso   1.00
H686   H     0.30338   0.42817   0.97056   0.00000  Uiso   1.00
H687   H     0.20125   0.52879   0.59213   0.00000  Uiso   1.00
H688   H     0.32227   0.55893   0.92655   0.00000  Uiso   1.00
H689   H     0.04667   0.60575   0.50909   0.00000  Uiso   1.00
N690   N     0.14493   0.48556   0.73542   0.00000  Uiso   1.00
N691   N     0.18840   0.51444   0.76457   0.00000  Uiso   1.00
N692   N     0.19066   0.63543   0.57236   0.00000  Uiso   1.00
O693   O     0.29769   0.57963   0.75357   0.00000  Uiso   1.00
O694   O     0.05742   0.57038   0.74423   0.00000  Uiso   1.00
O695   O     0.31490   0.50691   0.83380   0.00000  Uiso   1.00
O696   O     0.07463   0.49766   0.82446   0.00000  Uiso   1.00
O697   O     0.27592   0.42962   0.75576   0.00000  Uiso   1.00
O698   O     0.03565   0.42037   0.74643   0.00000  Uiso   1.00
O699   O     0.25870   0.50234   0.67554   0.00000  Uiso   1.00
O700   O     0.01843   0.49309   0.66620   0.00000  Uiso   1.00
Zn701  Zn    0.27119   0.50618   0.75623   0.00000  Uiso   1.00
Zn702  Zn    0.06214   0.49382   0.74376   0.00000  Uiso   1.00
C703   C     0.34720   0.59796   0.74520   0.00000  Uiso   1.00
C704   C     0.38950   0.50889   0.91494   0.00000  Uiso   1.00
C705   C     0.35029   0.65079   0.73089   0.00000  Uiso   1.00
C706   C     0.36894   0.50171   0.85498   0.00000  Uiso   1.00
C707   C     0.64477   0.34696   0.74898   0.00000  Uiso   1.00
C708   C     0.65119   0.40168   0.74865   0.00000  Uiso   1.00
C709   C     0.63108   0.49741   0.64508   0.00000  Uiso   1.00
C710   C     0.61522   0.45272   0.99579   0.00000  Uiso   1.00
C711   C     0.61231   0.49410   0.58511   0.00000  Uiso   1.00
C712   C     0.36449   0.54595   0.94408   0.00000  Uiso   1.00
C713   C     0.39771   0.57308   0.99105   0.00000  Uiso   1.00
C714   C     0.47735   0.51820   0.98676   0.00000  Uiso   1.00
C715   C     0.45554   0.56266   0.50982   0.00000  Uiso   1.00
C716   C     0.49336   0.60312   0.54472   0.00000  Uiso   1.00
C717   C     0.39037   0.33348   0.69068   0.00000  Uiso   1.00
C718   C     0.35516   0.34816   0.63455   0.00000  Uiso   1.00
C719   C     0.39533   0.36221   0.59435   0.00000  Uiso   1.00
C720   C     0.44365   0.49131   0.93855   0.00000  Uiso   1.00
C721   C     0.53234   0.50062   0.50827   0.00000  Uiso   1.00
C722   C     0.55811   0.46553   0.97619   0.00000  Uiso   1.00
C723   C     0.52458   0.44024   0.92810   0.00000  Uiso   1.00
C724   C     0.46652   0.44990   0.91224   0.00000  Uiso   1.00
C725   C     0.55856   0.51141   0.56371   0.00000  Uiso   1.00
C726   C     0.64320   0.46871   0.55005   0.00000  Uiso   1.00
H727   H     0.35316   0.45756   0.56592   0.00000  Uiso   1.00
H728   H     0.44017   0.42592   0.87775   0.00000  Uiso   1.00
H729   H     0.42385   0.39828   0.61007   0.00000  Uiso   1.00
H730   H     0.42290   0.66337   0.59005   0.00000  Uiso   1.00
H731   H     0.36902   0.36821   0.55255   0.00000  Uiso   1.00
H732   H     0.65742   0.64778   0.61573   0.00000  Uiso   1.00
H733   H     0.66301   0.38179   0.64027   0.00000  Uiso   1.00
H734   H     0.42461   0.36471   0.70927   0.00000  Uiso   1.00
H735   H     0.41544   0.63376   0.68151   0.00000  Uiso   1.00
H736   H     0.61220   0.66467   0.77156   0.00000  Uiso   1.00
H737   H     0.48998   0.45861   0.70837   0.00000  Uiso   1.00
H738   H     0.51000   0.54138   0.79163   0.00000  Uiso   1.00
H739   H     0.54203   0.41067   0.90488   0.00000  Uiso   1.00
H740   H     0.63672   0.42817   0.97056   0.00000  Uiso   1.00
H741   H     0.53458   0.52879   0.59213   0.00000  Uiso   1.00
H742   H     0.65560   0.55893   0.92655   0.00000  Uiso   1.00
H743   H     0.38001   0.60575   0.50909   0.00000  Uiso   1.00
N744   N     0.47827   0.48556   0.73542   0.00000  Uiso   1.00
N745   N     0.52173   0.51444   0.76457   0.00000  Uiso   1.00
N746   N     0.52399   0.63543   0.57236   0.00000  Uiso   1.00
O747   O     0.63102   0.57963   0.75357   0.00000  Uiso   1.00
O748   O     0.39075   0.57038   0.74423   0.00000  Uiso   1.00
O749   O     0.64823   0.50691   0.83380   0.00000  Uiso   1.00
O750   O     0.40796   0.49766   0.82446   0.00000  Uiso   1.00
O751   O     0.60925   0.42962   0.75576   0.00000  Uiso   1.00
O752   O     0.36898   0.42037   0.74643   0.00000  Uiso   1.00
O753   O     0.59204   0.50234   0.67554   0.00000  Uiso   1.00
O754   O     0.35177   0.49309   0.66620   0.00000  Uiso   1.00
Zn755  Zn    0.60453   0.50618   0.75623   0.00000  Uiso   1.00
Zn756  Zn    0.39547   0.49382   0.74376   0.00000  Uiso   1.00
C757   C     0.68053   0.59796   0.74520   0.00000  Uiso   1.00
C758   C     0.72284   0.50889   0.91494   0.00000  Uiso   1.00
C759   C     0.68362   0.65079   0.73089   0.00000  Uiso   1.00
C760   C     0.70227   0.50171   0.85498   0.00000  Uiso   1.00
C761   C     0.97811   0.34696   0.74898   0.00000  Uiso   1.00
C762   C     0.98452   0.40168   0.74865   0.00000  Uiso   1.00
C763   C     0.96441   0.49741   0.64508   0.00000  Uiso   1.00
C764   C     0.94856   0.45272   0.99579   0.00000  Uiso   1.00
C765   C     0.94565   0.49410   0.58511   0.00000  Uiso   1.00
C766   C     0.69783   0.54595   0.94408   0.00000  Uiso   1.00
C767   C     0.73104   0.57308   0.99105   0.00000  Uiso   1.00
C768   C     0.81068   0.51820   0.98676   0.00000  Uiso   1.00
C769   C     0.78888   0.56266   0.50982   0.00000  Uiso   1.00
C770   C     0.82669   0.60312   0.54472   0.00000  Uiso   1.00
C771   C     0.72370   0.33348   0.69068   0.00000  Uiso   1.00
C772   C     0.68849   0.34816   0.63455   0.00000  Uiso   1.00
C773   C     0.72866   0.36221   0.59435   0.00000  Uiso   1.00
C774   C     0.77699   0.49131   0.93855   0.00000  Uiso   1.00
C775   C     0.86567   0.50062   0.50827   0.00000  Uiso   1.00
C776   C     0.89145   0.46553   0.97619   0.00000  Uiso   1.00
C777   C     0.85791   0.44024   0.92810   0.00000  Uiso   1.00
C778   C     0.79986   0.44990   0.91224   0.00000  Uiso   1.00
C779   C     0.89189   0.51141   0.56371   0.00000  Uiso   1.00
C780   C     0.97653   0.46871   0.55005   0.00000  Uiso   1.00
H781   H     0.68649   0.45756   0.56592   0.00000  Uiso   1.00
H782   H     0.77350   0.42592   0.87775   0.00000  Uiso   1.00
H783   H     0.75718   0.39828   0.61007   0.00000  Uiso   1.00
H784   H     0.75624   0.66337   0.59005   0.00000  Uiso   1.00
H785   H     0.70236   0.36821   0.55255   0.00000  Uiso   1.00
H786   H     0.99076   0.64778   0.61573   0.00000  Uiso   1.00
H787   H     0.99634   0.38179   0.64027   0.00000  Uiso   1.00
H788   H     0.75794   0.36471   0.70927   0.00000  Uiso   1.00
H789   H     0.74877   0.63376   0.68151   0.00000  Uiso   1.00
H790   H     0.94553   0.66467   0.77156   0.00000  Uiso   1.00
H791   H     0.82332   0.45861   0.70837   0.00000  Uiso   1.00
H792   H     0.84333   0.54138   0.79163   0.00000  Uiso   1.00
H793   H     0.87536   0.41067   0.90488   0.00000  Uiso   1.00
H794   H     0.97005   0.42817   0.97056   0.00000  Uiso   1.00
H795   H     0.86791   0.52879   0.59213   0.00000  Uiso   1.00
H796   H     0.98893   0.55893   0.92655   0.00000  Uiso   1.00
H797   H     0.71334   0.60575   0.50909   0.00000  Uiso   1.00
N798   N     0.81160   0.48556   0.73542   0.00000  Uiso   1.00
N799   N     0.85507   0.51444   0.76457   0.00000  Uiso   1.00
N800   N     0.85732   0.63543   0.57236   0.00000  Uiso   1.00
O801   O     0.96435   0.57963   0.75357   0.00000  Uiso   1.00
O802   O     0.72408   0.57038   0.74423   0.00000  Uiso   1.00
O803   O     0.98157   0.50691   0.83380   0.00000  Uiso   1.00
O804   O     0.74130   0.49766   0.82446   0.00000  Uiso   1.00
O805   O     0.94258   0.42962   0.75576   0.00000  Uiso   1.00
O806   O     0.70231   0.42037   0.74643   0.00000  Uiso   1.00
O807   O     0.92537   0.50234   0.67554   0.00000  Uiso   1.00
O808   O     0.68510   0.49309   0.66620   0.00000  Uiso   1.00
Zn809  Zn    0.93786   0.50618   0.75623   0.00000  Uiso   1.00
Zn810  Zn    0.72881   0.49382   0.74376   0.00000  Uiso   1.00
C811   C     0.01387   0.93129   0.74520   0.00000  Uiso   1.00
C812   C     0.05617   0.84222   0.91494   0.00000  Uiso   1.00
C813   C     0.01695   0.98413   0.73089   0.00000  Uiso   1.00
C814   C     0.03561   0.83504   0.85498   0.00000  Uiso   1.00
C815   C     0.31144   0.68029   0.74898   0.00000  Uiso   1.00
C816   C     0.31785   0.73501   0.74865   0.00000  Uiso   1.00
C817   C     0.29775   0.83074   0.64508   0.00000  Uiso   1.00
C818   C     0.28189   0.78605   0.99579   0.00000  Uiso   1.00
C819   C     0.27898   0.82743   0.58511   0.00000  Uiso   1.00
C820   C     0.03116   0.87928   0.94408   0.00000  Uiso   1.00
C821   C     0.06438   0.90641   0.99105   0.00000  Uiso   1.00
C822   C     0.14402   0.85153   0.98676   0.00000  Uiso   1.00
C823   C     0.12221   0.89599   0.50982   0.00000  Uiso   1.00
C824   C     0.16003   0.93646   0.54472   0.00000  Uiso   1.00
C825   C     0.05703   0.66682   0.69068   0.00000  Uiso   1.00
C826   C     0.02183   0.68149   0.63455   0.00000  Uiso   1.00
C827   C     0.06199   0.69555   0.59435   0.00000  Uiso   1.00
C828   C     0.11032   0.82464   0.93855   0.00000  Uiso   1.00
C829   C     0.19900   0.83395   0.50827   0.00000  Uiso   1.00
C830   C     0.22478   0.79886   0.97619   0.00000  Uiso   1.00
C831   C     0.19124   0.77358   0.92810   0.00000  Uiso   1.00
C832   C     0.13319   0.78324   0.91224   0.00000  Uiso   1.00
C833   C     0.22522   0.84474   0.56371   0.00000  Uiso   1.00
C834   C     0.30987   0.80205   0.55005   0.00000  Uiso   1.00
H835   H     0.01982   0.79089   0.56592   0.00000  Uiso   1.00
H836   H     0.10684   0.75926   0.87775   0.00000  Uiso   1.00
H837   H     0.09051   0.73161   0.61007   0.00000  Uiso   1.00
H838   H     0.08957   0.99670   0.59005   0.00000  Uiso   1.00
H839   H     0.03569   0.70155   0.55255   0.00000  Uiso   1.00
H840   H     0.32409   0.98111   0.61573   0.00000  Uiso   1.00
H841   H     0.32968   0.71513   0.64027   0.00000  Uiso   1.00
H842   H     0.09127   0.69804   0.70927   0.00000  Uiso   1.00
H843   H     0.08211   0.96709   0.68151   0.00000  Uiso   1.00
H844   H     0.27887   0.99801   0.77156   0.00000  Uiso   1.00
H845   H     0.15665   0.79194   0.70837   0.00000  Uiso   1.00
H846   H     0.17667   0.87471   0.79163   0.00000  Uiso   1.00
H847   H     0.20870   0.74400   0.90488   0.00000  Uiso   1.00
H848   H     0.30338   0.76150   0.97056   0.00000  Uiso   1.00
H849   H     0.20125   0.86212   0.59213   0.00000  Uiso   1.00
H850   H     0.32227   0.89226   0.92655   0.00000  Uiso   1.00
H851   H     0.04667   0.93909   0.50909   0.00000  Uiso   1.00
N852   N     0.14493   0.81890   0.73542   0.00000  Uiso   1.00
N853   N     0.18840   0.84777   0.76457   0.00000  Uiso   1.00
N854   N     0.19066   0.96877   0.57236   0.00000  Uiso   1.00
O855   O     0.29769   0.91296   0.75357   0.00000  Uiso   1.00
O856   O     0.05742   0.90371   0.74423   0.00000  Uiso   1.00
O857   O     0.31490   0.84024   0.83380   0.00000  Uiso   1.00
O858   O     0.07463   0.83099   0.82446   0.00000  Uiso   1.00
O859   O     0.27592   0.76296   0.75576   0.00000  Uiso   1.00
O860   O     0.03565   0.75371   0.74643   0.00000  Uiso   1.00
O861   O     0.25870   0.83567   0.67554   0.00000  Uiso   1.00
O862   O     0.01843   0.82642   0.66620   0.00000  Uiso   1.00
Zn863  Zn    0.27119   0.83951   0.75623   0.00000  Uiso   1.00
Zn864  Zn    0.06214   0.82716   0.74376   0.00000  Uiso   1.00
C865   C     0.34720   0.93129   0.74520   0.00000  Uiso   1.00
C866   C     0.38950   0.84222   0.91494   0.00000  Uiso   1.00
C867   C     0.35029   0.98413   0.73089   0.00000  Uiso   1.00
C868   C     0.36894   0.83504   0.85498   0.00000  Uiso   1.00
C869   C     0.64477   0.68029   0.74898   0.00000  Uiso   1.00
C870   C     0.65119   0.73501   0.74865   0.00000  Uiso   1.00
C871   C     0.63108   0.83074   0.64508   0.00000  Uiso   1.00
C872   C     0.61522   0.78605   0.99579   0.00000  Uiso   1.00
C873   C     0.61231   0.82743   0.58511   0.00000  Uiso   1.00
C874   C     0.36449   0.87928   0.94408   0.00000  Uiso   1.00
C875   C     0.39771   0.90641   0.99105   0.00000  Uiso   1.00
C876   C     0.47735   0.85153   0.98676   0.00000  Uiso   1.00
C877   C     0.45554   0.89599   0.50982   0.00000  Uiso   1.00
C878   C     0.49336   0.93646   0.54472   0.00000  Uiso   1.00
C879   C     0.39037   0.66682   0.69068   0.00000  Uiso   1.00
C880   C     0.35516   0.68149   0.63455   0.00000  Uiso   1.00
C881   C     0.39533   0.69555   0.59435   0.00000  Uiso   1.00
C882   C     0.44365   0.82464   0.93855   0.00000  Uiso   1.00
C883   C     0.53234   0.83395   0.50827   0.00000  Uiso   1.00
C884   C     0.55811   0.79886   0.97619   0.00000  Uiso   1.00
C885   C     0.52458   0.77358   0.92810   0.00000  Uiso   1.00
C886   C     0.46652   0.78324   0.91224   0.00000  Uiso   1.00
C887   C     0.55856   0.84474   0.56371   0.00000  Uiso   1.00
C888   C     0.64320   0.80205   0.55005   0.00000  Uiso   1.00
H889   H     0.35316   0.79089   0.56592   0.00000  Uiso   1.00
H890   H     0.44017   0.75926   0.87775   0.00000  Uiso   1.00
H891   H     0.42385   0.73161   0.61007   0.00000  Uiso   1.00
H892   H     0.42290   0.99670   0.59005   0.00000  Uiso   1.00
H893   H     0.36902   0.70155   0.55255   0.00000  Uiso   1.00
H894   H     0.65742   0.98111   0.61573   0.00000  Uiso   1.00
H895   H     0.66301   0.71513   0.64027   0.00000  Uiso   1.00
H896   H     0.42461   0.69804   0.70927   0.00000  Uiso   1.00
H897   H     0.41544   0.96709   0.68151   0.00000  Uiso   1.00
H898   H     0.61220   0.99801   0.77156   0.00000  Uiso   1.00
H899   H     0.48998   0.79194   0.70837   0.00000  Uiso   1.00
H900   H     0.51000   0.87471   0.79163   0.00000  Uiso   1.00
H901   H     0.54203   0.74400   0.90488   0.00000  Uiso   1.00
H902   H     0.63672   0.76150   0.97056   0.00000  Uiso   1.00
H903   H     0.53458   0.86212   0.59213   0.00000  Uiso   1.00
H904   H     0.65560   0.89226   0.92655   0.00000  Uiso   1.00
H905   H     0.38001   0.93909   0.50909   0.00000  Uiso   1.00
N906   N     0.47827   0.81890   0.73542   0.00000  Uiso   1.00
N907   N     0.52173   0.84777   0.76457   0.00000  Uiso   1.00
N908   N     0.52399   0.96877   0.57236   0.00000  Uiso   1.00
O909   O     0.63102   0.91296   0.75357   0.00000  Uiso   1.00
O910   O     0.39075   0.90371   0.74423   0.00000  Uiso   1.00
O911   O     0.64823   0.84024   0.83380   0.00000  Uiso   1.00
O912   O     0.40796   0.83099   0.82446   0.00000  Uiso   1.00
O913   O     0.60925   0.76296   0.75576   0.00000  Uiso   1.00
O914   O     0.36898   0.75371   0.74643   0.00000  Uiso   1.00
O915   O     0.59204   0.83567   0.67554   0.00000  Uiso   1.00
O916   O     0.35177   0.82642   0.66620   0.00000  Uiso   1.00
Zn917  Zn    0.60453   0.83951   0.75623   0.00000  Uiso   1.00
Zn918  Zn    0.39547   0.82716   0.74376   0.00000  Uiso   1.00
C919   C     0.68053   0.93129   0.74520   0.00000  Uiso   1.00
C920   C     0.72284   0.84222   0.91494   0.00000  Uiso   1.00
C921   C     0.68362   0.98413   0.73089   0.00000  Uiso   1.00
C922   C     0.70227   0.83504   0.85498   0.00000  Uiso   1.00
C923   C     0.97811   0.68029   0.74898   0.00000  Uiso   1.00
C924   C     0.98452   0.73501   0.74865   0.00000  Uiso   1.00
C925   C     0.96441   0.83074   0.64508   0.00000  Uiso   1.00
C926   C     0.94856   0.78605   0.99579   0.00000  Uiso   1.00
C927   C     0.94565   0.82743   0.58511   0.00000  Uiso   1.00
C928   C     0.69783   0.87928   0.94408   0.00000  Uiso   1.00
C929   C     0.73104   0.90641   0.99105   0.00000  Uiso   1.00
C930   C     0.81068   0.85153   0.98676   0.00000  Uiso   1.00
C931   C     0.78888   0.89599   0.50982   0.00000  Uiso   1.00
C932   C     0.82669   0.93646   0.54472   0.00000  Uiso   1.00
C933   C     0.72370   0.66682   0.69068   0.00000  Uiso   1.00
C934   C     0.68849   0.68149   0.63455   0.00000  Uiso   1.00
C935   C     0.72866   0.69555   0.59435   0.00000  Uiso   1.00
C936   C     0.77699   0.82464   0.93855   0.00000  Uiso   1.00
C937   C     0.86567   0.83395   0.50827   0.00000  Uiso   1.00
C938   C     0.89145   0.79886   0.97619   0.00000  Uiso   1.00
C939   C     0.85791   0.77358   0.92810   0.00000  Uiso   1.00
C940   C     0.79986   0.78324   0.91224   0.00000  Uiso   1.00
C941   C     0.89189   0.84474   0.56371   0.00000  Uiso   1.00
C942   C     0.97653   0.80205   0.55005   0.00000  Uiso   1.00
H943   H     0.68649   0.79089   0.56592   0.00000  Uiso   1.00
H944   H     0.77350   0.75926   0.87775   0.00000  Uiso   1.00
H945   H     0.75718   0.73161   0.61007   0.00000  Uiso   1.00
H946   H     0.75624   0.99670   0.59005   0.00000  Uiso   1.00
H947   H     0.70236   0.70155   0.55255   0.00000  Uiso   1.00
H948   H     0.99076   0.98111   0.61573   0.00000  Uiso   1.00
H949   H     0.99634   0.71513   0.64027   0.00000  Uiso   1.00
H950   H     0.75794   0.69804   0.70927   0.00000  Uiso   1.00
H951   H     0.74877   0.96709   0.68151   0.00000  Uiso   1.00
H952   H     0.94553   0.99801   0.77156   0.00000  Uiso   1.00
H953   H     0.82332   0.79194   0.70837   0.00000  Uiso   1.00
H954   H     0.84333   0.87471   0.79163   0.00000  Uiso   1.00
H955   H     0.87536   0.74400   0.90488   0.00000  Uiso   1.00
H956   H     0.97005   0.76150   0.97056   0.00000  Uiso   1.00
H957   H     0.86791   0.86212   0.59213   0.00000  Uiso   1.00
H958   H     0.98893   0.89226   0.92655   0.00000  Uiso   1.00
H959   H     0.71334   0.93909   0.50909   0.00000  Uiso   1.00
N960   N     0.81160   0.81890   0.73542   0.00000  Uiso   1.00
N961   N     0.85507   0.84777   0.76457   0.00000  Uiso   1.00
N962   N     0.85732   0.96877   0.57236   0.00000  Uiso   1.00
O963   O     0.96435   0.91296   0.75357   0.00000  Uiso   1.00
O964   O     0.72408   0.90371   0.74423   0.00000  Uiso   1.00
O965   O     0.98157   0.84024   0.83380   0.00000  Uiso   1.00
O966   O     0.74130   0.83099   0.82446   0.00000  Uiso   1.00
O967   O     0.94258   0.76296   0.75576   0.00000  Uiso   1.00
O968   O     0.70231   0.75371   0.74643   0.00000  Uiso   1.00
O969   O     0.92537   0.83567   0.67554   0.00000  Uiso   1.00
O970   O     0.68510   0.82642   0.66620   0.00000  Uiso   1.00
Zn971  Zn    0.93786   0.83951   0.75623   0.00000  Uiso   1.00
Zn972  Zn    0.72881   0.82716   0.74376   0.00000  Uiso   1.00
loop_
_geom_bond_atom_site_label_1
_geom_bond_atom_site_label_2
_geom_bond_distance
_geom_bond_site_symmetry_2
_ccdc_geom_bond_type
C1     O46     1.292   .     A
C1     C3      1.418   .     S
C1     O153    1.276   1_455 S
C2     C4      1.452   .     S
C2     C18     1.406   .     A
C2     C10     1.400   .     A
C3     C275    1.357   1_455 S
C3     C177    1.533   .     S
C4     O48     1.296   .     A
C4     O155    1.292   1_455 S
C5     C6      1.406   .     S
C5     C381    1.357   1_545 S
C5     H358    1.088   1_545 S
C6     O49     1.297   .     A
C6     O104    1.269   .     S
C7     O51     1.298   .     A
C7     C9      1.444   .     S
C7     O106    1.287   .     S
C8     C20     1.402   .     A
C8     H38     1.084   .     S
C8     C510    1.392   .     S
C9     C24     1.399   .     A
C9     C23     1.383   .     A
C10    C11     1.386   .     A
C10    H148    1.084   1_455 S
C11    C499    1.395   .     S
C11    H527    1.083   .     S
C12    C18     1.409   .     A
C12    C499    1.429   .     S
C12    C505    1.411   .     S
C13    C14     1.447   .     S
C13    C497    1.395   1_554 S
C13    C498    1.429   1_554 S
C14    N44     1.158   .     T
C15    H32     1.108   .     S
C15    C16     1.535   .     S
C15    C327    1.533   1_545 S
C15    H357    1.111   1_545 S
C16    C17     1.523   .     S
C16    H462    1.112   1_445 S
C16    H139    1.109   1_455 S
C17    H29     1.110   .     S
C17    H27     1.111   .     S
C17    H352    1.104   1_545 S
C18    C22     1.417   .     A
C19    C23     1.383   .     A
C19    C498    1.411   1_554 S
C19    C506    1.418   1_554 S
C20    C21     1.388   .     A
C20    C505    1.418   .     S
C21    C22     1.386   .     A
C21    H37     1.084   .     S
C22    H26     1.083   .     S
C23    H39     1.080   .     S
C24    C494    1.392   1_554 S
C24    H79     1.079   .     S
H25    C132    1.079   1_455 S
H28    C179    1.104   .     S
H30    C232    1.112   .     S
H31    C70     1.109   .     S
H33    C177    1.111   .     S
H34    C167    1.088   .     S
H35    N42     1.029   .     S
H36    N43     1.029   .     S
H40    C64     1.084   .     S
H41    C497    1.083   1_554 S
N42    N43     1.288   .     D
N42    Zn54    2.018   .     S
N43    Zn53    2.018   .     S
O45    Zn53    1.953   .     S
O45    C55     1.276   .     S
O46    Zn54    1.983   .     S
O47    Zn53    1.972   .     S
O47    C58     1.292   .     S
O48    Zn54    1.935   .     S
O49    Zn53    1.983   .     S
O50    Zn54    1.953   .     S
O50    C114    1.269   1_455 S
O51    Zn53    1.935   .     S
O52    Zn54    1.972   .     S
O52    C115    1.287   1_455 S
C55    O100    1.292   .     A
C55    C57     1.418   .     S
C56    C58     1.452   .     S
C56    C72     1.406   .     A
C56    C64     1.400   .     A
C57    C167    1.357   .     S
C57    C231    1.533   .     S
C58    O102    1.296   .     A
C59    C60     1.406   .     S
C59    C435    1.357   1_545 S
C59    H412    1.088   1_545 S
C60    O103    1.297   .     A
C60    O158    1.269   .     S
C61    O105    1.298   .     A
C61    C63     1.444   .     S
C61    O160    1.287   .     S
C62    C74     1.402   .     A
C62    H92     1.084   .     S
C62    C564    1.392   .     S
C63    C78     1.399   .     A
C63    C77     1.383   .     A
C64    C65     1.386   .     A
C65    C553    1.395   .     S
C65    H581    1.083   .     S
C66    C72     1.409   .     A
C66    C553    1.429   .     S
C66    C559    1.411   .     S
C67    C68     1.447   .     S
C67    C551    1.395   1_554 S
C67    C552    1.429   1_554 S
C68    N98     1.158   .     T
C69    H86     1.108   .     S
C69    C70     1.535   .     S
C69    C381    1.533   1_545 S
C69    H411    1.111   1_545 S
C70    C71     1.523   .     S
C70    H354    1.112   1_545 S
C71    H83     1.110   .     S
C71    H81     1.111   .     S
C71    H406    1.104   1_545 S
C72    C76     1.417   .     A
C73    C77     1.383   .     A
C73    C552    1.411   1_554 S
C73    C560    1.418   1_554 S
C74    C75     1.388   .     A
C74    C559    1.418   .     S
C75    C76     1.386   .     A
C75    H91     1.084   .     S
C76    H80     1.083   .     S
C77    H93     1.080   .     S
C78    C548    1.392   1_554 S
C78    H133    1.079   .     S
H82    C233    1.104   .     S
H84    C286    1.112   .     S
H85    C124    1.109   .     S
H87    C231    1.111   .     S
H88    C221    1.088   .     S
H89    N96     1.029   .     S
H90    N97     1.029   .     S
H94    C118    1.084   .     S
H95    C551    1.083   1_554 S
N96    N97     1.288   .     D
N96    Zn108   2.018   .     S
N97    Zn107   2.018   .     S
O99    Zn107   1.953   .     S
O99    C109    1.276   .     S
O100   Zn108   1.983   .     S
O101   Zn107   1.972   .     S
O101   C112    1.292   .     S
O102   Zn108   1.935   .     S
O103   Zn107   1.983   .     S
O104   Zn108   1.953   .     S
O105   Zn107   1.935   .     S
O106   Zn108   1.972   .     S
C109   O154    1.292   .     A
C109   C111    1.418   .     S
C110   C112    1.452   .     S
C110   C126    1.406   .     A
C110   C118    1.400   .     A
C111   C221    1.357   .     S
C111   C285    1.533   .     S
C112   O156    1.296   .     A
C113   C114    1.406   .     S
C113   C327    1.357   1_645 S
C113   H466    1.088   1_545 S
C114   O157    1.297   .     A
C114   O50     1.269   1_655 S
C115   O159    1.298   .     A
C115   C117    1.444   .     S
C115   O52     1.287   1_655 S
C116   C128    1.402   .     A
C116   H146    1.084   .     S
C116   C618    1.392   .     S
C117   C132    1.399   .     A
C117   C131    1.383   .     A
C118   C119    1.386   .     A
C119   C607    1.395   .     S
C119   H635    1.083   .     S
C120   C126    1.409   .     A
C120   C607    1.429   .     S
C120   C613    1.411   .     S
C121   C122    1.447   .     S
C121   C605    1.395   1_554 S
C121   C606    1.429   1_554 S
C122   N152    1.158   .     T
C123   H140    1.108   .     S
C123   C124    1.535   .     S
C123   C435    1.533   1_545 S
C123   H465    1.111   1_545 S
C124   C125    1.523   .     S
C124   H408    1.112   1_545 S
C125   H137    1.110   .     S
C125   H135    1.111   .     S
C125   H460    1.104   1_545 S
C126   C130    1.417   .     A
C127   C131    1.383   .     A
C127   C606    1.411   1_554 S
C127   C614    1.418   1_554 S
C128   C129    1.388   .     A
C128   C613    1.418   .     S
C129   C130    1.386   .     A
C129   H145    1.084   .     S
C130   H134    1.083   .     S
C131   H147    1.080   .     S
C132   C602    1.392   1_554 S
C132   H25     1.079   1_655 S
H136   C287    1.104   .     S
H138   C178    1.112   1_655 S
H139   C16     1.109   1_655 S
H141   C285    1.111   .     S
H142   C275    1.088   .     S
H143   N150    1.029   .     S
H144   N151    1.029   .     S
H148   C10     1.084   1_655 S
H149   C605    1.083   1_554 S
N150   N151    1.288   .     D
N150   Zn162   2.018   .     S
N151   Zn161   2.018   .     S
O153   Zn161   1.953   .     S
O153   C1      1.276   1_655 S
O154   Zn162   1.983   .     S
O155   Zn161   1.972   .     S
O155   C4      1.292   1_655 S
O156   Zn162   1.935   .     S
O157   Zn161   1.983   .     S
O158   Zn162   1.953   .     S
O159   Zn161   1.935   .     S
O160   Zn162   1.972   .     S
C163   O208    1.292   .     A
C163   C165    1.418   .     S
C163   O315    1.276   1_455 S
C164   C166    1.452   .     S
C164   C180    1.406   .     A
C164   C172    1.400   .     A
C165   C437    1.357   1_455 S
C165   C339    1.533   .     S
C166   O210    1.296   .     A
C166   O317    1.292   1_455 S
C167   C168    1.406   .     S
C168   O211    1.297   .     A
C168   O266    1.269   .     S
C169   O213    1.298   .     A
C169   C171    1.444   .     S
C169   O268    1.287   .     S
C170   C182    1.402   .     A
C170   H200    1.084   .     S
C170   C672    1.392   .     S
C171   C186    1.399   .     A
C171   C185    1.383   .     A
C172   C173    1.386   .     A
C172   H310    1.084   1_455 S
C173   C661    1.395   .     S
C173   H689    1.083   .     S
C174   C180    1.409   .     A
C174   C661    1.429   .     S
C174   C667    1.411   .     S
C175   C176    1.447   .     S
C175   C659    1.395   1_554 S
C175   C660    1.429   1_554 S
C176   N206    1.158   .     T
C177   H194    1.108   .     S
C177   C178    1.535   .     S
C178   C179    1.523   .     S
C178   H138    1.112   1_455 S
C178   H301    1.109   1_455 S
C179   H191    1.110   .     S
C179   H189    1.111   .     S
C180   C184    1.417   .     A
C181   C185    1.383   .     A
C181   C660    1.411   1_554 S
C181   C668    1.418   1_554 S
C182   C183    1.388   .     A
C182   C667    1.418   .     S
C183   C184    1.386   .     A
C183   H199    1.084   .     S
C184   H188    1.083   .     S
C185   H201    1.080   .     S
C186   C656    1.392   1_554 S
C186   H241    1.079   .     S
H187   C294    1.079   1_455 S
H190   C341    1.104   .     S
H192   C394    1.112   .     S
H193   C232    1.109   .     S
H195   C339    1.111   .     S
H196   C329    1.088   .     S
H197   N204    1.029   .     S
H198   N205    1.029   .     S
H202   C226    1.084   .     S
H203   C659    1.083   1_554 S
N204   N205    1.288   .     D
N204   Zn216   2.018   .     S
N205   Zn215   2.018   .     S
O207   Zn215   1.953   .     S
O207   C217    1.276   .     S
O208   Zn216   1.983   .     S
O209   Zn215   1.972   .     S
O209   C220    1.292   .     S
O210   Zn216   1.935   .     S
O211   Zn215   1.983   .     S
O212   Zn216   1.953   .     S
O212   C276    1.269   1_455 S
O213   Zn215   1.935   .     S
O214   Zn216   1.972   .     S
O214   C277    1.287   1_455 S
C217   O262    1.292   .     A
C217   C219    1.418   .     S
C218   C220    1.452   .     S
C218   C234    1.406   .     A
C218   C226    1.400   .     A
C219   C329    1.357   .     S
C219   C393    1.533   .     S
C220   O264    1.296   .     A
C221   C222    1.406   .     S
C222   O265    1.297   .     A
C222   O320    1.269   .     S
C223   O267    1.298   .     A
C223   C225    1.444   .     S
C223   O322    1.287   .     S
C224   C236    1.402   .     A
C224   H254    1.084   .     S
C224   C726    1.392   .     S
C225   C240    1.399   .     A
C225   C239    1.383   .     A
C226   C227    1.386   .     A
C227   C715    1.395   .     S
C227   H743    1.083   .     S
C228   C234    1.409   .     A
C228   C715    1.429   .     S
C228   C721    1.411   .     S
C229   C230    1.447   .     S
C229   C713    1.395   1_554 S
C229   C714    1.429   1_554 S
C230   N260    1.158   .     T
C231   H248    1.108   .     S
C231   C232    1.535   .     S
C232   C233    1.523   .     S
C233   H245    1.110   .     S
C233   H243    1.111   .     S
C234   C238    1.417   .     A
C235   C239    1.383   .     A
C235   C714    1.411   1_554 S
C235   C722    1.418   1_554 S
C236   C237    1.388   .     A
C236   C721    1.418   .     S
C237   C238    1.386   .     A
C237   H253    1.084   .     S
C238   H242    1.083   .     S
C239   H255    1.080   .     S
C240   C710    1.392   1_554 S
C240   H295    1.079   .     S
H244   C395    1.104   .     S
H246   C448    1.112   .     S
H247   C286    1.109   .     S
H249   C393    1.111   .     S
H250   C383    1.088   .     S
H251   N258    1.029   .     S
H252   N259    1.029   .     S
H256   C280    1.084   .     S
H257   C713    1.083   1_554 S
N258   N259    1.288   .     D
N258   Zn270   2.018   .     S
N259   Zn269   2.018   .     S
O261   Zn269   1.953   .     S
O261   C271    1.276   .     S
O262   Zn270   1.983   .     S
O263   Zn269   1.972   .     S
O263   C274    1.292   .     S
O264   Zn270   1.935   .     S
O265   Zn269   1.983   .     S
O266   Zn270   1.953   .     S
O267   Zn269   1.935   .     S
O268   Zn270   1.972   .     S
C271   O316    1.292   .     A
C271   C273    1.418   .     S
C272   C274    1.452   .     S
C272   C288    1.406   .     A
C272   C280    1.400   .     A
C273   C383    1.357   .     S
C273   C447    1.533   .     S
C274   O318    1.296   .     A
C275   C276    1.406   .     S
C275   C3      1.357   1_655 S
C276   O319    1.297   .     A
C276   O212    1.269   1_655 S
C277   O321    1.298   .     A
C277   C279    1.444   .     S
C277   O214    1.287   1_655 S
C278   C290    1.402   .     A
C278   H308    1.084   .     S
C278   C780    1.392   .     S
C279   C294    1.399   .     A
C279   C293    1.383   .     A
C280   C281    1.386   .     A
C281   C769    1.395   .     S
C281   H797    1.083   .     S
C282   C288    1.409   .     A
C282   C769    1.429   .     S
C282   C775    1.411   .     S
C283   C284    1.447   .     S
C283   C767    1.395   1_554 S
C283   C768    1.429   1_554 S
C284   N314    1.158   .     T
C285   H302    1.108   .     S
C285   C286    1.535   .     S
C286   C287    1.523   .     S
C287   H299    1.110   .     S
C287   H297    1.111   .     S
C288   C292    1.417   .     A
C289   C293    1.383   .     A
C289   C768    1.411   1_554 S
C289   C776    1.418   1_554 S
C290   C291    1.388   .     A
C290   C775    1.418   .     S
C291   C292    1.386   .     A
C291   H307    1.084   .     S
C292   H296    1.083   .     S
C293   H309    1.080   .     S
C294   C764    1.392   1_554 S
C294   H187    1.079   1_655 S
H298   C449    1.104   .     S
H300   C340    1.112   1_655 S
H301   C178    1.109   1_655 S
H303   C447    1.111   .     S
H304   C437    1.088   .     S
H305   N312    1.029   .     S
H306   N313    1.029   .     S
H310   C172    1.084   1_655 S
H311   C767    1.083   1_554 S
N312   N313    1.288   .     D
N312   Zn324   2.018   .     S
N313   Zn323   2.018   .     S
O315   Zn323   1.953   .     S
O315   C163    1.276   1_655 S
O316   Zn324   1.983   .     S
O317   Zn323   1.972   .     S
O317   C166    1.292   1_655 S
O318   Zn324   1.935   .     S
O319   Zn323   1.983   .     S
O320   Zn324   1.953   .     S
O321   Zn323   1.935   .     S
O322   Zn324   1.972   .     S
C325   O370    1.292   .     A
C325   C327    1.418   .     S
C325   O477    1.276   1_455 S
C326   C328    1.452   .     S
C326   C342    1.406   .     A
C326   C334    1.400   .     A
C327   C113    1.357   1_465 S
C327   C15     1.533   1_565 S
C328   O372    1.296   .     A
C328   O479    1.292   1_455 S
C329   C330    1.406   .     S
C330   O373    1.297   .     A
C330   O428    1.269   .     S
C331   O375    1.298   .     A
C331   C333    1.444   .     S
C331   O430    1.287   .     S
C332   C344    1.402   .     A
C332   H362    1.084   .     S
C332   C834    1.392   .     S
C333   C348    1.399   .     A
C333   C347    1.383   .     A
C334   C335    1.386   .     A
C334   H472    1.084   1_455 S
C335   C823    1.395   .     S
C335   H851    1.083   .     S
C336   C342    1.409   .     A
C336   C823    1.429   .     S
C336   C829    1.411   .     S
C337   C338    1.447   .     S
C337   C821    1.395   1_554 S
C337   C822    1.429   1_554 S
C338   N368    1.158   .     T
C339   H356    1.108   .     S
C339   C340    1.535   .     S
C340   C341    1.523   .     S
C340   H300    1.112   1_455 S
C340   H463    1.109   1_455 S
C341   H353    1.110   .     S
C341   H351    1.111   .     S
C342   C346    1.417   .     A
C343   C347    1.383   .     A
C343   C822    1.411   1_554 S
C343   C830    1.418   1_554 S
C344   C345    1.388   .     A
C344   C829    1.418   .     S
C345   C346    1.386   .     A
C345   H361    1.084   .     S
C346   H350    1.083   .     S
C347   H363    1.080   .     S
C348   C818    1.392   1_554 S
C348   H403    1.079   .     S
H349   C456    1.079   1_455 S
H352   C17     1.104   1_565 S
H354   C70     1.112   1_565 S
H355   C394    1.109   .     S
H357   C15     1.111   1_565 S
H358   C5      1.088   1_565 S
H359   N366    1.029   .     S
H360   N367    1.029   .     S
H364   C388    1.084   .     S
H365   C821    1.083   1_554 S
N366   N367    1.288   .     D
N366   Zn378   2.018   .     S
N367   Zn377   2.018   .     S
O369   Zn377   1.953   .     S
O369   C379    1.276   .     S
O370   Zn378   1.983   .     S
O371   Zn377   1.972   .     S
O371   C382    1.292   .     S
O372   Zn378   1.935   .     S
O373   Zn377   1.983   .     S
O374   Zn378   1.953   .     S
O374   C438    1.269   1_455 S
O375   Zn377   1.935   .     S
O376   Zn378   1.972   .     S
O376   C439    1.287   1_455 S
C379   O424    1.292   .     A
C379   C381    1.418   .     S
C380   C382    1.452   .     S
C380   C396    1.406   .     A
C380   C388    1.400   .     A
C381   C5      1.357   1_565 S
C381   C69     1.533   1_565 S
C382   O426    1.296   .     A
C383   C384    1.406   .     S
C384   O427    1.297   .     A
C384   O482    1.269   .     S
C385   O429    1.298   .     A
C385   C387    1.444   .     S
C385   O484    1.287   .     S
C386   C398    1.402   .     A
C386   H416    1.084   .     S
C386   C888    1.392   .     S
C387   C402    1.399   .     A
C387   C401    1.383   .     A
C388   C389    1.386   .     A
C389   C877    1.395   .     S
C389   H905    1.083   .     S
C390   C396    1.409   .     A
C390   C877    1.429   .     S
C390   C883    1.411   .     S
C391   C392    1.447   .     S
C391   C875    1.395   1_554 S
C391   C876    1.429   1_554 S
C392   N422    1.158   .     T
C393   H410    1.108   .     S
C393   C394    1.535   .     S
C394   C395    1.523   .     S
C395   H407    1.110   .     S
C395   H405    1.111   .     S
C396   C400    1.417   .     A
C397   C401    1.383   .     A
C397   C876    1.411   1_554 S
C397   C884    1.418   1_554 S
C398   C399    1.388   .     A
C398   C883    1.418   .     S
C399   C400    1.386   .     A
C399   H415    1.084   .     S
C400   H404    1.083   .     S
C401   H417    1.080   .     S
C402   C872    1.392   1_554 S
C402   H457    1.079   .     S
H406   C71     1.104   1_565 S
H408   C124    1.112   1_565 S
H409   C448    1.109   .     S
H411   C69     1.111   1_565 S
H412   C59     1.088   1_565 S
H413   N420    1.029   .     S
H414   N421    1.029   .     S
H418   C442    1.084   .     S
H419   C875    1.083   1_554 S
N420   N421    1.288   .     D
N420   Zn432   2.018   .     S
N421   Zn431   2.018   .     S
O423   Zn431   1.953   .     S
O423   C433    1.276   .     S
O424   Zn432   1.983   .     S
O425   Zn431   1.972   .     S
O425   C436    1.292   .     S
O426   Zn432   1.935   .     S
O427   Zn431   1.983   .     S
O428   Zn432   1.953   .     S
O429   Zn431   1.935   .     S
O430   Zn432   1.972   .     S
C433   O478    1.292   .     A
C433   C435    1.418   .     S
C434   C436    1.452   .     S
C434   C450    1.406   .     A
C434   C442    1.400   .     A
C435   C59     1.357   1_565 S
C435   C123    1.533   1_565 S
C436   O480    1.296   .     A
C437   C438    1.406   .     S
C437   C165    1.357   1_655 S
C438   O481    1.297   .     A
C438   O374    1.269   1_655 S
C439   O483    1.298   .     A
C439   C441    1.444   .     S
C439   O376    1.287   1_655 S
C440   C452    1.402   .     A
C440   H470    1.084   .     S
C440   C942    1.392   .     S
C441   C456    1.399   .     A
C441   C455    1.383   .     A
C442   C443    1.386   .     A
C443   C931    1.395   .     S
C443   H959    1.083   .     S
C444   C450    1.409   .     A
C444   C931    1.429   .     S
C444   C937    1.411   .     S
C445   C446    1.447   .     S
C445   C929    1.395   1_554 S
C445   C930    1.429   1_554 S
C446   N476    1.158   .     T
C447   H464    1.108   .     S
C447   C448    1.535   .     S
C448   C449    1.523   .     S
C449   H461    1.110   .     S
C449   H459    1.111   .     S
C450   C454    1.417   .     A
C451   C455    1.383   .     A
C451   C930    1.411   1_554 S
C451   C938    1.418   1_554 S
C452   C453    1.388   .     A
C452   C937    1.418   .     S
C453   C454    1.386   .     A
C453   H469    1.084   .     S
C454   H458    1.083   .     S
C455   H471    1.080   .     S
C456   C926    1.392   1_554 S
C456   H349    1.079   1_655 S
H460   C125    1.104   1_565 S
H462   C16     1.112   1_665 S
H463   C340    1.109   1_655 S
H465   C123    1.111   1_565 S
H466   C113    1.088   1_565 S
H467   N474    1.029   .     S
H468   N475    1.029   .     S
H472   C334    1.084   1_655 S
H473   C929    1.083   1_554 S
N474   N475    1.288   .     D
N474   Zn486   2.018   .     S
N475   Zn485   2.018   .     S
O477   Zn485   1.953   .     S
O477   C325    1.276   1_655 S
O478   Zn486   1.983   .     S
O479   Zn485   1.972   .     S
O479   C328    1.292   1_655 S
O480   Zn486   1.935   .     S
O481   Zn485   1.983   .     S
O482   Zn486   1.953   .     S
O483   Zn485   1.935   .     S
O484   Zn486   1.972   .     S
C487   O532    1.292   .     A
C487   C489    1.418   .     S
C487   O639    1.276   1_455 S
C488   C490    1.452   .     S
C488   C504    1.406   .     A
C488   C496    1.400   .     A
C489   C761    1.357   1_455 S
C489   C663    1.533   .     S
C490   O534    1.296   .     A
C490   O641    1.292   1_455 S
C491   C492    1.406   .     S
C491   C867    1.357   1_545 S
C491   H844    1.088   1_545 S
C492   O535    1.297   .     A
C492   O590    1.269   .     S
C493   O537    1.298   .     A
C493   C495    1.444   .     S
C493   O592    1.287   .     S
C494   C506    1.402   .     A
C494   H524    1.084   .     S
C494   C24     1.392   1_556 S
C495   C510    1.399   .     A
C495   C509    1.383   .     A
C496   C497    1.386   .     A
C496   H634    1.084   1_455 S
C497   C13     1.395   1_556 S
C497   H41     1.083   1_556 S
C498   C504    1.409   .     A
C498   C13     1.429   1_556 S
C498   C19     1.411   1_556 S
C499   C500    1.447   .     S
C500   N530    1.158   .     T
C501   H518    1.108   .     S
C501   C502    1.535   .     S
C501   C813    1.533   1_545 S
C501   H843    1.111   1_545 S
C502   C503    1.523   .     S
C502   H948    1.112   1_445 S
C502   H625    1.109   1_455 S
C503   H515    1.110   .     S
C503   H513    1.111   .     S
C503   H838    1.104   1_545 S
C504   C508    1.417   .     A
C505   C509    1.383   .     A
C506   C507    1.388   .     A
C506   C19     1.418   1_556 S
C507   C508    1.386   .     A
C507   H523    1.084   .     S
C508   H512    1.083   .     S
C509   H525    1.080   .     S
C510   H565    1.079   .     S
H511   C618    1.079   1_455 S
H514   C665    1.104   .     S
H516   C718    1.112   .     S
H517   C556    1.109   .     S
H519   C663    1.111   .     S
H520   C653    1.088   .     S
H521   N528    1.029   .     S
H522   N529    1.029   .     S
H526   C550    1.084   .     S
N528   N529    1.288   .     D
N528   Zn540   2.018   .     S
N529   Zn539   2.018   .     S
O531   Zn539   1.953   .     S
O531   C541    1.276   .     S
O532   Zn540   1.983   .     S
O533   Zn539   1.972   .     S
O533   C544    1.292   .     S
O534   Zn540   1.935   .     S
O535   Zn539   1.983   .     S
O536   Zn540   1.953   .     S
O536   C600    1.269   1_455 S
O537   Zn539   1.935   .     S
O538   Zn540   1.972   .     S
O538   C601    1.287   1_455 S
C541   O586    1.292   .     A
C541   C543    1.418   .     S
C542   C544    1.452   .     S
C542   C558    1.406   .     A
C542   C550    1.400   .     A
C543   C653    1.357   .     S
C543   C717    1.533   .     S
C544   O588    1.296   .     A
C545   C546    1.406   .     S
C545   C921    1.357   1_545 S
C545   H898    1.088   1_545 S
C546   O589    1.297   .     A
C546   O644    1.269   .     S
C547   O591    1.298   .     A
C547   C549    1.444   .     S
C547   O646    1.287   .     S
C548   C560    1.402   .     A
C548   H578    1.084   .     S
C548   C78     1.392   1_556 S
C549   C564    1.399   .     A
C549   C563    1.383   .     A
C550   C551    1.386   .     A
C551   C67     1.395   1_556 S
C551   H95     1.083   1_556 S
C552   C558    1.409   .     A
C552   C67     1.429   1_556 S
C552   C73     1.411   1_556 S
C553   C554    1.447   .     S
C554   N584    1.158   .     T
C555   H572    1.108   .     S
C555   C556    1.535   .     S
C555   C867    1.533   1_545 S
C555   H897    1.111   1_545 S
C556   C557    1.523   .     S
C556   H840    1.112   1_545 S
C557   H569    1.110   .     S
C557   H567    1.111   .     S
C557   H892    1.104   1_545 S
C558   C562    1.417   .     A
C559   C563    1.383   .     A
C560   C561    1.388   .     A
C560   C73     1.418   1_556 S
C561   C562    1.386   .     A
C561   H577    1.084   .     S
C562   H566    1.083   .     S
C563   H579    1.080   .     S
C564   H619    1.079   .     S
H568   C719    1.104   .     S
H570   C772    1.112   .     S
H571   C610    1.109   .     S
H573   C717    1.111   .     S
H574   C707    1.088   .     S
H575   N582    1.029   .     S
H576   N583    1.029   .     S
H580   C604    1.084   .     S
N582   N583    1.288   .     D
N582   Zn594   2.018   .     S
N583   Zn593   2.018   .     S
O585   Zn593   1.953   .     S
O585   C595    1.276   .     S
O586   Zn594   1.983   .     S
O587   Zn593   1.972   .     S
O587   C598    1.292   .     S
O588   Zn594   1.935   .     S
O589   Zn593   1.983   .     S
O590   Zn594   1.953   .     S
O591   Zn593   1.935   .     S
O592   Zn594   1.972   .     S
C595   O640    1.292   .     A
C595   C597    1.418   .     S
C596   C598    1.452   .     S
C596   C612    1.406   .     A
C596   C604    1.400   .     A
C597   C707    1.357   .     S
C597   C771    1.533   .     S
C598   O642    1.296   .     A
C599   C600    1.406   .     S
C599   C813    1.357   1_645 S
C599   H952    1.088   1_545 S
C600   O643    1.297   .     A
C600   O536    1.269   1_655 S
C601   O645    1.298   .     A
C601   C603    1.444   .     S
C601   O538    1.287   1_655 S
C602   C614    1.402   .     A
C602   H632    1.084   .     S
C602   C132    1.392   1_556 S
C603   C618    1.399   .     A
C603   C617    1.383   .     A
C604   C605    1.386   .     A
C605   C121    1.395   1_556 S
C605   H149    1.083   1_556 S
C606   C612    1.409   .     A
C606   C121    1.429   1_556 S
C606   C127    1.411   1_556 S
C607   C608    1.447   .     S
C608   N638    1.158   .     T
C609   H626    1.108   .     S
C609   C610    1.535   .     S
C609   C921    1.533   1_545 S
C609   H951    1.111   1_545 S
C610   C611    1.523   .     S
C610   H894    1.112   1_545 S
C611   H623    1.110   .     S
C611   H621    1.111   .     S
C611   H946    1.104   1_545 S
C612   C616    1.417   .     A
C613   C617    1.383   .     A
C614   C615    1.388   .     A
C614   C127    1.418   1_556 S
C615   C616    1.386   .     A
C615   H631    1.084   .     S
C616   H620    1.083   .     S
C617   H633    1.080   .     S
C618   H511    1.079   1_655 S
H622   C773    1.104   .     S
H624   C664    1.112   1_655 S
H625   C502    1.109   1_655 S
H627   C771    1.111   .     S
H628   C761    1.088   .     S
H629   N636    1.029   .     S
H630   N637    1.029   .     S
H634   C496    1.084   1_655 S
N636   N637    1.288   .     D
N636   Zn648   2.018   .     S
N637   Zn647   2.018   .     S
O639   Zn647   1.953   .     S
O639   C487    1.276   1_655 S
O640   Zn648   1.983   .     S
O641   Zn647   1.972   .     S
O641   C490    1.292   1_655 S
O642   Zn648   1.935   .     S
O643   Zn647   1.983   .     S
O644   Zn648   1.953   .     S
O645   Zn647   1.935   .     S
O646   Zn648   1.972   .     S
C649   O694    1.292   .     A
C649   C651    1.418   .     S
C649   O801    1.276   1_455 S
C650   C652    1.452   .     S
C650   C666    1.406   .     A
C650   C658    1.400   .     A
C651   C923    1.357   1_455 S
C651   C825    1.533   .     S
C652   O696    1.296   .     A
C652   O803    1.292   1_455 S
C653   C654    1.406   .     S
C654   O697    1.297   .     A
C654   O752    1.269   .     S
C655   O699    1.298   .     A
C655   C657    1.444   .     S
C655   O754    1.287   .     S
C656   C668    1.402   .     A
C656   H686    1.084   .     S
C656   C186    1.392   1_556 S
C657   C672    1.399   .     A
C657   C671    1.383   .     A
C658   C659    1.386   .     A
C658   H796    1.084   1_455 S
C659   C175    1.395   1_556 S
C659   H203    1.083   1_556 S
C660   C666    1.409   .     A
C660   C175    1.429   1_556 S
C660   C181    1.411   1_556 S
C661   C662    1.447   .     S
C662   N692    1.158   .     T
C663   H680    1.108   .     S
C663   C664    1.535   .     S
C664   C665    1.523   .     S
C664   H624    1.112   1_455 S
C664   H787    1.109   1_455 S
C665   H677    1.110   .     S
C665   H675    1.111   .     S
C666   C670    1.417   .     A
C667   C671    1.383   .     A
C668   C669    1.388   .     A
C668   C181    1.418   1_556 S
C669   C670    1.386   .     A
C669   H685    1.084   .     S
C670   H674    1.083   .     S
C671   H687    1.080   .     S
C672   H727    1.079   .     S
H673   C780    1.079   1_455 S
H676   C827    1.104   .     S
H678   C880    1.112   .     S
H679   C718    1.109   .     S
H681   C825    1.111   .     S
H682   C815    1.088   .     S
H683   N690    1.029   .     S
H684   N691    1.029   .     S
H688   C712    1.084   .     S
N690   N691    1.288   .     D
N690   Zn702   2.018   .     S
N691   Zn701   2.018   .     S
O693   Zn701   1.953   .     S
O693   C703    1.276   .     S
O694   Zn702   1.983   .     S
O695   Zn701   1.972   .     S
O695   C706    1.292   .     S
O696   Zn702   1.935   .     S
O697   Zn701   1.983   .     S
O698   Zn702   1.953   .     S
O698   C762    1.269   1_455 S
O699   Zn701   1.935   .     S
O700   Zn702   1.972   .     S
O700   C763    1.287   1_455 S
C703   O748    1.292   .     A
C703   C705    1.418   .     S
C704   C706    1.452   .     S
C704   C720    1.406   .     A
C704   C712    1.400   .     A
C705   C815    1.357   .     S
C705   C879    1.533   .     S
C706   O750    1.296   .     A
C707   C708    1.406   .     S
C708   O751    1.297   .     A
C708   O806    1.269   .     S
C709   O753    1.298   .     A
C709   C711    1.444   .     S
C709   O808    1.287   .     S
C710   C722    1.402   .     A
C710   H740    1.084   .     S
C710   C240    1.392   1_556 S
C711   C726    1.399   .     A
C711   C725    1.383   .     A
C712   C713    1.386   .     A
C713   C229    1.395   1_556 S
C713   H257    1.083   1_556 S
C714   C720    1.409   .     A
C714   C229    1.429   1_556 S
C714   C235    1.411   1_556 S
C715   C716    1.447   .     S
C716   N746    1.158   .     T
C717   H734    1.108   .     S
C717   C718    1.535   .     S
C718   C719    1.523   .     S
C719   H731    1.110   .     S
C719   H729    1.111   .     S
C720   C724    1.417   .     A
C721   C725    1.383   .     A
C722   C723    1.388   .     A
C722   C235    1.418   1_556 S
C723   C724    1.386   .     A
C723   H739    1.084   .     S
C724   H728    1.083   .     S
C725   H741    1.080   .     S
C726   H781    1.079   .     S
H730   C881    1.104   .     S
H732   C934    1.112   .     S
H733   C772    1.109   .     S
H735   C879    1.111   .     S
H736   C869    1.088   .     S
H737   N744    1.029   .     S
H738   N745    1.029   .     S
H742   C766    1.084   .     S
N744   N745    1.288   .     D
N744   Zn756   2.018   .     S
N745   Zn755   2.018   .     S
O747   Zn755   1.953   .     S
O747   C757    1.276   .     S
O748   Zn756   1.983   .     S
O749   Zn755   1.972   .     S
O749   C760    1.292   .     S
O750   Zn756   1.935   .     S
O751   Zn755   1.983   .     S
O752   Zn756   1.953   .     S
O753   Zn755   1.935   .     S
O754   Zn756   1.972   .     S
C757   O802    1.292   .     A
C757   C759    1.418   .     S
C758   C760    1.452   .     S
C758   C774    1.406   .     A
C758   C766    1.400   .     A
C759   C869    1.357   .     S
C759   C933    1.533   .     S
C760   O804    1.296   .     A
C761   C762    1.406   .     S
C761   C489    1.357   1_655 S
C762   O805    1.297   .     A
C762   O698    1.269   1_655 S
C763   O807    1.298   .     A
C763   C765    1.444   .     S
C763   O700    1.287   1_655 S
C764   C776    1.402   .     A
C764   H794    1.084   .     S
C764   C294    1.392   1_556 S
C765   C780    1.399   .     A
C765   C779    1.383   .     A
C766   C767    1.386   .     A
C767   C283    1.395   1_556 S
C767   H311    1.083   1_556 S
C768   C774    1.409   .     A
C768   C283    1.429   1_556 S
C768   C289    1.411   1_556 S
C769   C770    1.447   .     S
C770   N800    1.158   .     T
C771   H788    1.108   .     S
C771   C772    1.535   .     S
C772   C773    1.523   .     S
C773   H785    1.110   .     S
C773   H783    1.111   .     S
C774   C778    1.417   .     A
C775   C779    1.383   .     A
C776   C777    1.388   .     A
C776   C289    1.418   1_556 S
C777   C778    1.386   .     A
C777   H793    1.084   .     S
C778   H782    1.083   .     S
C779   H795    1.080   .     S
C780   H673    1.079   1_655 S
H784   C935    1.104   .     S
H786   C826    1.112   1_655 S
H787   C664    1.109   1_655 S
H789   C933    1.111   .     S
H790   C923    1.088   .     S
H791   N798    1.029   .     S
H792   N799    1.029   .     S
H796   C658    1.084   1_655 S
N798   N799    1.288   .     D
N798   Zn810   2.018   .     S
N799   Zn809   2.018   .     S
O801   Zn809   1.953   .     S
O801   C649    1.276   1_655 S
O802   Zn810   1.983   .     S
O803   Zn809   1.972   .     S
O803   C652    1.292   1_655 S
O804   Zn810   1.935   .     S
O805   Zn809   1.983   .     S
O806   Zn810   1.953   .     S
O807   Zn809   1.935   .     S
O808   Zn810   1.972   .     S
C811   O856    1.292   .     A
C811   C813    1.418   .     S
C811   O963    1.276   1_455 S
C812   C814    1.452   .     S
C812   C828    1.406   .     A
C812   C820    1.400   .     A
C813   C599    1.357   1_465 S
C813   C501    1.533   1_565 S
C814   O858    1.296   .     A
C814   O965    1.292   1_455 S
C815   C816    1.406   .     S
C816   O859    1.297   .     A
C816   O914    1.269   .     S
C817   O861    1.298   .     A
C817   C819    1.444   .     S
C817   O916    1.287   .     S
C818   C830    1.402   .     A
C818   H848    1.084   .     S
C818   C348    1.392   1_556 S
C819   C834    1.399   .     A
C819   C833    1.383   .     A
C820   C821    1.386   .     A
C820   H958    1.084   1_455 S
C821   C337    1.395   1_556 S
C821   H365    1.083   1_556 S
C822   C828    1.409   .     A
C822   C337    1.429   1_556 S
C822   C343    1.411   1_556 S
C823   C824    1.447   .     S
C824   N854    1.158   .     T
C825   H842    1.108   .     S
C825   C826    1.535   .     S
C826   C827    1.523   .     S
C826   H786    1.112   1_455 S
C826   H949    1.109   1_455 S
C827   H839    1.110   .     S
C827   H837    1.111   .     S
C828   C832    1.417   .     A
C829   C833    1.383   .     A
C830   C831    1.388   .     A
C830   C343    1.418   1_556 S
C831   C832    1.386   .     A
C831   H847    1.084   .     S
C832   H836    1.083   .     S
C833   H849    1.080   .     S
C834   H889    1.079   .     S
H835   C942    1.079   1_455 S
H838   C503    1.104   1_565 S
H840   C556    1.112   1_565 S
H841   C880    1.109   .     S
H843   C501    1.111   1_565 S
H844   C491    1.088   1_565 S
H845   N852    1.029   .     S
H846   N853    1.029   .     S
H850   C874    1.084   .     S
N852   N853    1.288   .     D
N852   Zn864   2.018   .     S
N853   Zn863   2.018   .     S
O855   Zn863   1.953   .     S
O855   C865    1.276   .     S
O856   Zn864   1.983   .     S
O857   Zn863   1.972   .     S
O857   C868    1.292   .     S
O858   Zn864   1.935   .     S
O859   Zn863   1.983   .     S
O860   Zn864   1.953   .     S
O860   C924    1.269   1_455 S
O861   Zn863   1.935   .     S
O862   Zn864   1.972   .     S
O862   C925    1.287   1_455 S
C865   O910    1.292   .     A
C865   C867    1.418   .     S
C866   C868    1.452   .     S
C866   C882    1.406   .     A
C866   C874    1.400   .     A
C867   C491    1.357   1_565 S
C867   C555    1.533   1_565 S
C868   O912    1.296   .     A
C869   C870    1.406   .     S
C870   O913    1.297   .     A
C870   O968    1.269   .     S
C871   O915    1.298   .     A
C871   C873    1.444   .     S
C871   O970    1.287   .     S
C872   C884    1.402   .     A
C872   H902    1.084   .     S
C872   C402    1.392   1_556 S
C873   C888    1.399   .     A
C873   C887    1.383   .     A
C874   C875    1.386   .     A
C875   C391    1.395   1_556 S
C875   H419    1.083   1_556 S
C876   C882    1.409   .     A
C876   C391    1.429   1_556 S
C876   C397    1.411   1_556 S
C877   C878    1.447   .     S
C878   N908    1.158   .     T
C879   H896    1.108   .     S
C879   C880    1.535   .     S
C880   C881    1.523   .     S
C881   H893    1.110   .     S
C881   H891    1.111   .     S
C882   C886    1.417   .     A
C883   C887    1.383   .     A
C884   C885    1.388   .     A
C884   C397    1.418   1_556 S
C885   C886    1.386   .     A
C885   H901    1.084   .     S
C886   H890    1.083   .     S
C887   H903    1.080   .     S
C888   H943    1.079   .     S
H892   C557    1.104   1_565 S
H894   C610    1.112   1_565 S
H895   C934    1.109   .     S
H897   C555    1.111   1_565 S
H898   C545    1.088   1_565 S
H899   N906    1.029   .     S
H900   N907    1.029   .     S
H904   C928    1.084   .     S
N906   N907    1.288   .     D
N906   Zn918   2.018   .     S
N907   Zn917   2.018   .     S
O909   Zn917   1.953   .     S
O909   C919    1.276   .     S
O910   Zn918   1.983   .     S
O911   Zn917   1.972   .     S
O911   C922    1.292   .     S
O912   Zn918   1.935   .     S
O913   Zn917   1.983   .     S
O914   Zn918   1.953   .     S
O915   Zn917   1.935   .     S
O916   Zn918   1.972   .     S
C919   O964    1.292   .     A
C919   C921    1.418   .     S
C920   C922    1.452   .     S
C920   C936    1.406   .     A
C920   C928    1.400   .     A
C921   C545    1.357   1_565 S
C921   C609    1.533   1_565 S
C922   O966    1.296   .     A
C923   C924    1.406   .     S
C923   C651    1.357   1_655 S
C924   O967    1.297   .     A
C924   O860    1.269   1_655 S
C925   O969    1.298   .     A
C925   C927    1.444   .     S
C925   O862    1.287   1_655 S
C926   C938    1.402   .     A
C926   H956    1.084   .     S
C926   C456    1.392   1_556 S
C927   C942    1.399   .     A
C927   C941    1.383   .     A
C928   C929    1.386   .     A
C929   C445    1.395   1_556 S
C929   H473    1.083   1_556 S
C930   C936    1.409   .     A
C930   C445    1.429   1_556 S
C930   C451    1.411   1_556 S
C931   C932    1.447   .     S
C932   N962    1.158   .     T
C933   H950    1.108   .     S
C933   C934    1.535   .     S
C934   C935    1.523   .     S
C935   H947    1.110   .     S
C935   H945    1.111   .     S
C936   C940    1.417   .     A
C937   C941    1.383   .     A
C938   C939    1.388   .     A
C938   C451    1.418   1_556 S
C939   C940    1.386   .     A
C939   H955    1.084   .     S
C940   H944    1.083   .     S
C941   H957    1.080   .     S
C942   H835    1.079   1_655 S
H946   C611    1.104   1_565 S
H948   C502    1.112   1_665 S
H949   C826    1.109   1_655 S
H951   C609    1.111   1_565 S
H952   C599    1.088   1_565 S
H953   N960    1.029   .     S
H954   N961    1.029   .     S
H958   C820    1.084   1_655 S
N960   N961    1.288   .     D
N960   Zn972   2.018   .     S
N961   Zn971   2.018   .     S
O963   Zn971   1.953   .     S
O963   C811    1.276   1_655 S
O964   Zn972   1.983   .     S
O965   Zn971   1.972   .     S
O965   C814    1.292   1_655 S
O966   Zn972   1.935   .     S
O967   Zn971   1.983   .     S
O968   Zn972   1.953   .     S
O969   Zn971   1.935   .     S
O970   Zn972   1.972   .     S
