data_str_m3_o1_o2_pcu_sym.13
_audit_creation_date              2020-01-03
_audit_creation_method            'Materials Studio'
_symmetry_space_group_name_H-M    'P1'
_symmetry_Int_Tables_number       1
_symmetry_cell_setting            triclinic
loop_
_symmetry_equiv_pos_as_xyz
  x,y,z
_cell_length_a                    32.1492
_cell_length_b                    29.7571
_cell_length_c                    29.9831
_cell_angle_alpha                 90.9028
_cell_angle_beta                  91.1127
_cell_angle_gamma                 90.4685
loop_
_atom_site_label
_atom_site_type_symbol
_atom_site_fract_x
_atom_site_fract_y
_atom_site_fract_z
_atom_site_U_iso_or_equiv
_atom_site_adp_type
_atom_site_occupancy
C1     C     0.08670   0.16656   0.24982   0.00000  Uiso   1.00
C2     C     0.31226   0.20731   0.24480   0.00000  Uiso   1.00
C3     C     0.31182   0.12612   0.25484   0.00000  Uiso   1.00
C4     C     0.02152   0.20717   0.24464   0.00000  Uiso   1.00
C5     C     0.18585   0.20116   0.04813   0.00000  Uiso   1.00
C6     C     0.17113   0.12796   0.45329   0.00000  Uiso   1.00
C7     C     0.15584   0.20789   0.45332   0.00000  Uiso   1.00
C8     C     0.14096   0.13485   0.04650   0.00000  Uiso   1.00
C9     C     0.18712   0.20034   0.09416   0.00000  Uiso   1.00
C10    C     0.17226   0.12767   0.40733   0.00000  Uiso   1.00
C11    C     0.15712   0.20767   0.40727   0.00000  Uiso   1.00
C12    C     0.24663   0.16677   0.25006   0.00000  Uiso   1.00
C13    C     0.14241   0.13392   0.09254   0.00000  Uiso   1.00
C14    C     0.16573   0.16645   0.11625   0.00000  Uiso   1.00
C15    C     0.16546   0.16754   0.38419   0.00000  Uiso   1.00
C16    C     0.16290   0.16829   0.02434   0.00000  Uiso   1.00
C17    C     0.16296   0.16805   0.47625   0.00000  Uiso   1.00
C18    C     0.29083   0.16679   0.24996   0.00000  Uiso   1.00
C19    C     0.04251   0.16652   0.24964   0.00000  Uiso   1.00
C20    C     0.16647   0.16644   0.16407   0.00000  Uiso   1.00
C21    C     0.16650   0.16697   0.33610   0.00000  Uiso   1.00
C22    C     0.19158   0.02523   0.27912   0.00000  Uiso   1.00
C23    C     0.14185   0.30808   0.22080   0.00000  Uiso   1.00
C24    C     0.14212   0.02253   0.22027   0.00000  Uiso   1.00
C25    C     0.19160   0.31076   0.27942   0.00000  Uiso   1.00
C26    C     0.02107   0.12598   0.25467   0.00000  Uiso   1.00
H27    H     0.24887   0.04145   0.30330   0.00000  Uiso   1.00
H28    H     0.17720   0.09713   0.47095   0.00000  Uiso   1.00
H29    H     0.14910   0.23893   0.47102   0.00000  Uiso   1.00
H30    H     0.12260   0.10977   0.02819   0.00000  Uiso   1.00
H31    H     0.20513   0.22571   0.11249   0.00000  Uiso   1.00
H32    H     0.17872   0.09638   0.39008   0.00000  Uiso   1.00
H33    H     0.15123   0.23865   0.38987   0.00000  Uiso   1.00
H34    H     0.12457   0.10867   0.10947   0.00000  Uiso   1.00
H35    H     0.03705   0.09434   0.25870   0.00000  Uiso   1.00
H36    H     0.29629   0.23894   0.24070   0.00000  Uiso   1.00
H37    H     0.29551   0.09450   0.25891   0.00000  Uiso   1.00
H38    H     0.21111   0.04137   0.34176   0.00000  Uiso   1.00
H39    H     0.03784   0.23879   0.24054   0.00000  Uiso   1.00
H40    H     0.12417   0.29086   0.15775   0.00000  Uiso   1.00
H41    H     0.08505   0.29245   0.19477   0.00000  Uiso   1.00
H42    H     0.09844   0.06752   0.20035   0.00000  Uiso   1.00
H43    H     0.13785   0.05770   0.16369   0.00000  Uiso   1.00
H44    H     0.19988   0.27293   0.33457   0.00000  Uiso   1.00
H45    H     0.23850   0.26817   0.29592   0.00000  Uiso   1.00
H46    H     0.20325   0.22684   0.03110   0.00000  Uiso   1.00
N47    N     0.16667   0.28573   0.25000   0.00000  Uiso   1.00
N48    N     0.16667   0.04760   0.25000   0.00000  Uiso   1.00
N49    N     0.21810   0.05052   0.30923   0.00000  Uiso   1.00
N50    N     0.11586   0.28272   0.19020   0.00000  Uiso   1.00
N51    N     0.11770   0.04349   0.18635   0.00000  Uiso   1.00
N52    N     0.21799   0.28974   0.31168   0.00000  Uiso   1.00
O53    O     0.10559   0.20487   0.24999   0.00000  Uiso   1.00
O54    O     0.22774   0.12846   0.25000   0.00000  Uiso   1.00
O55    O     0.22774   0.20487   0.25000   0.00000  Uiso   1.00
O56    O     0.10559   0.12846   0.24999   0.00000  Uiso   1.00
O57    O     0.16666   0.20489   0.18453   0.00000  Uiso   1.00
O58    O     0.16667   0.12845   0.31547   0.00000  Uiso   1.00
O59    O     0.16667   0.20489   0.31547   0.00000  Uiso   1.00
O60    O     0.16666   0.12845   0.18453   0.00000  Uiso   1.00
Zn61   Zn    0.16667   0.21771   0.25000   0.00000  Uiso   1.00
Zn62   Zn    0.16667   0.11563   0.25000   0.00000  Uiso   1.00
C63    C     0.42004   0.16656   0.24982   0.00000  Uiso   1.00
C64    C     0.64559   0.20731   0.24480   0.00000  Uiso   1.00
C65    C     0.64515   0.12612   0.25484   0.00000  Uiso   1.00
C66    C     0.35485   0.20717   0.24464   0.00000  Uiso   1.00
C67    C     0.51918   0.20116   0.04813   0.00000  Uiso   1.00
C68    C     0.50446   0.12796   0.45329   0.00000  Uiso   1.00
C69    C     0.48917   0.20789   0.45332   0.00000  Uiso   1.00
C70    C     0.47429   0.13485   0.04650   0.00000  Uiso   1.00
C71    C     0.52045   0.20034   0.09416   0.00000  Uiso   1.00
C72    C     0.50559   0.12767   0.40733   0.00000  Uiso   1.00
C73    C     0.49045   0.20767   0.40727   0.00000  Uiso   1.00
C74    C     0.57997   0.16677   0.25006   0.00000  Uiso   1.00
C75    C     0.47575   0.13392   0.09254   0.00000  Uiso   1.00
C76    C     0.49906   0.16645   0.11625   0.00000  Uiso   1.00
C77    C     0.49879   0.16754   0.38419   0.00000  Uiso   1.00
C78    C     0.49623   0.16829   0.02434   0.00000  Uiso   1.00
C79    C     0.49629   0.16805   0.47625   0.00000  Uiso   1.00
C80    C     0.62416   0.16679   0.24996   0.00000  Uiso   1.00
C81    C     0.37584   0.16652   0.24964   0.00000  Uiso   1.00
C82    C     0.49981   0.16644   0.16407   0.00000  Uiso   1.00
C83    C     0.49984   0.16697   0.33610   0.00000  Uiso   1.00
C84    C     0.52492   0.02523   0.27912   0.00000  Uiso   1.00
C85    C     0.47518   0.30808   0.22080   0.00000  Uiso   1.00
C86    C     0.47545   0.02253   0.22027   0.00000  Uiso   1.00
C87    C     0.52493   0.31076   0.27942   0.00000  Uiso   1.00
C88    C     0.35441   0.12598   0.25467   0.00000  Uiso   1.00
H89    H     0.58220   0.04145   0.30330   0.00000  Uiso   1.00
H90    H     0.51053   0.09713   0.47095   0.00000  Uiso   1.00
H91    H     0.48244   0.23893   0.47102   0.00000  Uiso   1.00
H92    H     0.45594   0.10977   0.02819   0.00000  Uiso   1.00
H93    H     0.53846   0.22571   0.11249   0.00000  Uiso   1.00
H94    H     0.51205   0.09638   0.39008   0.00000  Uiso   1.00
H95    H     0.48456   0.23865   0.38987   0.00000  Uiso   1.00
H96    H     0.45791   0.10867   0.10947   0.00000  Uiso   1.00
H97    H     0.37038   0.09434   0.25870   0.00000  Uiso   1.00
H98    H     0.62962   0.23894   0.24070   0.00000  Uiso   1.00
H99    H     0.62884   0.09450   0.25891   0.00000  Uiso   1.00
H100   H     0.54445   0.04137   0.34176   0.00000  Uiso   1.00
H101   H     0.37117   0.23879   0.24054   0.00000  Uiso   1.00
H102   H     0.45751   0.29086   0.15775   0.00000  Uiso   1.00
H103   H     0.41838   0.29245   0.19477   0.00000  Uiso   1.00
H104   H     0.43177   0.06752   0.20035   0.00000  Uiso   1.00
H105   H     0.47118   0.05770   0.16369   0.00000  Uiso   1.00
H106   H     0.53321   0.27293   0.33457   0.00000  Uiso   1.00
H107   H     0.57184   0.26817   0.29592   0.00000  Uiso   1.00
H108   H     0.53658   0.22684   0.03110   0.00000  Uiso   1.00
N109   N     0.50000   0.28573   0.25000   0.00000  Uiso   1.00
N110   N     0.50000   0.04760   0.25000   0.00000  Uiso   1.00
N111   N     0.55143   0.05052   0.30923   0.00000  Uiso   1.00
N112   N     0.44920   0.28272   0.19020   0.00000  Uiso   1.00
N113   N     0.45103   0.04349   0.18635   0.00000  Uiso   1.00
N114   N     0.55133   0.28974   0.31168   0.00000  Uiso   1.00
O115   O     0.43892   0.20487   0.24999   0.00000  Uiso   1.00
O116   O     0.56108   0.12846   0.25000   0.00000  Uiso   1.00
O117   O     0.56108   0.20487   0.25000   0.00000  Uiso   1.00
O118   O     0.43892   0.12846   0.24999   0.00000  Uiso   1.00
O119   O     0.50000   0.20489   0.18453   0.00000  Uiso   1.00
O120   O     0.50000   0.12845   0.31547   0.00000  Uiso   1.00
O121   O     0.50000   0.20489   0.31547   0.00000  Uiso   1.00
O122   O     0.50000   0.12845   0.18453   0.00000  Uiso   1.00
Zn123  Zn    0.50000   0.21771   0.25000   0.00000  Uiso   1.00
Zn124  Zn    0.50000   0.11563   0.25000   0.00000  Uiso   1.00
C125   C     0.75337   0.16656   0.24982   0.00000  Uiso   1.00
C126   C     0.97893   0.20731   0.24480   0.00000  Uiso   1.00
C127   C     0.97848   0.12612   0.25484   0.00000  Uiso   1.00
C128   C     0.68819   0.20717   0.24464   0.00000  Uiso   1.00
C129   C     0.85251   0.20116   0.04813   0.00000  Uiso   1.00
C130   C     0.83780   0.12796   0.45329   0.00000  Uiso   1.00
C131   C     0.82251   0.20789   0.45332   0.00000  Uiso   1.00
C132   C     0.80762   0.13485   0.04650   0.00000  Uiso   1.00
C133   C     0.85378   0.20034   0.09416   0.00000  Uiso   1.00
C134   C     0.83892   0.12767   0.40733   0.00000  Uiso   1.00
C135   C     0.82379   0.20767   0.40727   0.00000  Uiso   1.00
C136   C     0.91330   0.16677   0.25006   0.00000  Uiso   1.00
C137   C     0.80908   0.13392   0.09254   0.00000  Uiso   1.00
C138   C     0.83239   0.16645   0.11625   0.00000  Uiso   1.00
C139   C     0.83212   0.16754   0.38419   0.00000  Uiso   1.00
C140   C     0.82956   0.16829   0.02434   0.00000  Uiso   1.00
C141   C     0.82962   0.16805   0.47625   0.00000  Uiso   1.00
C142   C     0.95750   0.16679   0.24996   0.00000  Uiso   1.00
C143   C     0.70917   0.16652   0.24964   0.00000  Uiso   1.00
C144   C     0.83314   0.16644   0.16407   0.00000  Uiso   1.00
C145   C     0.83317   0.16697   0.33610   0.00000  Uiso   1.00
C146   C     0.85825   0.02523   0.27912   0.00000  Uiso   1.00
C147   C     0.80851   0.30808   0.22080   0.00000  Uiso   1.00
C148   C     0.80879   0.02253   0.22027   0.00000  Uiso   1.00
C149   C     0.85827   0.31076   0.27942   0.00000  Uiso   1.00
C150   C     0.68774   0.12598   0.25467   0.00000  Uiso   1.00
H151   H     0.91553   0.04145   0.30330   0.00000  Uiso   1.00
H152   H     0.84386   0.09713   0.47095   0.00000  Uiso   1.00
H153   H     0.81577   0.23893   0.47102   0.00000  Uiso   1.00
H154   H     0.78927   0.10977   0.02819   0.00000  Uiso   1.00
H155   H     0.87179   0.22571   0.11249   0.00000  Uiso   1.00
H156   H     0.84538   0.09638   0.39008   0.00000  Uiso   1.00
H157   H     0.81789   0.23865   0.38987   0.00000  Uiso   1.00
H158   H     0.79124   0.10867   0.10947   0.00000  Uiso   1.00
H159   H     0.70371   0.09434   0.25870   0.00000  Uiso   1.00
H160   H     0.96295   0.23894   0.24070   0.00000  Uiso   1.00
H161   H     0.96218   0.09450   0.25891   0.00000  Uiso   1.00
H162   H     0.87778   0.04137   0.34176   0.00000  Uiso   1.00
H163   H     0.70450   0.23879   0.24054   0.00000  Uiso   1.00
H164   H     0.79084   0.29086   0.15775   0.00000  Uiso   1.00
H165   H     0.75171   0.29245   0.19477   0.00000  Uiso   1.00
H166   H     0.76510   0.06752   0.20035   0.00000  Uiso   1.00
H167   H     0.80452   0.05770   0.16369   0.00000  Uiso   1.00
H168   H     0.86654   0.27293   0.33457   0.00000  Uiso   1.00
H169   H     0.90517   0.26817   0.29592   0.00000  Uiso   1.00
H170   H     0.86991   0.22684   0.03110   0.00000  Uiso   1.00
N171   N     0.83333   0.28573   0.25000   0.00000  Uiso   1.00
N172   N     0.83333   0.04760   0.25000   0.00000  Uiso   1.00
N173   N     0.88477   0.05052   0.30923   0.00000  Uiso   1.00
N174   N     0.78253   0.28272   0.19020   0.00000  Uiso   1.00
N175   N     0.78437   0.04349   0.18635   0.00000  Uiso   1.00
N176   N     0.88466   0.28974   0.31168   0.00000  Uiso   1.00
O177   O     0.77226   0.20487   0.24999   0.00000  Uiso   1.00
O178   O     0.89441   0.12846   0.25000   0.00000  Uiso   1.00
O179   O     0.89441   0.20487   0.25000   0.00000  Uiso   1.00
O180   O     0.77226   0.12846   0.24999   0.00000  Uiso   1.00
O181   O     0.83333   0.20489   0.18453   0.00000  Uiso   1.00
O182   O     0.83334   0.12845   0.31547   0.00000  Uiso   1.00
O183   O     0.83334   0.20489   0.31547   0.00000  Uiso   1.00
O184   O     0.83333   0.12845   0.18453   0.00000  Uiso   1.00
Zn185  Zn    0.83333   0.21771   0.25000   0.00000  Uiso   1.00
Zn186  Zn    0.83333   0.11563   0.25000   0.00000  Uiso   1.00
C187   C     0.08670   0.49989   0.24982   0.00000  Uiso   1.00
C188   C     0.31226   0.54064   0.24480   0.00000  Uiso   1.00
C189   C     0.31182   0.45945   0.25484   0.00000  Uiso   1.00
C190   C     0.02152   0.54051   0.24464   0.00000  Uiso   1.00
C191   C     0.18585   0.53449   0.04813   0.00000  Uiso   1.00
C192   C     0.17113   0.46130   0.45329   0.00000  Uiso   1.00
C193   C     0.15584   0.54122   0.45332   0.00000  Uiso   1.00
C194   C     0.14096   0.46818   0.04650   0.00000  Uiso   1.00
C195   C     0.18712   0.53367   0.09416   0.00000  Uiso   1.00
C196   C     0.17226   0.46100   0.40733   0.00000  Uiso   1.00
C197   C     0.15712   0.54100   0.40727   0.00000  Uiso   1.00
C198   C     0.24663   0.50011   0.25006   0.00000  Uiso   1.00
C199   C     0.14241   0.46725   0.09254   0.00000  Uiso   1.00
C200   C     0.16573   0.49979   0.11625   0.00000  Uiso   1.00
C201   C     0.16546   0.50087   0.38419   0.00000  Uiso   1.00
C202   C     0.16290   0.50163   0.02434   0.00000  Uiso   1.00
C203   C     0.16296   0.50138   0.47625   0.00000  Uiso   1.00
C204   C     0.29083   0.50013   0.24996   0.00000  Uiso   1.00
C205   C     0.04251   0.49985   0.24964   0.00000  Uiso   1.00
C206   C     0.16647   0.49978   0.16407   0.00000  Uiso   1.00
C207   C     0.16650   0.50030   0.33610   0.00000  Uiso   1.00
C208   C     0.19158   0.35856   0.27912   0.00000  Uiso   1.00
C209   C     0.14185   0.64141   0.22080   0.00000  Uiso   1.00
C210   C     0.14212   0.35587   0.22027   0.00000  Uiso   1.00
C211   C     0.19160   0.64409   0.27942   0.00000  Uiso   1.00
C212   C     0.02107   0.45932   0.25467   0.00000  Uiso   1.00
H213   H     0.24887   0.37478   0.30330   0.00000  Uiso   1.00
H214   H     0.17720   0.43047   0.47095   0.00000  Uiso   1.00
H215   H     0.14910   0.57226   0.47102   0.00000  Uiso   1.00
H216   H     0.12260   0.44310   0.02819   0.00000  Uiso   1.00
H217   H     0.20513   0.55904   0.11249   0.00000  Uiso   1.00
H218   H     0.17872   0.42971   0.39008   0.00000  Uiso   1.00
H219   H     0.15123   0.57199   0.38987   0.00000  Uiso   1.00
H220   H     0.12457   0.44200   0.10947   0.00000  Uiso   1.00
H221   H     0.03705   0.42767   0.25870   0.00000  Uiso   1.00
H222   H     0.29629   0.57227   0.24070   0.00000  Uiso   1.00
H223   H     0.29551   0.42784   0.25891   0.00000  Uiso   1.00
H224   H     0.21111   0.37470   0.34176   0.00000  Uiso   1.00
H225   H     0.03784   0.57212   0.24054   0.00000  Uiso   1.00
H226   H     0.12417   0.62419   0.15775   0.00000  Uiso   1.00
H227   H     0.08505   0.62578   0.19477   0.00000  Uiso   1.00
H228   H     0.09844   0.40085   0.20035   0.00000  Uiso   1.00
H229   H     0.13785   0.39103   0.16369   0.00000  Uiso   1.00
H230   H     0.19988   0.60626   0.33457   0.00000  Uiso   1.00
H231   H     0.23850   0.60150   0.29592   0.00000  Uiso   1.00
H232   H     0.20325   0.56017   0.03110   0.00000  Uiso   1.00
N233   N     0.16667   0.61907   0.25000   0.00000  Uiso   1.00
N234   N     0.16667   0.38093   0.25000   0.00000  Uiso   1.00
N235   N     0.21810   0.38385   0.30923   0.00000  Uiso   1.00
N236   N     0.11586   0.61606   0.19020   0.00000  Uiso   1.00
N237   N     0.11770   0.37682   0.18635   0.00000  Uiso   1.00
N238   N     0.21799   0.62308   0.31168   0.00000  Uiso   1.00
O239   O     0.10559   0.53821   0.24999   0.00000  Uiso   1.00
O240   O     0.22774   0.46179   0.25000   0.00000  Uiso   1.00
O241   O     0.22774   0.53821   0.25000   0.00000  Uiso   1.00
O242   O     0.10559   0.46179   0.24999   0.00000  Uiso   1.00
O243   O     0.16666   0.53822   0.18453   0.00000  Uiso   1.00
O244   O     0.16667   0.46178   0.31547   0.00000  Uiso   1.00
O245   O     0.16667   0.53822   0.31547   0.00000  Uiso   1.00
O246   O     0.16666   0.46178   0.18453   0.00000  Uiso   1.00
Zn247  Zn    0.16667   0.55104   0.25000   0.00000  Uiso   1.00
Zn248  Zn    0.16667   0.44896   0.25000   0.00000  Uiso   1.00
C249   C     0.42004   0.49989   0.24982   0.00000  Uiso   1.00
C250   C     0.64559   0.54064   0.24480   0.00000  Uiso   1.00
C251   C     0.64515   0.45945   0.25484   0.00000  Uiso   1.00
C252   C     0.35485   0.54051   0.24464   0.00000  Uiso   1.00
C253   C     0.51918   0.53449   0.04813   0.00000  Uiso   1.00
C254   C     0.50446   0.46130   0.45329   0.00000  Uiso   1.00
C255   C     0.48917   0.54122   0.45332   0.00000  Uiso   1.00
C256   C     0.47429   0.46818   0.04650   0.00000  Uiso   1.00
C257   C     0.52045   0.53367   0.09416   0.00000  Uiso   1.00
C258   C     0.50559   0.46100   0.40733   0.00000  Uiso   1.00
C259   C     0.49045   0.54100   0.40727   0.00000  Uiso   1.00
C260   C     0.57997   0.50011   0.25006   0.00000  Uiso   1.00
C261   C     0.47575   0.46725   0.09254   0.00000  Uiso   1.00
C262   C     0.49906   0.49979   0.11625   0.00000  Uiso   1.00
C263   C     0.49879   0.50087   0.38419   0.00000  Uiso   1.00
C264   C     0.49623   0.50163   0.02434   0.00000  Uiso   1.00
C265   C     0.49629   0.50138   0.47625   0.00000  Uiso   1.00
C266   C     0.62416   0.50013   0.24996   0.00000  Uiso   1.00
C267   C     0.37584   0.49985   0.24964   0.00000  Uiso   1.00
C268   C     0.49981   0.49978   0.16407   0.00000  Uiso   1.00
C269   C     0.49984   0.50030   0.33610   0.00000  Uiso   1.00
C270   C     0.52492   0.35856   0.27912   0.00000  Uiso   1.00
C271   C     0.47518   0.64141   0.22080   0.00000  Uiso   1.00
C272   C     0.47545   0.35587   0.22027   0.00000  Uiso   1.00
C273   C     0.52493   0.64409   0.27942   0.00000  Uiso   1.00
C274   C     0.35441   0.45932   0.25467   0.00000  Uiso   1.00
H275   H     0.58220   0.37478   0.30330   0.00000  Uiso   1.00
H276   H     0.51053   0.43047   0.47095   0.00000  Uiso   1.00
H277   H     0.48244   0.57226   0.47102   0.00000  Uiso   1.00
H278   H     0.45594   0.44310   0.02819   0.00000  Uiso   1.00
H279   H     0.53846   0.55904   0.11249   0.00000  Uiso   1.00
H280   H     0.51205   0.42971   0.39008   0.00000  Uiso   1.00
H281   H     0.48456   0.57199   0.38987   0.00000  Uiso   1.00
H282   H     0.45791   0.44200   0.10947   0.00000  Uiso   1.00
H283   H     0.37038   0.42767   0.25870   0.00000  Uiso   1.00
H284   H     0.62962   0.57227   0.24070   0.00000  Uiso   1.00
H285   H     0.62884   0.42784   0.25891   0.00000  Uiso   1.00
H286   H     0.54445   0.37470   0.34176   0.00000  Uiso   1.00
H287   H     0.37117   0.57212   0.24054   0.00000  Uiso   1.00
H288   H     0.45751   0.62419   0.15775   0.00000  Uiso   1.00
H289   H     0.41838   0.62578   0.19477   0.00000  Uiso   1.00
H290   H     0.43177   0.40085   0.20035   0.00000  Uiso   1.00
H291   H     0.47118   0.39103   0.16369   0.00000  Uiso   1.00
H292   H     0.53321   0.60626   0.33457   0.00000  Uiso   1.00
H293   H     0.57184   0.60150   0.29592   0.00000  Uiso   1.00
H294   H     0.53658   0.56017   0.03110   0.00000  Uiso   1.00
N295   N     0.50000   0.61907   0.25000   0.00000  Uiso   1.00
N296   N     0.50000   0.38093   0.25000   0.00000  Uiso   1.00
N297   N     0.55143   0.38385   0.30923   0.00000  Uiso   1.00
N298   N     0.44920   0.61606   0.19020   0.00000  Uiso   1.00
N299   N     0.45103   0.37682   0.18635   0.00000  Uiso   1.00
N300   N     0.55133   0.62308   0.31168   0.00000  Uiso   1.00
O301   O     0.43892   0.53821   0.24999   0.00000  Uiso   1.00
O302   O     0.56108   0.46179   0.25000   0.00000  Uiso   1.00
O303   O     0.56108   0.53821   0.25000   0.00000  Uiso   1.00
O304   O     0.43892   0.46179   0.24999   0.00000  Uiso   1.00
O305   O     0.50000   0.53822   0.18453   0.00000  Uiso   1.00
O306   O     0.50000   0.46178   0.31547   0.00000  Uiso   1.00
O307   O     0.50000   0.53822   0.31547   0.00000  Uiso   1.00
O308   O     0.50000   0.46178   0.18453   0.00000  Uiso   1.00
Zn309  Zn    0.50000   0.55104   0.25000   0.00000  Uiso   1.00
Zn310  Zn    0.50000   0.44896   0.25000   0.00000  Uiso   1.00
C311   C     0.75337   0.49989   0.24982   0.00000  Uiso   1.00
C312   C     0.97893   0.54064   0.24480   0.00000  Uiso   1.00
C313   C     0.97848   0.45945   0.25484   0.00000  Uiso   1.00
C314   C     0.68819   0.54051   0.24464   0.00000  Uiso   1.00
C315   C     0.85251   0.53449   0.04813   0.00000  Uiso   1.00
C316   C     0.83780   0.46130   0.45329   0.00000  Uiso   1.00
C317   C     0.82251   0.54122   0.45332   0.00000  Uiso   1.00
C318   C     0.80762   0.46818   0.04650   0.00000  Uiso   1.00
C319   C     0.85378   0.53367   0.09416   0.00000  Uiso   1.00
C320   C     0.83892   0.46100   0.40733   0.00000  Uiso   1.00
C321   C     0.82379   0.54100   0.40727   0.00000  Uiso   1.00
C322   C     0.91330   0.50011   0.25006   0.00000  Uiso   1.00
C323   C     0.80908   0.46725   0.09254   0.00000  Uiso   1.00
C324   C     0.83239   0.49979   0.11625   0.00000  Uiso   1.00
C325   C     0.83212   0.50087   0.38419   0.00000  Uiso   1.00
C326   C     0.82956   0.50163   0.02434   0.00000  Uiso   1.00
C327   C     0.82962   0.50138   0.47625   0.00000  Uiso   1.00
C328   C     0.95750   0.50013   0.24996   0.00000  Uiso   1.00
C329   C     0.70917   0.49985   0.24964   0.00000  Uiso   1.00
C330   C     0.83314   0.49978   0.16407   0.00000  Uiso   1.00
C331   C     0.83317   0.50030   0.33610   0.00000  Uiso   1.00
C332   C     0.85825   0.35856   0.27912   0.00000  Uiso   1.00
C333   C     0.80851   0.64141   0.22080   0.00000  Uiso   1.00
C334   C     0.80879   0.35587   0.22027   0.00000  Uiso   1.00
C335   C     0.85827   0.64409   0.27942   0.00000  Uiso   1.00
C336   C     0.68774   0.45932   0.25467   0.00000  Uiso   1.00
H337   H     0.91553   0.37478   0.30330   0.00000  Uiso   1.00
H338   H     0.84386   0.43047   0.47095   0.00000  Uiso   1.00
H339   H     0.81577   0.57226   0.47102   0.00000  Uiso   1.00
H340   H     0.78927   0.44310   0.02819   0.00000  Uiso   1.00
H341   H     0.87179   0.55904   0.11249   0.00000  Uiso   1.00
H342   H     0.84538   0.42971   0.39008   0.00000  Uiso   1.00
H343   H     0.81789   0.57199   0.38987   0.00000  Uiso   1.00
H344   H     0.79124   0.44200   0.10947   0.00000  Uiso   1.00
H345   H     0.70371   0.42767   0.25870   0.00000  Uiso   1.00
H346   H     0.96295   0.57227   0.24070   0.00000  Uiso   1.00
H347   H     0.96218   0.42784   0.25891   0.00000  Uiso   1.00
H348   H     0.87778   0.37470   0.34176   0.00000  Uiso   1.00
H349   H     0.70450   0.57212   0.24054   0.00000  Uiso   1.00
H350   H     0.79084   0.62419   0.15775   0.00000  Uiso   1.00
H351   H     0.75171   0.62578   0.19477   0.00000  Uiso   1.00
H352   H     0.76510   0.40085   0.20035   0.00000  Uiso   1.00
H353   H     0.80452   0.39103   0.16369   0.00000  Uiso   1.00
H354   H     0.86654   0.60626   0.33457   0.00000  Uiso   1.00
H355   H     0.90517   0.60150   0.29592   0.00000  Uiso   1.00
H356   H     0.86991   0.56017   0.03110   0.00000  Uiso   1.00
N357   N     0.83333   0.61907   0.25000   0.00000  Uiso   1.00
N358   N     0.83333   0.38093   0.25000   0.00000  Uiso   1.00
N359   N     0.88477   0.38385   0.30923   0.00000  Uiso   1.00
N360   N     0.78253   0.61606   0.19020   0.00000  Uiso   1.00
N361   N     0.78437   0.37682   0.18635   0.00000  Uiso   1.00
N362   N     0.88466   0.62308   0.31168   0.00000  Uiso   1.00
O363   O     0.77226   0.53821   0.24999   0.00000  Uiso   1.00
O364   O     0.89441   0.46179   0.25000   0.00000  Uiso   1.00
O365   O     0.89441   0.53821   0.25000   0.00000  Uiso   1.00
O366   O     0.77226   0.46179   0.24999   0.00000  Uiso   1.00
O367   O     0.83333   0.53822   0.18453   0.00000  Uiso   1.00
O368   O     0.83334   0.46178   0.31547   0.00000  Uiso   1.00
O369   O     0.83334   0.53822   0.31547   0.00000  Uiso   1.00
O370   O     0.83333   0.46178   0.18453   0.00000  Uiso   1.00
Zn371  Zn    0.83333   0.55104   0.25000   0.00000  Uiso   1.00
Zn372  Zn    0.83333   0.44896   0.25000   0.00000  Uiso   1.00
C373   C     0.08670   0.83322   0.24982   0.00000  Uiso   1.00
C374   C     0.31226   0.87397   0.24480   0.00000  Uiso   1.00
C375   C     0.31182   0.79279   0.25484   0.00000  Uiso   1.00
C376   C     0.02152   0.87384   0.24464   0.00000  Uiso   1.00
C377   C     0.18585   0.86783   0.04813   0.00000  Uiso   1.00
C378   C     0.17113   0.79463   0.45329   0.00000  Uiso   1.00
C379   C     0.15584   0.87456   0.45332   0.00000  Uiso   1.00
C380   C     0.14096   0.80151   0.04650   0.00000  Uiso   1.00
C381   C     0.18712   0.86701   0.09416   0.00000  Uiso   1.00
C382   C     0.17226   0.79434   0.40733   0.00000  Uiso   1.00
C383   C     0.15712   0.87433   0.40727   0.00000  Uiso   1.00
C384   C     0.24663   0.83344   0.25006   0.00000  Uiso   1.00
C385   C     0.14241   0.80059   0.09254   0.00000  Uiso   1.00
C386   C     0.16573   0.83312   0.11625   0.00000  Uiso   1.00
C387   C     0.16546   0.83421   0.38419   0.00000  Uiso   1.00
C388   C     0.16290   0.83496   0.02434   0.00000  Uiso   1.00
C389   C     0.16296   0.83471   0.47625   0.00000  Uiso   1.00
C390   C     0.29083   0.83346   0.24996   0.00000  Uiso   1.00
C391   C     0.04251   0.83318   0.24964   0.00000  Uiso   1.00
C392   C     0.16647   0.83311   0.16407   0.00000  Uiso   1.00
C393   C     0.16650   0.83364   0.33610   0.00000  Uiso   1.00
C394   C     0.19158   0.69189   0.27912   0.00000  Uiso   1.00
C395   C     0.14185   0.97474   0.22080   0.00000  Uiso   1.00
C396   C     0.14212   0.68920   0.22027   0.00000  Uiso   1.00
C397   C     0.19160   0.97742   0.27942   0.00000  Uiso   1.00
C398   C     0.02107   0.79265   0.25467   0.00000  Uiso   1.00
H399   H     0.24887   0.70812   0.30330   0.00000  Uiso   1.00
H400   H     0.17720   0.76380   0.47095   0.00000  Uiso   1.00
H401   H     0.14910   0.90559   0.47102   0.00000  Uiso   1.00
H402   H     0.12260   0.77643   0.02819   0.00000  Uiso   1.00
H403   H     0.20513   0.89238   0.11249   0.00000  Uiso   1.00
H404   H     0.17872   0.76304   0.39008   0.00000  Uiso   1.00
H405   H     0.15123   0.90532   0.38987   0.00000  Uiso   1.00
H406   H     0.12457   0.77533   0.10947   0.00000  Uiso   1.00
H407   H     0.03705   0.76101   0.25870   0.00000  Uiso   1.00
H408   H     0.29629   0.90561   0.24070   0.00000  Uiso   1.00
H409   H     0.29551   0.76117   0.25891   0.00000  Uiso   1.00
H410   H     0.21111   0.70804   0.34176   0.00000  Uiso   1.00
H411   H     0.03784   0.90545   0.24054   0.00000  Uiso   1.00
H412   H     0.12417   0.95752   0.15775   0.00000  Uiso   1.00
H413   H     0.08505   0.95911   0.19477   0.00000  Uiso   1.00
H414   H     0.09844   0.73419   0.20035   0.00000  Uiso   1.00
H415   H     0.13785   0.72436   0.16369   0.00000  Uiso   1.00
H416   H     0.19988   0.93959   0.33457   0.00000  Uiso   1.00
H417   H     0.23850   0.93484   0.29592   0.00000  Uiso   1.00
H418   H     0.20325   0.89350   0.03110   0.00000  Uiso   1.00
N419   N     0.16667   0.95240   0.25000   0.00000  Uiso   1.00
N420   N     0.16667   0.71427   0.25000   0.00000  Uiso   1.00
N421   N     0.21810   0.71719   0.30923   0.00000  Uiso   1.00
N422   N     0.11586   0.94939   0.19020   0.00000  Uiso   1.00
N423   N     0.11770   0.71015   0.18635   0.00000  Uiso   1.00
N424   N     0.21799   0.95641   0.31168   0.00000  Uiso   1.00
O425   O     0.10559   0.87154   0.24999   0.00000  Uiso   1.00
O426   O     0.22774   0.79513   0.25000   0.00000  Uiso   1.00
O427   O     0.22774   0.87154   0.25000   0.00000  Uiso   1.00
O428   O     0.10559   0.79513   0.24999   0.00000  Uiso   1.00
O429   O     0.16666   0.87155   0.18453   0.00000  Uiso   1.00
O430   O     0.16667   0.79511   0.31547   0.00000  Uiso   1.00
O431   O     0.16667   0.87155   0.31547   0.00000  Uiso   1.00
O432   O     0.16666   0.79511   0.18453   0.00000  Uiso   1.00
Zn433  Zn    0.16667   0.88437   0.25000   0.00000  Uiso   1.00
Zn434  Zn    0.16667   0.78229   0.25000   0.00000  Uiso   1.00
C435   C     0.42004   0.83322   0.24982   0.00000  Uiso   1.00
C436   C     0.64559   0.87397   0.24480   0.00000  Uiso   1.00
C437   C     0.64515   0.79279   0.25484   0.00000  Uiso   1.00
C438   C     0.35485   0.87384   0.24464   0.00000  Uiso   1.00
C439   C     0.51918   0.86783   0.04813   0.00000  Uiso   1.00
C440   C     0.50446   0.79463   0.45329   0.00000  Uiso   1.00
C441   C     0.48917   0.87456   0.45332   0.00000  Uiso   1.00
C442   C     0.47429   0.80151   0.04650   0.00000  Uiso   1.00
C443   C     0.52045   0.86701   0.09416   0.00000  Uiso   1.00
C444   C     0.50559   0.79434   0.40733   0.00000  Uiso   1.00
C445   C     0.49045   0.87433   0.40727   0.00000  Uiso   1.00
C446   C     0.57997   0.83344   0.25006   0.00000  Uiso   1.00
C447   C     0.47575   0.80059   0.09254   0.00000  Uiso   1.00
C448   C     0.49906   0.83312   0.11625   0.00000  Uiso   1.00
C449   C     0.49879   0.83421   0.38419   0.00000  Uiso   1.00
C450   C     0.49623   0.83496   0.02434   0.00000  Uiso   1.00
C451   C     0.49629   0.83471   0.47625   0.00000  Uiso   1.00
C452   C     0.62416   0.83346   0.24996   0.00000  Uiso   1.00
C453   C     0.37584   0.83318   0.24964   0.00000  Uiso   1.00
C454   C     0.49981   0.83311   0.16407   0.00000  Uiso   1.00
C455   C     0.49984   0.83364   0.33610   0.00000  Uiso   1.00
C456   C     0.52492   0.69189   0.27912   0.00000  Uiso   1.00
C457   C     0.47518   0.97474   0.22080   0.00000  Uiso   1.00
C458   C     0.47545   0.68920   0.22027   0.00000  Uiso   1.00
C459   C     0.52493   0.97742   0.27942   0.00000  Uiso   1.00
C460   C     0.35441   0.79265   0.25467   0.00000  Uiso   1.00
H461   H     0.58220   0.70812   0.30330   0.00000  Uiso   1.00
H462   H     0.51053   0.76380   0.47095   0.00000  Uiso   1.00
H463   H     0.48244   0.90559   0.47102   0.00000  Uiso   1.00
H464   H     0.45594   0.77643   0.02819   0.00000  Uiso   1.00
H465   H     0.53846   0.89238   0.11249   0.00000  Uiso   1.00
H466   H     0.51205   0.76304   0.39008   0.00000  Uiso   1.00
H467   H     0.48456   0.90532   0.38987   0.00000  Uiso   1.00
H468   H     0.45791   0.77533   0.10947   0.00000  Uiso   1.00
H469   H     0.37038   0.76101   0.25870   0.00000  Uiso   1.00
H470   H     0.62962   0.90561   0.24070   0.00000  Uiso   1.00
H471   H     0.62884   0.76117   0.25891   0.00000  Uiso   1.00
H472   H     0.54445   0.70804   0.34176   0.00000  Uiso   1.00
H473   H     0.37117   0.90545   0.24054   0.00000  Uiso   1.00
H474   H     0.45751   0.95752   0.15775   0.00000  Uiso   1.00
H475   H     0.41838   0.95911   0.19477   0.00000  Uiso   1.00
H476   H     0.43177   0.73419   0.20035   0.00000  Uiso   1.00
H477   H     0.47118   0.72436   0.16369   0.00000  Uiso   1.00
H478   H     0.53321   0.93959   0.33457   0.00000  Uiso   1.00
H479   H     0.57184   0.93484   0.29592   0.00000  Uiso   1.00
H480   H     0.53658   0.89350   0.03110   0.00000  Uiso   1.00
N481   N     0.50000   0.95240   0.25000   0.00000  Uiso   1.00
N482   N     0.50000   0.71427   0.25000   0.00000  Uiso   1.00
N483   N     0.55143   0.71719   0.30923   0.00000  Uiso   1.00
N484   N     0.44920   0.94939   0.19020   0.00000  Uiso   1.00
N485   N     0.45103   0.71015   0.18635   0.00000  Uiso   1.00
N486   N     0.55133   0.95641   0.31168   0.00000  Uiso   1.00
O487   O     0.43892   0.87154   0.24999   0.00000  Uiso   1.00
O488   O     0.56108   0.79513   0.25000   0.00000  Uiso   1.00
O489   O     0.56108   0.87154   0.25000   0.00000  Uiso   1.00
O490   O     0.43892   0.79513   0.24999   0.00000  Uiso   1.00
O491   O     0.50000   0.87155   0.18453   0.00000  Uiso   1.00
O492   O     0.50000   0.79511   0.31547   0.00000  Uiso   1.00
O493   O     0.50000   0.87155   0.31547   0.00000  Uiso   1.00
O494   O     0.50000   0.79511   0.18453   0.00000  Uiso   1.00
Zn495  Zn    0.50000   0.88437   0.25000   0.00000  Uiso   1.00
Zn496  Zn    0.50000   0.78229   0.25000   0.00000  Uiso   1.00
C497   C     0.75337   0.83322   0.24982   0.00000  Uiso   1.00
C498   C     0.97893   0.87397   0.24480   0.00000  Uiso   1.00
C499   C     0.97848   0.79279   0.25484   0.00000  Uiso   1.00
C500   C     0.68819   0.87384   0.24464   0.00000  Uiso   1.00
C501   C     0.85251   0.86783   0.04813   0.00000  Uiso   1.00
C502   C     0.83780   0.79463   0.45329   0.00000  Uiso   1.00
C503   C     0.82251   0.87456   0.45332   0.00000  Uiso   1.00
C504   C     0.80762   0.80151   0.04650   0.00000  Uiso   1.00
C505   C     0.85378   0.86701   0.09416   0.00000  Uiso   1.00
C506   C     0.83892   0.79434   0.40733   0.00000  Uiso   1.00
C507   C     0.82379   0.87433   0.40727   0.00000  Uiso   1.00
C508   C     0.91330   0.83344   0.25006   0.00000  Uiso   1.00
C509   C     0.80908   0.80059   0.09254   0.00000  Uiso   1.00
C510   C     0.83239   0.83312   0.11625   0.00000  Uiso   1.00
C511   C     0.83212   0.83421   0.38419   0.00000  Uiso   1.00
C512   C     0.82956   0.83496   0.02434   0.00000  Uiso   1.00
C513   C     0.82962   0.83471   0.47625   0.00000  Uiso   1.00
C514   C     0.95750   0.83346   0.24996   0.00000  Uiso   1.00
C515   C     0.70917   0.83318   0.24964   0.00000  Uiso   1.00
C516   C     0.83314   0.83311   0.16407   0.00000  Uiso   1.00
C517   C     0.83317   0.83364   0.33610   0.00000  Uiso   1.00
C518   C     0.85825   0.69189   0.27912   0.00000  Uiso   1.00
C519   C     0.80851   0.97474   0.22080   0.00000  Uiso   1.00
C520   C     0.80879   0.68920   0.22027   0.00000  Uiso   1.00
C521   C     0.85827   0.97742   0.27942   0.00000  Uiso   1.00
C522   C     0.68774   0.79265   0.25467   0.00000  Uiso   1.00
H523   H     0.91553   0.70812   0.30330   0.00000  Uiso   1.00
H524   H     0.84386   0.76380   0.47095   0.00000  Uiso   1.00
H525   H     0.81577   0.90559   0.47102   0.00000  Uiso   1.00
H526   H     0.78927   0.77643   0.02819   0.00000  Uiso   1.00
H527   H     0.87179   0.89238   0.11249   0.00000  Uiso   1.00
H528   H     0.84538   0.76304   0.39008   0.00000  Uiso   1.00
H529   H     0.81789   0.90532   0.38987   0.00000  Uiso   1.00
H530   H     0.79124   0.77533   0.10947   0.00000  Uiso   1.00
H531   H     0.70371   0.76101   0.25870   0.00000  Uiso   1.00
H532   H     0.96295   0.90561   0.24070   0.00000  Uiso   1.00
H533   H     0.96218   0.76117   0.25891   0.00000  Uiso   1.00
H534   H     0.87778   0.70804   0.34176   0.00000  Uiso   1.00
H535   H     0.70450   0.90545   0.24054   0.00000  Uiso   1.00
H536   H     0.79084   0.95752   0.15775   0.00000  Uiso   1.00
H537   H     0.75171   0.95911   0.19477   0.00000  Uiso   1.00
H538   H     0.76510   0.73419   0.20035   0.00000  Uiso   1.00
H539   H     0.80452   0.72436   0.16369   0.00000  Uiso   1.00
H540   H     0.86654   0.93959   0.33457   0.00000  Uiso   1.00
H541   H     0.90517   0.93484   0.29592   0.00000  Uiso   1.00
H542   H     0.86991   0.89350   0.03110   0.00000  Uiso   1.00
N543   N     0.83333   0.95240   0.25000   0.00000  Uiso   1.00
N544   N     0.83333   0.71427   0.25000   0.00000  Uiso   1.00
N545   N     0.88477   0.71719   0.30923   0.00000  Uiso   1.00
N546   N     0.78253   0.94939   0.19020   0.00000  Uiso   1.00
N547   N     0.78437   0.71015   0.18635   0.00000  Uiso   1.00
N548   N     0.88466   0.95641   0.31168   0.00000  Uiso   1.00
O549   O     0.77226   0.87154   0.24999   0.00000  Uiso   1.00
O550   O     0.89441   0.79513   0.25000   0.00000  Uiso   1.00
O551   O     0.89441   0.87154   0.25000   0.00000  Uiso   1.00
O552   O     0.77226   0.79513   0.24999   0.00000  Uiso   1.00
O553   O     0.83333   0.87155   0.18453   0.00000  Uiso   1.00
O554   O     0.83334   0.79511   0.31547   0.00000  Uiso   1.00
O555   O     0.83334   0.87155   0.31547   0.00000  Uiso   1.00
O556   O     0.83333   0.79511   0.18453   0.00000  Uiso   1.00
Zn557  Zn    0.83333   0.88437   0.25000   0.00000  Uiso   1.00
Zn558  Zn    0.83333   0.78229   0.25000   0.00000  Uiso   1.00
C559   C     0.08670   0.16656   0.74982   0.00000  Uiso   1.00
C560   C     0.31226   0.20731   0.74480   0.00000  Uiso   1.00
C561   C     0.31182   0.12612   0.75484   0.00000  Uiso   1.00
C562   C     0.02152   0.20717   0.74464   0.00000  Uiso   1.00
C563   C     0.18585   0.20116   0.54813   0.00000  Uiso   1.00
C564   C     0.17113   0.12796   0.95329   0.00000  Uiso   1.00
C565   C     0.15584   0.20789   0.95332   0.00000  Uiso   1.00
C566   C     0.14096   0.13485   0.54650   0.00000  Uiso   1.00
C567   C     0.18712   0.20034   0.59416   0.00000  Uiso   1.00
C568   C     0.17226   0.12767   0.90733   0.00000  Uiso   1.00
C569   C     0.15712   0.20767   0.90727   0.00000  Uiso   1.00
C570   C     0.24663   0.16677   0.75006   0.00000  Uiso   1.00
C571   C     0.14241   0.13392   0.59254   0.00000  Uiso   1.00
C572   C     0.16573   0.16645   0.61625   0.00000  Uiso   1.00
C573   C     0.16546   0.16754   0.88419   0.00000  Uiso   1.00
C574   C     0.16290   0.16829   0.52434   0.00000  Uiso   1.00
C575   C     0.16296   0.16805   0.97625   0.00000  Uiso   1.00
C576   C     0.29083   0.16679   0.74996   0.00000  Uiso   1.00
C577   C     0.04251   0.16652   0.74964   0.00000  Uiso   1.00
C578   C     0.16647   0.16644   0.66407   0.00000  Uiso   1.00
C579   C     0.16650   0.16697   0.83610   0.00000  Uiso   1.00
C580   C     0.19158   0.02523   0.77912   0.00000  Uiso   1.00
C581   C     0.14185   0.30808   0.72080   0.00000  Uiso   1.00
C582   C     0.14212   0.02253   0.72027   0.00000  Uiso   1.00
C583   C     0.19160   0.31076   0.77942   0.00000  Uiso   1.00
C584   C     0.02107   0.12598   0.75467   0.00000  Uiso   1.00
H585   H     0.24887   0.04145   0.80330   0.00000  Uiso   1.00
H586   H     0.17720   0.09713   0.97095   0.00000  Uiso   1.00
H587   H     0.14910   0.23893   0.97102   0.00000  Uiso   1.00
H588   H     0.12260   0.10977   0.52819   0.00000  Uiso   1.00
H589   H     0.20513   0.22571   0.61249   0.00000  Uiso   1.00
H590   H     0.17872   0.09638   0.89008   0.00000  Uiso   1.00
H591   H     0.15123   0.23865   0.88987   0.00000  Uiso   1.00
H592   H     0.12457   0.10867   0.60947   0.00000  Uiso   1.00
H593   H     0.03705   0.09434   0.75870   0.00000  Uiso   1.00
H594   H     0.29629   0.23894   0.74070   0.00000  Uiso   1.00
H595   H     0.29551   0.09450   0.75891   0.00000  Uiso   1.00
H596   H     0.21111   0.04137   0.84176   0.00000  Uiso   1.00
H597   H     0.03784   0.23879   0.74054   0.00000  Uiso   1.00
H598   H     0.12417   0.29086   0.65775   0.00000  Uiso   1.00
H599   H     0.08505   0.29245   0.69477   0.00000  Uiso   1.00
H600   H     0.09844   0.06752   0.70035   0.00000  Uiso   1.00
H601   H     0.13785   0.05770   0.66369   0.00000  Uiso   1.00
H602   H     0.19988   0.27293   0.83457   0.00000  Uiso   1.00
H603   H     0.23850   0.26817   0.79592   0.00000  Uiso   1.00
H604   H     0.20325   0.22684   0.53110   0.00000  Uiso   1.00
N605   N     0.16667   0.28573   0.75000   0.00000  Uiso   1.00
N606   N     0.16667   0.04760   0.75000   0.00000  Uiso   1.00
N607   N     0.21810   0.05052   0.80923   0.00000  Uiso   1.00
N608   N     0.11586   0.28272   0.69020   0.00000  Uiso   1.00
N609   N     0.11770   0.04349   0.68635   0.00000  Uiso   1.00
N610   N     0.21799   0.28974   0.81168   0.00000  Uiso   1.00
O611   O     0.10559   0.20487   0.74999   0.00000  Uiso   1.00
O612   O     0.22774   0.12846   0.75000   0.00000  Uiso   1.00
O613   O     0.22774   0.20487   0.75000   0.00000  Uiso   1.00
O614   O     0.10559   0.12846   0.74999   0.00000  Uiso   1.00
O615   O     0.16666   0.20489   0.68453   0.00000  Uiso   1.00
O616   O     0.16667   0.12845   0.81547   0.00000  Uiso   1.00
O617   O     0.16667   0.20489   0.81547   0.00000  Uiso   1.00
O618   O     0.16666   0.12845   0.68453   0.00000  Uiso   1.00
Zn619  Zn    0.16667   0.21771   0.75000   0.00000  Uiso   1.00
Zn620  Zn    0.16667   0.11563   0.75000   0.00000  Uiso   1.00
C621   C     0.42004   0.16656   0.74982   0.00000  Uiso   1.00
C622   C     0.64559   0.20731   0.74480   0.00000  Uiso   1.00
C623   C     0.64515   0.12612   0.75484   0.00000  Uiso   1.00
C624   C     0.35485   0.20717   0.74464   0.00000  Uiso   1.00
C625   C     0.51918   0.20116   0.54813   0.00000  Uiso   1.00
C626   C     0.50446   0.12796   0.95329   0.00000  Uiso   1.00
C627   C     0.48917   0.20789   0.95332   0.00000  Uiso   1.00
C628   C     0.47429   0.13485   0.54650   0.00000  Uiso   1.00
C629   C     0.52045   0.20034   0.59416   0.00000  Uiso   1.00
C630   C     0.50559   0.12767   0.90733   0.00000  Uiso   1.00
C631   C     0.49045   0.20767   0.90727   0.00000  Uiso   1.00
C632   C     0.57997   0.16677   0.75006   0.00000  Uiso   1.00
C633   C     0.47575   0.13392   0.59254   0.00000  Uiso   1.00
C634   C     0.49906   0.16645   0.61625   0.00000  Uiso   1.00
C635   C     0.49879   0.16754   0.88419   0.00000  Uiso   1.00
C636   C     0.49623   0.16829   0.52434   0.00000  Uiso   1.00
C637   C     0.49629   0.16805   0.97625   0.00000  Uiso   1.00
C638   C     0.62416   0.16679   0.74996   0.00000  Uiso   1.00
C639   C     0.37584   0.16652   0.74964   0.00000  Uiso   1.00
C640   C     0.49981   0.16644   0.66407   0.00000  Uiso   1.00
C641   C     0.49984   0.16697   0.83610   0.00000  Uiso   1.00
C642   C     0.52492   0.02523   0.77912   0.00000  Uiso   1.00
C643   C     0.47518   0.30808   0.72080   0.00000  Uiso   1.00
C644   C     0.47545   0.02253   0.72027   0.00000  Uiso   1.00
C645   C     0.52493   0.31076   0.77942   0.00000  Uiso   1.00
C646   C     0.35441   0.12598   0.75467   0.00000  Uiso   1.00
H647   H     0.58220   0.04145   0.80330   0.00000  Uiso   1.00
H648   H     0.51053   0.09713   0.97095   0.00000  Uiso   1.00
H649   H     0.48244   0.23893   0.97102   0.00000  Uiso   1.00
H650   H     0.45594   0.10977   0.52819   0.00000  Uiso   1.00
H651   H     0.53846   0.22571   0.61249   0.00000  Uiso   1.00
H652   H     0.51205   0.09638   0.89008   0.00000  Uiso   1.00
H653   H     0.48456   0.23865   0.88987   0.00000  Uiso   1.00
H654   H     0.45791   0.10867   0.60947   0.00000  Uiso   1.00
H655   H     0.37038   0.09434   0.75870   0.00000  Uiso   1.00
H656   H     0.62962   0.23894   0.74070   0.00000  Uiso   1.00
H657   H     0.62884   0.09450   0.75891   0.00000  Uiso   1.00
H658   H     0.54445   0.04137   0.84176   0.00000  Uiso   1.00
H659   H     0.37117   0.23879   0.74054   0.00000  Uiso   1.00
H660   H     0.45751   0.29086   0.65775   0.00000  Uiso   1.00
H661   H     0.41838   0.29245   0.69477   0.00000  Uiso   1.00
H662   H     0.43177   0.06752   0.70035   0.00000  Uiso   1.00
H663   H     0.47118   0.05770   0.66369   0.00000  Uiso   1.00
H664   H     0.53321   0.27293   0.83457   0.00000  Uiso   1.00
H665   H     0.57184   0.26817   0.79592   0.00000  Uiso   1.00
H666   H     0.53658   0.22684   0.53110   0.00000  Uiso   1.00
N667   N     0.50000   0.28573   0.75000   0.00000  Uiso   1.00
N668   N     0.50000   0.04760   0.75000   0.00000  Uiso   1.00
N669   N     0.55143   0.05052   0.80923   0.00000  Uiso   1.00
N670   N     0.44920   0.28272   0.69020   0.00000  Uiso   1.00
N671   N     0.45103   0.04349   0.68635   0.00000  Uiso   1.00
N672   N     0.55133   0.28974   0.81168   0.00000  Uiso   1.00
O673   O     0.43892   0.20487   0.74999   0.00000  Uiso   1.00
O674   O     0.56108   0.12846   0.75000   0.00000  Uiso   1.00
O675   O     0.56108   0.20487   0.75000   0.00000  Uiso   1.00
O676   O     0.43892   0.12846   0.74999   0.00000  Uiso   1.00
O677   O     0.50000   0.20489   0.68453   0.00000  Uiso   1.00
O678   O     0.50000   0.12845   0.81547   0.00000  Uiso   1.00
O679   O     0.50000   0.20489   0.81547   0.00000  Uiso   1.00
O680   O     0.50000   0.12845   0.68453   0.00000  Uiso   1.00
Zn681  Zn    0.50000   0.21771   0.75000   0.00000  Uiso   1.00
Zn682  Zn    0.50000   0.11563   0.75000   0.00000  Uiso   1.00
C683   C     0.75337   0.16656   0.74982   0.00000  Uiso   1.00
C684   C     0.97893   0.20731   0.74480   0.00000  Uiso   1.00
C685   C     0.97848   0.12612   0.75484   0.00000  Uiso   1.00
C686   C     0.68819   0.20717   0.74464   0.00000  Uiso   1.00
C687   C     0.85251   0.20116   0.54813   0.00000  Uiso   1.00
C688   C     0.83780   0.12796   0.95329   0.00000  Uiso   1.00
C689   C     0.82251   0.20789   0.95332   0.00000  Uiso   1.00
C690   C     0.80762   0.13485   0.54650   0.00000  Uiso   1.00
C691   C     0.85378   0.20034   0.59416   0.00000  Uiso   1.00
C692   C     0.83892   0.12767   0.90733   0.00000  Uiso   1.00
C693   C     0.82379   0.20767   0.90727   0.00000  Uiso   1.00
C694   C     0.91330   0.16677   0.75006   0.00000  Uiso   1.00
C695   C     0.80908   0.13392   0.59254   0.00000  Uiso   1.00
C696   C     0.83239   0.16645   0.61625   0.00000  Uiso   1.00
C697   C     0.83212   0.16754   0.88419   0.00000  Uiso   1.00
C698   C     0.82956   0.16829   0.52434   0.00000  Uiso   1.00
C699   C     0.82962   0.16805   0.97625   0.00000  Uiso   1.00
C700   C     0.95750   0.16679   0.74996   0.00000  Uiso   1.00
C701   C     0.70917   0.16652   0.74964   0.00000  Uiso   1.00
C702   C     0.83314   0.16644   0.66407   0.00000  Uiso   1.00
C703   C     0.83317   0.16697   0.83610   0.00000  Uiso   1.00
C704   C     0.85825   0.02523   0.77912   0.00000  Uiso   1.00
C705   C     0.80851   0.30808   0.72080   0.00000  Uiso   1.00
C706   C     0.80879   0.02253   0.72027   0.00000  Uiso   1.00
C707   C     0.85827   0.31076   0.77942   0.00000  Uiso   1.00
C708   C     0.68774   0.12598   0.75467   0.00000  Uiso   1.00
H709   H     0.91553   0.04145   0.80330   0.00000  Uiso   1.00
H710   H     0.84386   0.09713   0.97095   0.00000  Uiso   1.00
H711   H     0.81577   0.23893   0.97102   0.00000  Uiso   1.00
H712   H     0.78927   0.10977   0.52819   0.00000  Uiso   1.00
H713   H     0.87179   0.22571   0.61249   0.00000  Uiso   1.00
H714   H     0.84538   0.09638   0.89008   0.00000  Uiso   1.00
H715   H     0.81789   0.23865   0.88987   0.00000  Uiso   1.00
H716   H     0.79124   0.10867   0.60947   0.00000  Uiso   1.00
H717   H     0.70371   0.09434   0.75870   0.00000  Uiso   1.00
H718   H     0.96295   0.23894   0.74070   0.00000  Uiso   1.00
H719   H     0.96218   0.09450   0.75891   0.00000  Uiso   1.00
H720   H     0.87778   0.04137   0.84176   0.00000  Uiso   1.00
H721   H     0.70450   0.23879   0.74054   0.00000  Uiso   1.00
H722   H     0.79084   0.29086   0.65775   0.00000  Uiso   1.00
H723   H     0.75171   0.29245   0.69477   0.00000  Uiso   1.00
H724   H     0.76510   0.06752   0.70035   0.00000  Uiso   1.00
H725   H     0.80452   0.05770   0.66369   0.00000  Uiso   1.00
H726   H     0.86654   0.27293   0.83457   0.00000  Uiso   1.00
H727   H     0.90517   0.26817   0.79592   0.00000  Uiso   1.00
H728   H     0.86991   0.22684   0.53110   0.00000  Uiso   1.00
N729   N     0.83333   0.28573   0.75000   0.00000  Uiso   1.00
N730   N     0.83333   0.04760   0.75000   0.00000  Uiso   1.00
N731   N     0.88477   0.05052   0.80923   0.00000  Uiso   1.00
N732   N     0.78253   0.28272   0.69020   0.00000  Uiso   1.00
N733   N     0.78437   0.04349   0.68635   0.00000  Uiso   1.00
N734   N     0.88466   0.28974   0.81168   0.00000  Uiso   1.00
O735   O     0.77226   0.20487   0.74999   0.00000  Uiso   1.00
O736   O     0.89441   0.12846   0.75000   0.00000  Uiso   1.00
O737   O     0.89441   0.20487   0.75000   0.00000  Uiso   1.00
O738   O     0.77226   0.12846   0.74999   0.00000  Uiso   1.00
O739   O     0.83333   0.20489   0.68453   0.00000  Uiso   1.00
O740   O     0.83334   0.12845   0.81547   0.00000  Uiso   1.00
O741   O     0.83334   0.20489   0.81547   0.00000  Uiso   1.00
O742   O     0.83333   0.12845   0.68453   0.00000  Uiso   1.00
Zn743  Zn    0.83333   0.21771   0.75000   0.00000  Uiso   1.00
Zn744  Zn    0.83333   0.11563   0.75000   0.00000  Uiso   1.00
C745   C     0.08670   0.49989   0.74982   0.00000  Uiso   1.00
C746   C     0.31226   0.54064   0.74480   0.00000  Uiso   1.00
C747   C     0.31182   0.45945   0.75484   0.00000  Uiso   1.00
C748   C     0.02152   0.54051   0.74464   0.00000  Uiso   1.00
C749   C     0.18585   0.53449   0.54813   0.00000  Uiso   1.00
C750   C     0.17113   0.46130   0.95329   0.00000  Uiso   1.00
C751   C     0.15584   0.54122   0.95332   0.00000  Uiso   1.00
C752   C     0.14096   0.46818   0.54650   0.00000  Uiso   1.00
C753   C     0.18712   0.53367   0.59416   0.00000  Uiso   1.00
C754   C     0.17226   0.46100   0.90733   0.00000  Uiso   1.00
C755   C     0.15712   0.54100   0.90727   0.00000  Uiso   1.00
C756   C     0.24663   0.50011   0.75006   0.00000  Uiso   1.00
C757   C     0.14241   0.46725   0.59254   0.00000  Uiso   1.00
C758   C     0.16573   0.49979   0.61625   0.00000  Uiso   1.00
C759   C     0.16546   0.50087   0.88419   0.00000  Uiso   1.00
C760   C     0.16290   0.50163   0.52434   0.00000  Uiso   1.00
C761   C     0.16296   0.50138   0.97625   0.00000  Uiso   1.00
C762   C     0.29083   0.50013   0.74996   0.00000  Uiso   1.00
C763   C     0.04251   0.49985   0.74964   0.00000  Uiso   1.00
C764   C     0.16647   0.49978   0.66407   0.00000  Uiso   1.00
C765   C     0.16650   0.50030   0.83610   0.00000  Uiso   1.00
C766   C     0.19158   0.35856   0.77912   0.00000  Uiso   1.00
C767   C     0.14185   0.64141   0.72080   0.00000  Uiso   1.00
C768   C     0.14212   0.35587   0.72027   0.00000  Uiso   1.00
C769   C     0.19160   0.64409   0.77942   0.00000  Uiso   1.00
C770   C     0.02107   0.45932   0.75467   0.00000  Uiso   1.00
H771   H     0.24887   0.37478   0.80330   0.00000  Uiso   1.00
H772   H     0.17720   0.43047   0.97095   0.00000  Uiso   1.00
H773   H     0.14910   0.57226   0.97102   0.00000  Uiso   1.00
H774   H     0.12260   0.44310   0.52819   0.00000  Uiso   1.00
H775   H     0.20513   0.55904   0.61249   0.00000  Uiso   1.00
H776   H     0.17872   0.42971   0.89008   0.00000  Uiso   1.00
H777   H     0.15123   0.57199   0.88987   0.00000  Uiso   1.00
H778   H     0.12457   0.44200   0.60947   0.00000  Uiso   1.00
H779   H     0.03705   0.42767   0.75870   0.00000  Uiso   1.00
H780   H     0.29629   0.57227   0.74070   0.00000  Uiso   1.00
H781   H     0.29551   0.42784   0.75891   0.00000  Uiso   1.00
H782   H     0.21111   0.37470   0.84176   0.00000  Uiso   1.00
H783   H     0.03784   0.57212   0.74054   0.00000  Uiso   1.00
H784   H     0.12417   0.62419   0.65775   0.00000  Uiso   1.00
H785   H     0.08505   0.62578   0.69477   0.00000  Uiso   1.00
H786   H     0.09844   0.40085   0.70035   0.00000  Uiso   1.00
H787   H     0.13785   0.39103   0.66369   0.00000  Uiso   1.00
H788   H     0.19988   0.60626   0.83457   0.00000  Uiso   1.00
H789   H     0.23850   0.60150   0.79592   0.00000  Uiso   1.00
H790   H     0.20325   0.56017   0.53110   0.00000  Uiso   1.00
N791   N     0.16667   0.61907   0.75000   0.00000  Uiso   1.00
N792   N     0.16667   0.38093   0.75000   0.00000  Uiso   1.00
N793   N     0.21810   0.38385   0.80923   0.00000  Uiso   1.00
N794   N     0.11586   0.61606   0.69020   0.00000  Uiso   1.00
N795   N     0.11770   0.37682   0.68635   0.00000  Uiso   1.00
N796   N     0.21799   0.62308   0.81168   0.00000  Uiso   1.00
O797   O     0.10559   0.53821   0.74999   0.00000  Uiso   1.00
O798   O     0.22774   0.46179   0.75000   0.00000  Uiso   1.00
O799   O     0.22774   0.53821   0.75000   0.00000  Uiso   1.00
O800   O     0.10559   0.46179   0.74999   0.00000  Uiso   1.00
O801   O     0.16666   0.53822   0.68453   0.00000  Uiso   1.00
O802   O     0.16667   0.46178   0.81547   0.00000  Uiso   1.00
O803   O     0.16667   0.53822   0.81547   0.00000  Uiso   1.00
O804   O     0.16666   0.46178   0.68453   0.00000  Uiso   1.00
Zn805  Zn    0.16667   0.55104   0.75000   0.00000  Uiso   1.00
Zn806  Zn    0.16667   0.44896   0.75000   0.00000  Uiso   1.00
C807   C     0.42004   0.49989   0.74982   0.00000  Uiso   1.00
C808   C     0.64559   0.54064   0.74480   0.00000  Uiso   1.00
C809   C     0.64515   0.45945   0.75484   0.00000  Uiso   1.00
C810   C     0.35485   0.54051   0.74464   0.00000  Uiso   1.00
C811   C     0.51918   0.53449   0.54813   0.00000  Uiso   1.00
C812   C     0.50446   0.46130   0.95329   0.00000  Uiso   1.00
C813   C     0.48917   0.54122   0.95332   0.00000  Uiso   1.00
C814   C     0.47429   0.46818   0.54650   0.00000  Uiso   1.00
C815   C     0.52045   0.53367   0.59416   0.00000  Uiso   1.00
C816   C     0.50559   0.46100   0.90733   0.00000  Uiso   1.00
C817   C     0.49045   0.54100   0.90727   0.00000  Uiso   1.00
C818   C     0.57997   0.50011   0.75006   0.00000  Uiso   1.00
C819   C     0.47575   0.46725   0.59254   0.00000  Uiso   1.00
C820   C     0.49906   0.49979   0.61625   0.00000  Uiso   1.00
C821   C     0.49879   0.50087   0.88419   0.00000  Uiso   1.00
C822   C     0.49623   0.50163   0.52434   0.00000  Uiso   1.00
C823   C     0.49629   0.50138   0.97625   0.00000  Uiso   1.00
C824   C     0.62416   0.50013   0.74996   0.00000  Uiso   1.00
C825   C     0.37584   0.49985   0.74964   0.00000  Uiso   1.00
C826   C     0.49981   0.49978   0.66407   0.00000  Uiso   1.00
C827   C     0.49984   0.50030   0.83610   0.00000  Uiso   1.00
C828   C     0.52492   0.35856   0.77912   0.00000  Uiso   1.00
C829   C     0.47518   0.64141   0.72080   0.00000  Uiso   1.00
C830   C     0.47545   0.35587   0.72027   0.00000  Uiso   1.00
C831   C     0.52493   0.64409   0.77942   0.00000  Uiso   1.00
C832   C     0.35441   0.45932   0.75467   0.00000  Uiso   1.00
H833   H     0.58220   0.37478   0.80330   0.00000  Uiso   1.00
H834   H     0.51053   0.43047   0.97095   0.00000  Uiso   1.00
H835   H     0.48244   0.57226   0.97102   0.00000  Uiso   1.00
H836   H     0.45594   0.44310   0.52819   0.00000  Uiso   1.00
H837   H     0.53846   0.55904   0.61249   0.00000  Uiso   1.00
H838   H     0.51205   0.42971   0.89008   0.00000  Uiso   1.00
H839   H     0.48456   0.57199   0.88987   0.00000  Uiso   1.00
H840   H     0.45791   0.44200   0.60947   0.00000  Uiso   1.00
H841   H     0.37038   0.42767   0.75870   0.00000  Uiso   1.00
H842   H     0.62962   0.57227   0.74070   0.00000  Uiso   1.00
H843   H     0.62884   0.42784   0.75891   0.00000  Uiso   1.00
H844   H     0.54445   0.37470   0.84176   0.00000  Uiso   1.00
H845   H     0.37117   0.57212   0.74054   0.00000  Uiso   1.00
H846   H     0.45751   0.62419   0.65775   0.00000  Uiso   1.00
H847   H     0.41838   0.62578   0.69477   0.00000  Uiso   1.00
H848   H     0.43177   0.40085   0.70035   0.00000  Uiso   1.00
H849   H     0.47118   0.39103   0.66369   0.00000  Uiso   1.00
H850   H     0.53321   0.60626   0.83457   0.00000  Uiso   1.00
H851   H     0.57184   0.60150   0.79592   0.00000  Uiso   1.00
H852   H     0.53658   0.56017   0.53110   0.00000  Uiso   1.00
N853   N     0.50000   0.61907   0.75000   0.00000  Uiso   1.00
N854   N     0.50000   0.38093   0.75000   0.00000  Uiso   1.00
N855   N     0.55143   0.38385   0.80923   0.00000  Uiso   1.00
N856   N     0.44920   0.61606   0.69020   0.00000  Uiso   1.00
N857   N     0.45103   0.37682   0.68635   0.00000  Uiso   1.00
N858   N     0.55133   0.62308   0.81168   0.00000  Uiso   1.00
O859   O     0.43892   0.53821   0.74999   0.00000  Uiso   1.00
O860   O     0.56108   0.46179   0.75000   0.00000  Uiso   1.00
O861   O     0.56108   0.53821   0.75000   0.00000  Uiso   1.00
O862   O     0.43892   0.46179   0.74999   0.00000  Uiso   1.00
O863   O     0.50000   0.53822   0.68453   0.00000  Uiso   1.00
O864   O     0.50000   0.46178   0.81547   0.00000  Uiso   1.00
O865   O     0.50000   0.53822   0.81547   0.00000  Uiso   1.00
O866   O     0.50000   0.46178   0.68453   0.00000  Uiso   1.00
Zn867  Zn    0.50000   0.55104   0.75000   0.00000  Uiso   1.00
Zn868  Zn    0.50000   0.44896   0.75000   0.00000  Uiso   1.00
C869   C     0.75337   0.49989   0.74982   0.00000  Uiso   1.00
C870   C     0.97893   0.54064   0.74480   0.00000  Uiso   1.00
C871   C     0.97848   0.45945   0.75484   0.00000  Uiso   1.00
C872   C     0.68819   0.54051   0.74464   0.00000  Uiso   1.00
C873   C     0.85251   0.53449   0.54813   0.00000  Uiso   1.00
C874   C     0.83780   0.46130   0.95329   0.00000  Uiso   1.00
C875   C     0.82251   0.54122   0.95332   0.00000  Uiso   1.00
C876   C     0.80762   0.46818   0.54650   0.00000  Uiso   1.00
C877   C     0.85378   0.53367   0.59416   0.00000  Uiso   1.00
C878   C     0.83892   0.46100   0.90733   0.00000  Uiso   1.00
C879   C     0.82379   0.54100   0.90727   0.00000  Uiso   1.00
C880   C     0.91330   0.50011   0.75006   0.00000  Uiso   1.00
C881   C     0.80908   0.46725   0.59254   0.00000  Uiso   1.00
C882   C     0.83239   0.49979   0.61625   0.00000  Uiso   1.00
C883   C     0.83212   0.50087   0.88419   0.00000  Uiso   1.00
C884   C     0.82956   0.50163   0.52434   0.00000  Uiso   1.00
C885   C     0.82962   0.50138   0.97625   0.00000  Uiso   1.00
C886   C     0.95750   0.50013   0.74996   0.00000  Uiso   1.00
C887   C     0.70917   0.49985   0.74964   0.00000  Uiso   1.00
C888   C     0.83314   0.49978   0.66407   0.00000  Uiso   1.00
C889   C     0.83317   0.50030   0.83610   0.00000  Uiso   1.00
C890   C     0.85825   0.35856   0.77912   0.00000  Uiso   1.00
C891   C     0.80851   0.64141   0.72080   0.00000  Uiso   1.00
C892   C     0.80879   0.35587   0.72027   0.00000  Uiso   1.00
C893   C     0.85827   0.64409   0.77942   0.00000  Uiso   1.00
C894   C     0.68774   0.45932   0.75467   0.00000  Uiso   1.00
H895   H     0.91553   0.37478   0.80330   0.00000  Uiso   1.00
H896   H     0.84386   0.43047   0.97095   0.00000  Uiso   1.00
H897   H     0.81577   0.57226   0.97102   0.00000  Uiso   1.00
H898   H     0.78927   0.44310   0.52819   0.00000  Uiso   1.00
H899   H     0.87179   0.55904   0.61249   0.00000  Uiso   1.00
H900   H     0.84538   0.42971   0.89008   0.00000  Uiso   1.00
H901   H     0.81789   0.57199   0.88987   0.00000  Uiso   1.00
H902   H     0.79124   0.44200   0.60947   0.00000  Uiso   1.00
H903   H     0.70371   0.42767   0.75870   0.00000  Uiso   1.00
H904   H     0.96295   0.57227   0.74070   0.00000  Uiso   1.00
H905   H     0.96218   0.42784   0.75891   0.00000  Uiso   1.00
H906   H     0.87778   0.37470   0.84176   0.00000  Uiso   1.00
H907   H     0.70450   0.57212   0.74054   0.00000  Uiso   1.00
H908   H     0.79084   0.62419   0.65775   0.00000  Uiso   1.00
H909   H     0.75171   0.62578   0.69477   0.00000  Uiso   1.00
H910   H     0.76510   0.40085   0.70035   0.00000  Uiso   1.00
H911   H     0.80452   0.39103   0.66369   0.00000  Uiso   1.00
H912   H     0.86654   0.60626   0.83457   0.00000  Uiso   1.00
H913   H     0.90517   0.60150   0.79592   0.00000  Uiso   1.00
H914   H     0.86991   0.56017   0.53110   0.00000  Uiso   1.00
N915   N     0.83333   0.61907   0.75000   0.00000  Uiso   1.00
N916   N     0.83333   0.38093   0.75000   0.00000  Uiso   1.00
N917   N     0.88477   0.38385   0.80923   0.00000  Uiso   1.00
N918   N     0.78253   0.61606   0.69020   0.00000  Uiso   1.00
N919   N     0.78437   0.37682   0.68635   0.00000  Uiso   1.00
N920   N     0.88466   0.62308   0.81168   0.00000  Uiso   1.00
O921   O     0.77226   0.53821   0.74999   0.00000  Uiso   1.00
O922   O     0.89441   0.46179   0.75000   0.00000  Uiso   1.00
O923   O     0.89441   0.53821   0.75000   0.00000  Uiso   1.00
O924   O     0.77226   0.46179   0.74999   0.00000  Uiso   1.00
O925   O     0.83333   0.53822   0.68453   0.00000  Uiso   1.00
O926   O     0.83334   0.46178   0.81547   0.00000  Uiso   1.00
O927   O     0.83334   0.53822   0.81547   0.00000  Uiso   1.00
O928   O     0.83333   0.46178   0.68453   0.00000  Uiso   1.00
Zn929  Zn    0.83333   0.55104   0.75000   0.00000  Uiso   1.00
Zn930  Zn    0.83333   0.44896   0.75000   0.00000  Uiso   1.00
C931   C     0.08670   0.83322   0.74982   0.00000  Uiso   1.00
C932   C     0.31226   0.87397   0.74480   0.00000  Uiso   1.00
C933   C     0.31182   0.79279   0.75484   0.00000  Uiso   1.00
C934   C     0.02152   0.87384   0.74464   0.00000  Uiso   1.00
C935   C     0.18585   0.86783   0.54813   0.00000  Uiso   1.00
C936   C     0.17113   0.79463   0.95329   0.00000  Uiso   1.00
C937   C     0.15584   0.87456   0.95332   0.00000  Uiso   1.00
C938   C     0.14096   0.80151   0.54650   0.00000  Uiso   1.00
C939   C     0.18712   0.86701   0.59416   0.00000  Uiso   1.00
C940   C     0.17226   0.79434   0.90733   0.00000  Uiso   1.00
C941   C     0.15712   0.87433   0.90727   0.00000  Uiso   1.00
C942   C     0.24663   0.83344   0.75006   0.00000  Uiso   1.00
C943   C     0.14241   0.80059   0.59254   0.00000  Uiso   1.00
C944   C     0.16573   0.83312   0.61625   0.00000  Uiso   1.00
C945   C     0.16546   0.83421   0.88419   0.00000  Uiso   1.00
C946   C     0.16290   0.83496   0.52434   0.00000  Uiso   1.00
C947   C     0.16296   0.83471   0.97625   0.00000  Uiso   1.00
C948   C     0.29083   0.83346   0.74996   0.00000  Uiso   1.00
C949   C     0.04251   0.83318   0.74964   0.00000  Uiso   1.00
C950   C     0.16647   0.83311   0.66407   0.00000  Uiso   1.00
C951   C     0.16650   0.83364   0.83610   0.00000  Uiso   1.00
C952   C     0.19158   0.69189   0.77912   0.00000  Uiso   1.00
C953   C     0.14185   0.97474   0.72080   0.00000  Uiso   1.00
C954   C     0.14212   0.68920   0.72027   0.00000  Uiso   1.00
C955   C     0.19160   0.97742   0.77942   0.00000  Uiso   1.00
C956   C     0.02107   0.79265   0.75467   0.00000  Uiso   1.00
H957   H     0.24887   0.70812   0.80330   0.00000  Uiso   1.00
H958   H     0.17720   0.76380   0.97095   0.00000  Uiso   1.00
H959   H     0.14910   0.90559   0.97102   0.00000  Uiso   1.00
H960   H     0.12260   0.77643   0.52819   0.00000  Uiso   1.00
H961   H     0.20513   0.89238   0.61249   0.00000  Uiso   1.00
H962   H     0.17872   0.76304   0.89008   0.00000  Uiso   1.00
H963   H     0.15123   0.90532   0.88987   0.00000  Uiso   1.00
H964   H     0.12457   0.77533   0.60947   0.00000  Uiso   1.00
H965   H     0.03705   0.76101   0.75870   0.00000  Uiso   1.00
H966   H     0.29629   0.90561   0.74070   0.00000  Uiso   1.00
H967   H     0.29551   0.76117   0.75891   0.00000  Uiso   1.00
H968   H     0.21111   0.70804   0.84176   0.00000  Uiso   1.00
H969   H     0.03784   0.90545   0.74054   0.00000  Uiso   1.00
H970   H     0.12417   0.95752   0.65775   0.00000  Uiso   1.00
H971   H     0.08505   0.95911   0.69477   0.00000  Uiso   1.00
H972   H     0.09844   0.73419   0.70035   0.00000  Uiso   1.00
H973   H     0.13785   0.72436   0.66369   0.00000  Uiso   1.00
H974   H     0.19988   0.93959   0.83457   0.00000  Uiso   1.00
H975   H     0.23850   0.93484   0.79592   0.00000  Uiso   1.00
H976   H     0.20325   0.89350   0.53110   0.00000  Uiso   1.00
N977   N     0.16667   0.95240   0.75000   0.00000  Uiso   1.00
N978   N     0.16667   0.71427   0.75000   0.00000  Uiso   1.00
N979   N     0.21810   0.71719   0.80923   0.00000  Uiso   1.00
N980   N     0.11586   0.94939   0.69020   0.00000  Uiso   1.00
N981   N     0.11770   0.71015   0.68635   0.00000  Uiso   1.00
N982   N     0.21799   0.95641   0.81168   0.00000  Uiso   1.00
O983   O     0.10559   0.87154   0.74999   0.00000  Uiso   1.00
O984   O     0.22774   0.79513   0.75000   0.00000  Uiso   1.00
O985   O     0.22774   0.87154   0.75000   0.00000  Uiso   1.00
O986   O     0.10559   0.79513   0.74999   0.00000  Uiso   1.00
O987   O     0.16666   0.87155   0.68453   0.00000  Uiso   1.00
O988   O     0.16667   0.79511   0.81547   0.00000  Uiso   1.00
O989   O     0.16667   0.87155   0.81547   0.00000  Uiso   1.00
O990   O     0.16666   0.79511   0.68453   0.00000  Uiso   1.00
Zn991  Zn    0.16667   0.88437   0.75000   0.00000  Uiso   1.00
Zn992  Zn    0.16667   0.78229   0.75000   0.00000  Uiso   1.00
C993   C     0.42004   0.83322   0.74982   0.00000  Uiso   1.00
C994   C     0.64559   0.87397   0.74480   0.00000  Uiso   1.00
C995   C     0.64515   0.79279   0.75484   0.00000  Uiso   1.00
C996   C     0.35485   0.87384   0.74464   0.00000  Uiso   1.00
C997   C     0.51918   0.86783   0.54813   0.00000  Uiso   1.00
C998   C     0.50446   0.79463   0.95329   0.00000  Uiso   1.00
C999   C     0.48917   0.87456   0.95332   0.00000  Uiso   1.00
C1000  C     0.47429   0.80151   0.54650   0.00000  Uiso   1.00
C1001  C     0.52045   0.86701   0.59416   0.00000  Uiso   1.00
C1002  C     0.50559   0.79434   0.90733   0.00000  Uiso   1.00
C1003  C     0.49045   0.87433   0.90727   0.00000  Uiso   1.00
C1004  C     0.57997   0.83344   0.75006   0.00000  Uiso   1.00
C1005  C     0.47575   0.80059   0.59254   0.00000  Uiso   1.00
C1006  C     0.49906   0.83312   0.61625   0.00000  Uiso   1.00
C1007  C     0.49879   0.83421   0.88419   0.00000  Uiso   1.00
C1008  C     0.49623   0.83496   0.52434   0.00000  Uiso   1.00
C1009  C     0.49629   0.83471   0.97625   0.00000  Uiso   1.00
C1010  C     0.62416   0.83346   0.74996   0.00000  Uiso   1.00
C1011  C     0.37584   0.83318   0.74964   0.00000  Uiso   1.00
C1012  C     0.49981   0.83311   0.66407   0.00000  Uiso   1.00
C1013  C     0.49984   0.83364   0.83610   0.00000  Uiso   1.00
C1014  C     0.52492   0.69189   0.77912   0.00000  Uiso   1.00
C1015  C     0.47518   0.97474   0.72080   0.00000  Uiso   1.00
C1016  C     0.47545   0.68920   0.72027   0.00000  Uiso   1.00
C1017  C     0.52493   0.97742   0.77942   0.00000  Uiso   1.00
C1018  C     0.35441   0.79265   0.75467   0.00000  Uiso   1.00
H1019  H     0.58220   0.70812   0.80330   0.00000  Uiso   1.00
H1020  H     0.51053   0.76380   0.97095   0.00000  Uiso   1.00
H1021  H     0.48244   0.90559   0.97102   0.00000  Uiso   1.00
H1022  H     0.45594   0.77643   0.52819   0.00000  Uiso   1.00
H1023  H     0.53846   0.89238   0.61249   0.00000  Uiso   1.00
H1024  H     0.51205   0.76304   0.89008   0.00000  Uiso   1.00
H1025  H     0.48456   0.90532   0.88987   0.00000  Uiso   1.00
H1026  H     0.45791   0.77533   0.60947   0.00000  Uiso   1.00
H1027  H     0.37038   0.76101   0.75870   0.00000  Uiso   1.00
H1028  H     0.62962   0.90561   0.74070   0.00000  Uiso   1.00
H1029  H     0.62884   0.76117   0.75891   0.00000  Uiso   1.00
H1030  H     0.54445   0.70804   0.84176   0.00000  Uiso   1.00
H1031  H     0.37117   0.90545   0.74054   0.00000  Uiso   1.00
H1032  H     0.45751   0.95752   0.65775   0.00000  Uiso   1.00
H1033  H     0.41838   0.95911   0.69477   0.00000  Uiso   1.00
H1034  H     0.43177   0.73419   0.70035   0.00000  Uiso   1.00
H1035  H     0.47118   0.72436   0.66369   0.00000  Uiso   1.00
H1036  H     0.53321   0.93959   0.83457   0.00000  Uiso   1.00
H1037  H     0.57184   0.93484   0.79592   0.00000  Uiso   1.00
H1038  H     0.53658   0.89350   0.53110   0.00000  Uiso   1.00
N1039  N     0.50000   0.95240   0.75000   0.00000  Uiso   1.00
N1040  N     0.50000   0.71427   0.75000   0.00000  Uiso   1.00
N1041  N     0.55143   0.71719   0.80923   0.00000  Uiso   1.00
N1042  N     0.44920   0.94939   0.69020   0.00000  Uiso   1.00
N1043  N     0.45103   0.71015   0.68635   0.00000  Uiso   1.00
N1044  N     0.55133   0.95641   0.81168   0.00000  Uiso   1.00
O1045  O     0.43892   0.87154   0.74999   0.00000  Uiso   1.00
O1046  O     0.56108   0.79513   0.75000   0.00000  Uiso   1.00
O1047  O     0.56108   0.87154   0.75000   0.00000  Uiso   1.00
O1048  O     0.43892   0.79513   0.74999   0.00000  Uiso   1.00
O1049  O     0.50000   0.87155   0.68453   0.00000  Uiso   1.00
O1050  O     0.50000   0.79511   0.81547   0.00000  Uiso   1.00
O1051  O     0.50000   0.87155   0.81547   0.00000  Uiso   1.00
O1052  O     0.50000   0.79511   0.68453   0.00000  Uiso   1.00
Zn1053 Zn    0.50000   0.88437   0.75000   0.00000  Uiso   1.00
Zn1054 Zn    0.50000   0.78229   0.75000   0.00000  Uiso   1.00
C1055  C     0.75337   0.83322   0.74982   0.00000  Uiso   1.00
C1056  C     0.97893   0.87397   0.74480   0.00000  Uiso   1.00
C1057  C     0.97848   0.79279   0.75484   0.00000  Uiso   1.00
C1058  C     0.68819   0.87384   0.74464   0.00000  Uiso   1.00
C1059  C     0.85251   0.86783   0.54813   0.00000  Uiso   1.00
C1060  C     0.83780   0.79463   0.95329   0.00000  Uiso   1.00
C1061  C     0.82251   0.87456   0.95332   0.00000  Uiso   1.00
C1062  C     0.80762   0.80151   0.54650   0.00000  Uiso   1.00
C1063  C     0.85378   0.86701   0.59416   0.00000  Uiso   1.00
C1064  C     0.83892   0.79434   0.90733   0.00000  Uiso   1.00
C1065  C     0.82379   0.87433   0.90727   0.00000  Uiso   1.00
C1066  C     0.91330   0.83344   0.75006   0.00000  Uiso   1.00
C1067  C     0.80908   0.80059   0.59254   0.00000  Uiso   1.00
C1068  C     0.83239   0.83312   0.61625   0.00000  Uiso   1.00
C1069  C     0.83212   0.83421   0.88419   0.00000  Uiso   1.00
C1070  C     0.82956   0.83496   0.52434   0.00000  Uiso   1.00
C1071  C     0.82962   0.83471   0.97625   0.00000  Uiso   1.00
C1072  C     0.95750   0.83346   0.74996   0.00000  Uiso   1.00
C1073  C     0.70917   0.83318   0.74964   0.00000  Uiso   1.00
C1074  C     0.83314   0.83311   0.66407   0.00000  Uiso   1.00
C1075  C     0.83317   0.83364   0.83610   0.00000  Uiso   1.00
C1076  C     0.85825   0.69189   0.77912   0.00000  Uiso   1.00
C1077  C     0.80851   0.97474   0.72080   0.00000  Uiso   1.00
C1078  C     0.80879   0.68920   0.72027   0.00000  Uiso   1.00
C1079  C     0.85827   0.97742   0.77942   0.00000  Uiso   1.00
C1080  C     0.68774   0.79265   0.75467   0.00000  Uiso   1.00
H1081  H     0.91553   0.70812   0.80330   0.00000  Uiso   1.00
H1082  H     0.84386   0.76380   0.97095   0.00000  Uiso   1.00
H1083  H     0.81577   0.90559   0.97102   0.00000  Uiso   1.00
H1084  H     0.78927   0.77643   0.52819   0.00000  Uiso   1.00
H1085  H     0.87179   0.89238   0.61249   0.00000  Uiso   1.00
H1086  H     0.84538   0.76304   0.89008   0.00000  Uiso   1.00
H1087  H     0.81789   0.90532   0.88987   0.00000  Uiso   1.00
H1088  H     0.79124   0.77533   0.60947   0.00000  Uiso   1.00
H1089  H     0.70371   0.76101   0.75870   0.00000  Uiso   1.00
H1090  H     0.96295   0.90561   0.74070   0.00000  Uiso   1.00
H1091  H     0.96218   0.76117   0.75891   0.00000  Uiso   1.00
H1092  H     0.87778   0.70804   0.84176   0.00000  Uiso   1.00
H1093  H     0.70450   0.90545   0.74054   0.00000  Uiso   1.00
H1094  H     0.79084   0.95752   0.65775   0.00000  Uiso   1.00
H1095  H     0.75171   0.95911   0.69477   0.00000  Uiso   1.00
H1096  H     0.76510   0.73419   0.70035   0.00000  Uiso   1.00
H1097  H     0.80452   0.72436   0.66369   0.00000  Uiso   1.00
H1098  H     0.86654   0.93959   0.83457   0.00000  Uiso   1.00
H1099  H     0.90517   0.93484   0.79592   0.00000  Uiso   1.00
H1100  H     0.86991   0.89350   0.53110   0.00000  Uiso   1.00
N1101  N     0.83333   0.95240   0.75000   0.00000  Uiso   1.00
N1102  N     0.83333   0.71427   0.75000   0.00000  Uiso   1.00
N1103  N     0.88477   0.71719   0.80923   0.00000  Uiso   1.00
N1104  N     0.78253   0.94939   0.69020   0.00000  Uiso   1.00
N1105  N     0.78437   0.71015   0.68635   0.00000  Uiso   1.00
N1106  N     0.88466   0.95641   0.81168   0.00000  Uiso   1.00
O1107  O     0.77226   0.87154   0.74999   0.00000  Uiso   1.00
O1108  O     0.89441   0.79513   0.75000   0.00000  Uiso   1.00
O1109  O     0.89441   0.87154   0.75000   0.00000  Uiso   1.00
O1110  O     0.77226   0.79513   0.74999   0.00000  Uiso   1.00
O1111  O     0.83333   0.87155   0.68453   0.00000  Uiso   1.00
O1112  O     0.83334   0.79511   0.81547   0.00000  Uiso   1.00
O1113  O     0.83334   0.87155   0.81547   0.00000  Uiso   1.00
O1114  O     0.83333   0.79511   0.68453   0.00000  Uiso   1.00
Zn1115 Zn    0.83333   0.88437   0.75000   0.00000  Uiso   1.00
Zn1116 Zn    0.83333   0.78229   0.75000   0.00000  Uiso   1.00
loop_
_geom_bond_atom_site_label_1
_geom_bond_atom_site_label_2
_geom_bond_distance
_geom_bond_site_symmetry_2
_ccdc_geom_bond_type
C1     O56     1.290   .     A
C1     O53     1.287   .     A
C1     C19     1.421   .     S
C2     C18     1.396   .     A
C2     H36     1.083   .     S
C2     C66     1.369   .     S
C3     H37     1.083   .     S
C3     C18     1.399   .     A
C3     C88     1.369   .     S
C4     H39     1.083   .     S
C4     C19     1.399   .     A
C4     C126    1.369   1_455 S
C5     H46     1.084   .     S
C5     C9      1.381   .     A
C5     C16     1.398   .     A
C6     C10     1.379   .     A
C6     C17     1.397   .     A
C6     H28     1.084   .     S
C7     H29     1.084   .     S
C7     C11     1.382   .     A
C7     C17     1.398   .     A
C8     C13     1.381   .     A
C8     H30     1.084   .     S
C8     C16     1.399   .     A
C9     C14     1.398   .     A
C9     H31     1.084   .     S
C10    H32     1.082   .     S
C10    C15     1.400   .     A
C11    C15     1.401   .     A
C11    H33     1.083   .     S
C12    O54     1.287   .     A
C12    O55     1.291   .     A
C12    C18     1.421   .     S
C13    C14     1.396   .     A
C13    H34     1.081   .     S
C14    C20     1.433   .     S
C15    C21     1.443   .     S
C16    C575    1.442   1_554 S
C17    C574    1.442   .     S
C19    C26     1.396   .     A
C20    O60     1.295   .     A
C20    O57     1.289   .     A
C21    O58     1.294   .     A
C21    O59     1.295   .     A
C22    N49     1.431   .     S
C22    N48     1.359   .     A
C22    C397    1.423   1_545 S
C23    N47     1.358   .     A
C23    N50     1.431   .     S
C23    C210    1.422   .     S
C24    N51     1.427   .     S
C24    N48     1.384   .     A
C24    C395    1.422   1_545 S
C25    N47     1.385   .     A
C25    N52     1.429   .     S
C25    C208    1.423   .     S
C26    H35     1.084   .     S
C26    C127    1.369   1_455 S
H27    N49     1.045   .     S
H38    N49     1.045   .     S
H40    N50     1.046   .     S
H41    N50     1.045   .     S
H42    N51     1.039   .     S
H43    N51     1.040   .     S
H44    N52     1.040   .     S
H45    N52     1.039   .     S
N47    Zn61    2.024   .     S
N48    Zn62    2.024   .     S
O53    Zn61    1.997   .     S
O54    Zn62    1.997   .     S
O55    Zn61    2.003   .     S
O56    Zn62    2.003   .     S
O57    Zn61    1.994   .     S
O58    Zn62    1.994   .     S
O59    Zn61    2.006   .     S
O60    Zn62    2.006   .     S
C63    O118    1.290   .     A
C63    O115    1.287   .     A
C63    C81     1.421   .     S
C64    C80     1.396   .     A
C64    H98     1.083   .     S
C64    C128    1.369   .     S
C65    H99     1.083   .     S
C65    C80     1.399   .     A
C65    C150    1.369   .     S
C66    H101    1.083   .     S
C66    C81     1.399   .     A
C67    H108    1.084   .     S
C67    C71     1.381   .     A
C67    C78     1.398   .     A
C68    C72     1.379   .     A
C68    C79     1.397   .     A
C68    H90     1.084   .     S
C69    H91     1.084   .     S
C69    C73     1.382   .     A
C69    C79     1.398   .     A
C70    C75     1.381   .     A
C70    H92     1.084   .     S
C70    C78     1.399   .     A
C71    C76     1.398   .     A
C71    H93     1.084   .     S
C72    H94     1.082   .     S
C72    C77     1.400   .     A
C73    C77     1.401   .     A
C73    H95     1.083   .     S
C74    O116    1.287   .     A
C74    O117    1.291   .     A
C74    C80     1.421   .     S
C75    C76     1.396   .     A
C75    H96     1.081   .     S
C76    C82     1.433   .     S
C77    C83     1.443   .     S
C78    C637    1.442   1_554 S
C79    C636    1.442   .     S
C81    C88     1.396   .     A
C82    O122    1.295   .     A
C82    O119    1.289   .     A
C83    O120    1.294   .     A
C83    O121    1.295   .     A
C84    N111    1.431   .     S
C84    N110    1.359   .     A
C84    C459    1.423   1_545 S
C85    N109    1.358   .     A
C85    N112    1.431   .     S
C85    C272    1.422   .     S
C86    N113    1.427   .     S
C86    N110    1.384   .     A
C86    C457    1.422   1_545 S
C87    N109    1.385   .     A
C87    N114    1.429   .     S
C87    C270    1.423   .     S
C88    H97     1.084   .     S
H89    N111    1.045   .     S
H100   N111    1.045   .     S
H102   N112    1.046   .     S
H103   N112    1.045   .     S
H104   N113    1.039   .     S
H105   N113    1.040   .     S
H106   N114    1.040   .     S
H107   N114    1.039   .     S
N109   Zn123   2.024   .     S
N110   Zn124   2.024   .     S
O115   Zn123   1.997   .     S
O116   Zn124   1.997   .     S
O117   Zn123   2.003   .     S
O118   Zn124   2.003   .     S
O119   Zn123   1.994   .     S
O120   Zn124   1.994   .     S
O121   Zn123   2.006   .     S
O122   Zn124   2.006   .     S
C125   O180    1.290   .     A
C125   O177    1.287   .     A
C125   C143    1.421   .     S
C126   C142    1.396   .     A
C126   H160    1.083   .     S
C126   C4      1.369   1_655 S
C127   H161    1.083   .     S
C127   C142    1.399   .     A
C127   C26     1.369   1_655 S
C128   H163    1.083   .     S
C128   C143    1.399   .     A
C129   H170    1.084   .     S
C129   C133    1.381   .     A
C129   C140    1.398   .     A
C130   C134    1.379   .     A
C130   C141    1.397   .     A
C130   H152    1.084   .     S
C131   H153    1.084   .     S
C131   C135    1.382   .     A
C131   C141    1.398   .     A
C132   C137    1.381   .     A
C132   H154    1.084   .     S
C132   C140    1.399   .     A
C133   C138    1.398   .     A
C133   H155    1.084   .     S
C134   H156    1.082   .     S
C134   C139    1.400   .     A
C135   C139    1.401   .     A
C135   H157    1.083   .     S
C136   O178    1.287   .     A
C136   O179    1.291   .     A
C136   C142    1.421   .     S
C137   C138    1.396   .     A
C137   H158    1.081   .     S
C138   C144    1.433   .     S
C139   C145    1.443   .     S
C140   C699    1.442   1_554 S
C141   C698    1.442   .     S
C143   C150    1.396   .     A
C144   O184    1.295   .     A
C144   O181    1.289   .     A
C145   O182    1.294   .     A
C145   O183    1.295   .     A
C146   N173    1.431   .     S
C146   N172    1.359   .     A
C146   C521    1.423   1_545 S
C147   N171    1.358   .     A
C147   N174    1.431   .     S
C147   C334    1.422   .     S
C148   N175    1.427   .     S
C148   N172    1.384   .     A
C148   C519    1.422   1_545 S
C149   N171    1.385   .     A
C149   N176    1.429   .     S
C149   C332    1.423   .     S
C150   H159    1.084   .     S
H151   N173    1.045   .     S
H162   N173    1.045   .     S
H164   N174    1.046   .     S
H165   N174    1.045   .     S
H166   N175    1.039   .     S
H167   N175    1.040   .     S
H168   N176    1.040   .     S
H169   N176    1.039   .     S
N171   Zn185   2.024   .     S
N172   Zn186   2.024   .     S
O177   Zn185   1.997   .     S
O178   Zn186   1.997   .     S
O179   Zn185   2.003   .     S
O180   Zn186   2.003   .     S
O181   Zn185   1.994   .     S
O182   Zn186   1.994   .     S
O183   Zn185   2.006   .     S
O184   Zn186   2.006   .     S
C187   O242    1.290   .     A
C187   O239    1.287   .     A
C187   C205    1.421   .     S
C188   C204    1.396   .     A
C188   H222    1.083   .     S
C188   C252    1.369   .     S
C189   H223    1.083   .     S
C189   C204    1.399   .     A
C189   C274    1.369   .     S
C190   H225    1.083   .     S
C190   C205    1.399   .     A
C190   C312    1.369   1_455 S
C191   H232    1.084   .     S
C191   C195    1.381   .     A
C191   C202    1.398   .     A
C192   C196    1.379   .     A
C192   C203    1.397   .     A
C192   H214    1.084   .     S
C193   H215    1.084   .     S
C193   C197    1.382   .     A
C193   C203    1.398   .     A
C194   C199    1.381   .     A
C194   H216    1.084   .     S
C194   C202    1.399   .     A
C195   C200    1.398   .     A
C195   H217    1.084   .     S
C196   H218    1.082   .     S
C196   C201    1.400   .     A
C197   C201    1.401   .     A
C197   H219    1.083   .     S
C198   O240    1.287   .     A
C198   O241    1.291   .     A
C198   C204    1.421   .     S
C199   C200    1.396   .     A
C199   H220    1.081   .     S
C200   C206    1.433   .     S
C201   C207    1.443   .     S
C202   C761    1.442   1_554 S
C203   C760    1.442   .     S
C205   C212    1.396   .     A
C206   O246    1.295   .     A
C206   O243    1.289   .     A
C207   O244    1.294   .     A
C207   O245    1.295   .     A
C208   N235    1.431   .     S
C208   N234    1.359   .     A
C209   N233    1.358   .     A
C209   N236    1.431   .     S
C209   C396    1.422   .     S
C210   N237    1.427   .     S
C210   N234    1.384   .     A
C211   N233    1.385   .     A
C211   N238    1.429   .     S
C211   C394    1.423   .     S
C212   H221    1.084   .     S
C212   C313    1.369   1_455 S
H213   N235    1.045   .     S
H224   N235    1.045   .     S
H226   N236    1.046   .     S
H227   N236    1.045   .     S
H228   N237    1.039   .     S
H229   N237    1.040   .     S
H230   N238    1.040   .     S
H231   N238    1.039   .     S
N233   Zn247   2.024   .     S
N234   Zn248   2.024   .     S
O239   Zn247   1.997   .     S
O240   Zn248   1.997   .     S
O241   Zn247   2.003   .     S
O242   Zn248   2.003   .     S
O243   Zn247   1.994   .     S
O244   Zn248   1.994   .     S
O245   Zn247   2.006   .     S
O246   Zn248   2.006   .     S
C249   O304    1.290   .     A
C249   O301    1.287   .     A
C249   C267    1.421   .     S
C250   C266    1.396   .     A
C250   H284    1.083   .     S
C250   C314    1.369   .     S
C251   H285    1.083   .     S
C251   C266    1.399   .     A
C251   C336    1.369   .     S
C252   H287    1.083   .     S
C252   C267    1.399   .     A
C253   H294    1.084   .     S
C253   C257    1.381   .     A
C253   C264    1.398   .     A
C254   C258    1.379   .     A
C254   C265    1.397   .     A
C254   H276    1.084   .     S
C255   H277    1.084   .     S
C255   C259    1.382   .     A
C255   C265    1.398   .     A
C256   C261    1.381   .     A
C256   H278    1.084   .     S
C256   C264    1.399   .     A
C257   C262    1.398   .     A
C257   H279    1.084   .     S
C258   H280    1.082   .     S
C258   C263    1.400   .     A
C259   C263    1.401   .     A
C259   H281    1.083   .     S
C260   O302    1.287   .     A
C260   O303    1.291   .     A
C260   C266    1.421   .     S
C261   C262    1.396   .     A
C261   H282    1.081   .     S
C262   C268    1.433   .     S
C263   C269    1.443   .     S
C264   C823    1.442   1_554 S
C265   C822    1.442   .     S
C267   C274    1.396   .     A
C268   O308    1.295   .     A
C268   O305    1.289   .     A
C269   O306    1.294   .     A
C269   O307    1.295   .     A
C270   N297    1.431   .     S
C270   N296    1.359   .     A
C271   N295    1.358   .     A
C271   N298    1.431   .     S
C271   C458    1.422   .     S
C272   N299    1.427   .     S
C272   N296    1.384   .     A
C273   N295    1.385   .     A
C273   N300    1.429   .     S
C273   C456    1.423   .     S
C274   H283    1.084   .     S
H275   N297    1.045   .     S
H286   N297    1.045   .     S
H288   N298    1.046   .     S
H289   N298    1.045   .     S
H290   N299    1.039   .     S
H291   N299    1.040   .     S
H292   N300    1.040   .     S
H293   N300    1.039   .     S
N295   Zn309   2.024   .     S
N296   Zn310   2.024   .     S
O301   Zn309   1.997   .     S
O302   Zn310   1.997   .     S
O303   Zn309   2.003   .     S
O304   Zn310   2.003   .     S
O305   Zn309   1.994   .     S
O306   Zn310   1.994   .     S
O307   Zn309   2.006   .     S
O308   Zn310   2.006   .     S
C311   O366    1.290   .     A
C311   O363    1.287   .     A
C311   C329    1.421   .     S
C312   C328    1.396   .     A
C312   H346    1.083   .     S
C312   C190    1.369   1_655 S
C313   H347    1.083   .     S
C313   C328    1.399   .     A
C313   C212    1.369   1_655 S
C314   H349    1.083   .     S
C314   C329    1.399   .     A
C315   H356    1.084   .     S
C315   C319    1.381   .     A
C315   C326    1.398   .     A
C316   C320    1.379   .     A
C316   C327    1.397   .     A
C316   H338    1.084   .     S
C317   H339    1.084   .     S
C317   C321    1.382   .     A
C317   C327    1.398   .     A
C318   C323    1.381   .     A
C318   H340    1.084   .     S
C318   C326    1.399   .     A
C319   C324    1.398   .     A
C319   H341    1.084   .     S
C320   H342    1.082   .     S
C320   C325    1.400   .     A
C321   C325    1.401   .     A
C321   H343    1.083   .     S
C322   O364    1.287   .     A
C322   O365    1.291   .     A
C322   C328    1.421   .     S
C323   C324    1.396   .     A
C323   H344    1.081   .     S
C324   C330    1.433   .     S
C325   C331    1.443   .     S
C326   C885    1.442   1_554 S
C327   C884    1.442   .     S
C329   C336    1.396   .     A
C330   O370    1.295   .     A
C330   O367    1.289   .     A
C331   O368    1.294   .     A
C331   O369    1.295   .     A
C332   N359    1.431   .     S
C332   N358    1.359   .     A
C333   N357    1.358   .     A
C333   N360    1.431   .     S
C333   C520    1.422   .     S
C334   N361    1.427   .     S
C334   N358    1.384   .     A
C335   N357    1.385   .     A
C335   N362    1.429   .     S
C335   C518    1.423   .     S
C336   H345    1.084   .     S
H337   N359    1.045   .     S
H348   N359    1.045   .     S
H350   N360    1.046   .     S
H351   N360    1.045   .     S
H352   N361    1.039   .     S
H353   N361    1.040   .     S
H354   N362    1.040   .     S
H355   N362    1.039   .     S
N357   Zn371   2.024   .     S
N358   Zn372   2.024   .     S
O363   Zn371   1.997   .     S
O364   Zn372   1.997   .     S
O365   Zn371   2.003   .     S
O366   Zn372   2.003   .     S
O367   Zn371   1.994   .     S
O368   Zn372   1.994   .     S
O369   Zn371   2.006   .     S
O370   Zn372   2.006   .     S
C373   O428    1.290   .     A
C373   O425    1.287   .     A
C373   C391    1.421   .     S
C374   C390    1.396   .     A
C374   H408    1.083   .     S
C374   C438    1.369   .     S
C375   H409    1.083   .     S
C375   C390    1.399   .     A
C375   C460    1.369   .     S
C376   H411    1.083   .     S
C376   C391    1.399   .     A
C376   C498    1.369   1_455 S
C377   H418    1.084   .     S
C377   C381    1.381   .     A
C377   C388    1.398   .     A
C378   C382    1.379   .     A
C378   C389    1.397   .     A
C378   H400    1.084   .     S
C379   H401    1.084   .     S
C379   C383    1.382   .     A
C379   C389    1.398   .     A
C380   C385    1.381   .     A
C380   H402    1.084   .     S
C380   C388    1.399   .     A
C381   C386    1.398   .     A
C381   H403    1.084   .     S
C382   H404    1.082   .     S
C382   C387    1.400   .     A
C383   C387    1.401   .     A
C383   H405    1.083   .     S
C384   O426    1.287   .     A
C384   O427    1.291   .     A
C384   C390    1.421   .     S
C385   C386    1.396   .     A
C385   H406    1.081   .     S
C386   C392    1.433   .     S
C387   C393    1.443   .     S
C388   C947    1.442   1_554 S
C389   C946    1.442   .     S
C391   C398    1.396   .     A
C392   O432    1.295   .     A
C392   O429    1.289   .     A
C393   O430    1.294   .     A
C393   O431    1.295   .     A
C394   N421    1.431   .     S
C394   N420    1.359   .     A
C395   N419    1.358   .     A
C395   N422    1.431   .     S
C395   C24     1.422   1_565 S
C396   N423    1.427   .     S
C396   N420    1.384   .     A
C397   N419    1.385   .     A
C397   N424    1.429   .     S
C397   C22     1.423   1_565 S
C398   H407    1.084   .     S
C398   C499    1.369   1_455 S
H399   N421    1.045   .     S
H410   N421    1.045   .     S
H412   N422    1.046   .     S
H413   N422    1.045   .     S
H414   N423    1.039   .     S
H415   N423    1.040   .     S
H416   N424    1.040   .     S
H417   N424    1.039   .     S
N419   Zn433   2.024   .     S
N420   Zn434   2.024   .     S
O425   Zn433   1.997   .     S
O426   Zn434   1.997   .     S
O427   Zn433   2.003   .     S
O428   Zn434   2.003   .     S
O429   Zn433   1.994   .     S
O430   Zn434   1.994   .     S
O431   Zn433   2.006   .     S
O432   Zn434   2.006   .     S
C435   O490    1.290   .     A
C435   O487    1.287   .     A
C435   C453    1.421   .     S
C436   C452    1.396   .     A
C436   H470    1.083   .     S
C436   C500    1.369   .     S
C437   H471    1.083   .     S
C437   C452    1.399   .     A
C437   C522    1.369   .     S
C438   H473    1.083   .     S
C438   C453    1.399   .     A
C439   H480    1.084   .     S
C439   C443    1.381   .     A
C439   C450    1.398   .     A
C440   C444    1.379   .     A
C440   C451    1.397   .     A
C440   H462    1.084   .     S
C441   H463    1.084   .     S
C441   C445    1.382   .     A
C441   C451    1.398   .     A
C442   C447    1.381   .     A
C442   H464    1.084   .     S
C442   C450    1.399   .     A
C443   C448    1.398   .     A
C443   H465    1.084   .     S
C444   H466    1.082   .     S
C444   C449    1.400   .     A
C445   C449    1.401   .     A
C445   H467    1.083   .     S
C446   O488    1.287   .     A
C446   O489    1.291   .     A
C446   C452    1.421   .     S
C447   C448    1.396   .     A
C447   H468    1.081   .     S
C448   C454    1.433   .     S
C449   C455    1.443   .     S
C450   C1009   1.442   1_554 S
C451   C1008   1.442   .     S
C453   C460    1.396   .     A
C454   O494    1.295   .     A
C454   O491    1.289   .     A
C455   O492    1.294   .     A
C455   O493    1.295   .     A
C456   N483    1.431   .     S
C456   N482    1.359   .     A
C457   N481    1.358   .     A
C457   N484    1.431   .     S
C457   C86     1.422   1_565 S
C458   N485    1.427   .     S
C458   N482    1.384   .     A
C459   N481    1.385   .     A
C459   N486    1.429   .     S
C459   C84     1.423   1_565 S
C460   H469    1.084   .     S
H461   N483    1.045   .     S
H472   N483    1.045   .     S
H474   N484    1.046   .     S
H475   N484    1.045   .     S
H476   N485    1.039   .     S
H477   N485    1.040   .     S
H478   N486    1.040   .     S
H479   N486    1.039   .     S
N481   Zn495   2.024   .     S
N482   Zn496   2.024   .     S
O487   Zn495   1.997   .     S
O488   Zn496   1.997   .     S
O489   Zn495   2.003   .     S
O490   Zn496   2.003   .     S
O491   Zn495   1.994   .     S
O492   Zn496   1.994   .     S
O493   Zn495   2.006   .     S
O494   Zn496   2.006   .     S
C497   O552    1.290   .     A
C497   O549    1.287   .     A
C497   C515    1.421   .     S
C498   C514    1.396   .     A
C498   H532    1.083   .     S
C498   C376    1.369   1_655 S
C499   H533    1.083   .     S
C499   C514    1.399   .     A
C499   C398    1.369   1_655 S
C500   H535    1.083   .     S
C500   C515    1.399   .     A
C501   H542    1.084   .     S
C501   C505    1.381   .     A
C501   C512    1.398   .     A
C502   C506    1.379   .     A
C502   C513    1.397   .     A
C502   H524    1.084   .     S
C503   H525    1.084   .     S
C503   C507    1.382   .     A
C503   C513    1.398   .     A
C504   C509    1.381   .     A
C504   H526    1.084   .     S
C504   C512    1.399   .     A
C505   C510    1.398   .     A
C505   H527    1.084   .     S
C506   H528    1.082   .     S
C506   C511    1.400   .     A
C507   C511    1.401   .     A
C507   H529    1.083   .     S
C508   O550    1.287   .     A
C508   O551    1.291   .     A
C508   C514    1.421   .     S
C509   C510    1.396   .     A
C509   H530    1.081   .     S
C510   C516    1.433   .     S
C511   C517    1.443   .     S
C512   C1071   1.442   1_554 S
C513   C1070   1.442   .     S
C515   C522    1.396   .     A
C516   O556    1.295   .     A
C516   O553    1.289   .     A
C517   O554    1.294   .     A
C517   O555    1.295   .     A
C518   N545    1.431   .     S
C518   N544    1.359   .     A
C519   N543    1.358   .     A
C519   N546    1.431   .     S
C519   C148    1.422   1_565 S
C520   N547    1.427   .     S
C520   N544    1.384   .     A
C521   N543    1.385   .     A
C521   N548    1.429   .     S
C521   C146    1.423   1_565 S
C522   H531    1.084   .     S
H523   N545    1.045   .     S
H534   N545    1.045   .     S
H536   N546    1.046   .     S
H537   N546    1.045   .     S
H538   N547    1.039   .     S
H539   N547    1.040   .     S
H540   N548    1.040   .     S
H541   N548    1.039   .     S
N543   Zn557   2.024   .     S
N544   Zn558   2.024   .     S
O549   Zn557   1.997   .     S
O550   Zn558   1.997   .     S
O551   Zn557   2.003   .     S
O552   Zn558   2.003   .     S
O553   Zn557   1.994   .     S
O554   Zn558   1.994   .     S
O555   Zn557   2.006   .     S
O556   Zn558   2.006   .     S
C559   O614    1.290   .     A
C559   O611    1.287   .     A
C559   C577    1.421   .     S
C560   C576    1.396   .     A
C560   H594    1.083   .     S
C560   C624    1.369   .     S
C561   H595    1.083   .     S
C561   C576    1.399   .     A
C561   C646    1.369   .     S
C562   H597    1.083   .     S
C562   C577    1.399   .     A
C562   C684    1.369   1_455 S
C563   H604    1.084   .     S
C563   C567    1.381   .     A
C563   C574    1.398   .     A
C564   C568    1.379   .     A
C564   C575    1.397   .     A
C564   H586    1.084   .     S
C565   H587    1.084   .     S
C565   C569    1.382   .     A
C565   C575    1.398   .     A
C566   C571    1.381   .     A
C566   H588    1.084   .     S
C566   C574    1.399   .     A
C567   C572    1.398   .     A
C567   H589    1.084   .     S
C568   H590    1.082   .     S
C568   C573    1.400   .     A
C569   C573    1.401   .     A
C569   H591    1.083   .     S
C570   O612    1.287   .     A
C570   O613    1.291   .     A
C570   C576    1.421   .     S
C571   C572    1.396   .     A
C571   H592    1.081   .     S
C572   C578    1.433   .     S
C573   C579    1.443   .     S
C575   C16     1.442   1_556 S
C577   C584    1.396   .     A
C578   O618    1.295   .     A
C578   O615    1.289   .     A
C579   O616    1.294   .     A
C579   O617    1.295   .     A
C580   N607    1.431   .     S
C580   N606    1.359   .     A
C580   C955    1.423   1_545 S
C581   N605    1.358   .     A
C581   N608    1.431   .     S
C581   C768    1.422   .     S
C582   N609    1.427   .     S
C582   N606    1.384   .     A
C582   C953    1.422   1_545 S
C583   N605    1.385   .     A
C583   N610    1.429   .     S
C583   C766    1.423   .     S
C584   H593    1.084   .     S
C584   C685    1.369   1_455 S
H585   N607    1.045   .     S
H596   N607    1.045   .     S
H598   N608    1.046   .     S
H599   N608    1.045   .     S
H600   N609    1.039   .     S
H601   N609    1.040   .     S
H602   N610    1.040   .     S
H603   N610    1.039   .     S
N605   Zn619   2.024   .     S
N606   Zn620   2.024   .     S
O611   Zn619   1.997   .     S
O612   Zn620   1.997   .     S
O613   Zn619   2.003   .     S
O614   Zn620   2.003   .     S
O615   Zn619   1.994   .     S
O616   Zn620   1.994   .     S
O617   Zn619   2.006   .     S
O618   Zn620   2.006   .     S
C621   O676    1.290   .     A
C621   O673    1.287   .     A
C621   C639    1.421   .     S
C622   C638    1.396   .     A
C622   H656    1.083   .     S
C622   C686    1.369   .     S
C623   H657    1.083   .     S
C623   C638    1.399   .     A
C623   C708    1.369   .     S
C624   H659    1.083   .     S
C624   C639    1.399   .     A
C625   H666    1.084   .     S
C625   C629    1.381   .     A
C625   C636    1.398   .     A
C626   C630    1.379   .     A
C626   C637    1.397   .     A
C626   H648    1.084   .     S
C627   H649    1.084   .     S
C627   C631    1.382   .     A
C627   C637    1.398   .     A
C628   C633    1.381   .     A
C628   H650    1.084   .     S
C628   C636    1.399   .     A
C629   C634    1.398   .     A
C629   H651    1.084   .     S
C630   H652    1.082   .     S
C630   C635    1.400   .     A
C631   C635    1.401   .     A
C631   H653    1.083   .     S
C632   O674    1.287   .     A
C632   O675    1.291   .     A
C632   C638    1.421   .     S
C633   C634    1.396   .     A
C633   H654    1.081   .     S
C634   C640    1.433   .     S
C635   C641    1.443   .     S
C637   C78     1.442   1_556 S
C639   C646    1.396   .     A
C640   O680    1.295   .     A
C640   O677    1.289   .     A
C641   O678    1.294   .     A
C641   O679    1.295   .     A
C642   N669    1.431   .     S
C642   N668    1.359   .     A
C642   C1017   1.423   1_545 S
C643   N667    1.358   .     A
C643   N670    1.431   .     S
C643   C830    1.422   .     S
C644   N671    1.427   .     S
C644   N668    1.384   .     A
C644   C1015   1.422   1_545 S
C645   N667    1.385   .     A
C645   N672    1.429   .     S
C645   C828    1.423   .     S
C646   H655    1.084   .     S
H647   N669    1.045   .     S
H658   N669    1.045   .     S
H660   N670    1.046   .     S
H661   N670    1.045   .     S
H662   N671    1.039   .     S
H663   N671    1.040   .     S
H664   N672    1.040   .     S
H665   N672    1.039   .     S
N667   Zn681   2.024   .     S
N668   Zn682   2.024   .     S
O673   Zn681   1.997   .     S
O674   Zn682   1.997   .     S
O675   Zn681   2.003   .     S
O676   Zn682   2.003   .     S
O677   Zn681   1.994   .     S
O678   Zn682   1.994   .     S
O679   Zn681   2.006   .     S
O680   Zn682   2.006   .     S
C683   O738    1.290   .     A
C683   O735    1.287   .     A
C683   C701    1.421   .     S
C684   C700    1.396   .     A
C684   H718    1.083   .     S
C684   C562    1.369   1_655 S
C685   H719    1.083   .     S
C685   C700    1.399   .     A
C685   C584    1.369   1_655 S
C686   H721    1.083   .     S
C686   C701    1.399   .     A
C687   H728    1.084   .     S
C687   C691    1.381   .     A
C687   C698    1.398   .     A
C688   C692    1.379   .     A
C688   C699    1.397   .     A
C688   H710    1.084   .     S
C689   H711    1.084   .     S
C689   C693    1.382   .     A
C689   C699    1.398   .     A
C690   C695    1.381   .     A
C690   H712    1.084   .     S
C690   C698    1.399   .     A
C691   C696    1.398   .     A
C691   H713    1.084   .     S
C692   H714    1.082   .     S
C692   C697    1.400   .     A
C693   C697    1.401   .     A
C693   H715    1.083   .     S
C694   O736    1.287   .     A
C694   O737    1.291   .     A
C694   C700    1.421   .     S
C695   C696    1.396   .     A
C695   H716    1.081   .     S
C696   C702    1.433   .     S
C697   C703    1.443   .     S
C699   C140    1.442   1_556 S
C701   C708    1.396   .     A
C702   O742    1.295   .     A
C702   O739    1.289   .     A
C703   O740    1.294   .     A
C703   O741    1.295   .     A
C704   N731    1.431   .     S
C704   N730    1.359   .     A
C704   C1079   1.423   1_545 S
C705   N729    1.358   .     A
C705   N732    1.431   .     S
C705   C892    1.422   .     S
C706   N733    1.427   .     S
C706   N730    1.384   .     A
C706   C1077   1.422   1_545 S
C707   N729    1.385   .     A
C707   N734    1.429   .     S
C707   C890    1.423   .     S
C708   H717    1.084   .     S
H709   N731    1.045   .     S
H720   N731    1.045   .     S
H722   N732    1.046   .     S
H723   N732    1.045   .     S
H724   N733    1.039   .     S
H725   N733    1.040   .     S
H726   N734    1.040   .     S
H727   N734    1.039   .     S
N729   Zn743   2.024   .     S
N730   Zn744   2.024   .     S
O735   Zn743   1.997   .     S
O736   Zn744   1.997   .     S
O737   Zn743   2.003   .     S
O738   Zn744   2.003   .     S
O739   Zn743   1.994   .     S
O740   Zn744   1.994   .     S
O741   Zn743   2.006   .     S
O742   Zn744   2.006   .     S
C745   O800    1.290   .     A
C745   O797    1.287   .     A
C745   C763    1.421   .     S
C746   C762    1.396   .     A
C746   H780    1.083   .     S
C746   C810    1.369   .     S
C747   H781    1.083   .     S
C747   C762    1.399   .     A
C747   C832    1.369   .     S
C748   H783    1.083   .     S
C748   C763    1.399   .     A
C748   C870    1.369   1_455 S
C749   H790    1.084   .     S
C749   C753    1.381   .     A
C749   C760    1.398   .     A
C750   C754    1.379   .     A
C750   C761    1.397   .     A
C750   H772    1.084   .     S
C751   H773    1.084   .     S
C751   C755    1.382   .     A
C751   C761    1.398   .     A
C752   C757    1.381   .     A
C752   H774    1.084   .     S
C752   C760    1.399   .     A
C753   C758    1.398   .     A
C753   H775    1.084   .     S
C754   H776    1.082   .     S
C754   C759    1.400   .     A
C755   C759    1.401   .     A
C755   H777    1.083   .     S
C756   O798    1.287   .     A
C756   O799    1.291   .     A
C756   C762    1.421   .     S
C757   C758    1.396   .     A
C757   H778    1.081   .     S
C758   C764    1.433   .     S
C759   C765    1.443   .     S
C761   C202    1.442   1_556 S
C763   C770    1.396   .     A
C764   O804    1.295   .     A
C764   O801    1.289   .     A
C765   O802    1.294   .     A
C765   O803    1.295   .     A
C766   N793    1.431   .     S
C766   N792    1.359   .     A
C767   N791    1.358   .     A
C767   N794    1.431   .     S
C767   C954    1.422   .     S
C768   N795    1.427   .     S
C768   N792    1.384   .     A
C769   N791    1.385   .     A
C769   N796    1.429   .     S
C769   C952    1.423   .     S
C770   H779    1.084   .     S
C770   C871    1.369   1_455 S
H771   N793    1.045   .     S
H782   N793    1.045   .     S
H784   N794    1.046   .     S
H785   N794    1.045   .     S
H786   N795    1.039   .     S
H787   N795    1.040   .     S
H788   N796    1.040   .     S
H789   N796    1.039   .     S
N791   Zn805   2.024   .     S
N792   Zn806   2.024   .     S
O797   Zn805   1.997   .     S
O798   Zn806   1.997   .     S
O799   Zn805   2.003   .     S
O800   Zn806   2.003   .     S
O801   Zn805   1.994   .     S
O802   Zn806   1.994   .     S
O803   Zn805   2.006   .     S
O804   Zn806   2.006   .     S
C807   O862    1.290   .     A
C807   O859    1.287   .     A
C807   C825    1.421   .     S
C808   C824    1.396   .     A
C808   H842    1.083   .     S
C808   C872    1.369   .     S
C809   H843    1.083   .     S
C809   C824    1.399   .     A
C809   C894    1.369   .     S
C810   H845    1.083   .     S
C810   C825    1.399   .     A
C811   H852    1.084   .     S
C811   C815    1.381   .     A
C811   C822    1.398   .     A
C812   C816    1.379   .     A
C812   C823    1.397   .     A
C812   H834    1.084   .     S
C813   H835    1.084   .     S
C813   C817    1.382   .     A
C813   C823    1.398   .     A
C814   C819    1.381   .     A
C814   H836    1.084   .     S
C814   C822    1.399   .     A
C815   C820    1.398   .     A
C815   H837    1.084   .     S
C816   H838    1.082   .     S
C816   C821    1.400   .     A
C817   C821    1.401   .     A
C817   H839    1.083   .     S
C818   O860    1.287   .     A
C818   O861    1.291   .     A
C818   C824    1.421   .     S
C819   C820    1.396   .     A
C819   H840    1.081   .     S
C820   C826    1.433   .     S
C821   C827    1.443   .     S
C823   C264    1.442   1_556 S
C825   C832    1.396   .     A
C826   O866    1.295   .     A
C826   O863    1.289   .     A
C827   O864    1.294   .     A
C827   O865    1.295   .     A
C828   N855    1.431   .     S
C828   N854    1.359   .     A
C829   N853    1.358   .     A
C829   N856    1.431   .     S
C829   C1016   1.422   .     S
C830   N857    1.427   .     S
C830   N854    1.384   .     A
C831   N853    1.385   .     A
C831   N858    1.429   .     S
C831   C1014   1.423   .     S
C832   H841    1.084   .     S
H833   N855    1.045   .     S
H844   N855    1.045   .     S
H846   N856    1.046   .     S
H847   N856    1.045   .     S
H848   N857    1.039   .     S
H849   N857    1.040   .     S
H850   N858    1.040   .     S
H851   N858    1.039   .     S
N853   Zn867   2.024   .     S
N854   Zn868   2.024   .     S
O859   Zn867   1.997   .     S
O860   Zn868   1.997   .     S
O861   Zn867   2.003   .     S
O862   Zn868   2.003   .     S
O863   Zn867   1.994   .     S
O864   Zn868   1.994   .     S
O865   Zn867   2.006   .     S
O866   Zn868   2.006   .     S
C869   O924    1.290   .     A
C869   O921    1.287   .     A
C869   C887    1.421   .     S
C870   C886    1.396   .     A
C870   H904    1.083   .     S
C870   C748    1.369   1_655 S
C871   H905    1.083   .     S
C871   C886    1.399   .     A
C871   C770    1.369   1_655 S
C872   H907    1.083   .     S
C872   C887    1.399   .     A
C873   H914    1.084   .     S
C873   C877    1.381   .     A
C873   C884    1.398   .     A
C874   C878    1.379   .     A
C874   C885    1.397   .     A
C874   H896    1.084   .     S
C875   H897    1.084   .     S
C875   C879    1.382   .     A
C875   C885    1.398   .     A
C876   C881    1.381   .     A
C876   H898    1.084   .     S
C876   C884    1.399   .     A
C877   C882    1.398   .     A
C877   H899    1.084   .     S
C878   H900    1.082   .     S
C878   C883    1.400   .     A
C879   C883    1.401   .     A
C879   H901    1.083   .     S
C880   O922    1.287   .     A
C880   O923    1.291   .     A
C880   C886    1.421   .     S
C881   C882    1.396   .     A
C881   H902    1.081   .     S
C882   C888    1.433   .     S
C883   C889    1.443   .     S
C885   C326    1.442   1_556 S
C887   C894    1.396   .     A
C888   O928    1.295   .     A
C888   O925    1.289   .     A
C889   O926    1.294   .     A
C889   O927    1.295   .     A
C890   N917    1.431   .     S
C890   N916    1.359   .     A
C891   N915    1.358   .     A
C891   N918    1.431   .     S
C891   C1078   1.422   .     S
C892   N919    1.427   .     S
C892   N916    1.384   .     A
C893   N915    1.385   .     A
C893   N920    1.429   .     S
C893   C1076   1.423   .     S
C894   H903    1.084   .     S
H895   N917    1.045   .     S
H906   N917    1.045   .     S
H908   N918    1.046   .     S
H909   N918    1.045   .     S
H910   N919    1.039   .     S
H911   N919    1.040   .     S
H912   N920    1.040   .     S
H913   N920    1.039   .     S
N915   Zn929   2.024   .     S
N916   Zn930   2.024   .     S
O921   Zn929   1.997   .     S
O922   Zn930   1.997   .     S
O923   Zn929   2.003   .     S
O924   Zn930   2.003   .     S
O925   Zn929   1.994   .     S
O926   Zn930   1.994   .     S
O927   Zn929   2.006   .     S
O928   Zn930   2.006   .     S
C931   O986    1.290   .     A
C931   O983    1.287   .     A
C931   C949    1.421   .     S
C932   C948    1.396   .     A
C932   H966    1.083   .     S
C932   C996    1.369   .     S
C933   H967    1.083   .     S
C933   C948    1.399   .     A
C933   C1018   1.369   .     S
C934   H969    1.083   .     S
C934   C949    1.399   .     A
C934   C1056   1.369   1_455 S
C935   H976    1.084   .     S
C935   C939    1.381   .     A
C935   C946    1.398   .     A
C936   C940    1.379   .     A
C936   C947    1.397   .     A
C936   H958    1.084   .     S
C937   H959    1.084   .     S
C937   C941    1.382   .     A
C937   C947    1.398   .     A
C938   C943    1.381   .     A
C938   H960    1.084   .     S
C938   C946    1.399   .     A
C939   C944    1.398   .     A
C939   H961    1.084   .     S
C940   H962    1.082   .     S
C940   C945    1.400   .     A
C941   C945    1.401   .     A
C941   H963    1.083   .     S
C942   O984    1.287   .     A
C942   O985    1.291   .     A
C942   C948    1.421   .     S
C943   C944    1.396   .     A
C943   H964    1.081   .     S
C944   C950    1.433   .     S
C945   C951    1.443   .     S
C947   C388    1.442   1_556 S
C949   C956    1.396   .     A
C950   O990    1.295   .     A
C950   O987    1.289   .     A
C951   O988    1.294   .     A
C951   O989    1.295   .     A
C952   N979    1.431   .     S
C952   N978    1.359   .     A
C953   N977    1.358   .     A
C953   N980    1.431   .     S
C953   C582    1.422   1_565 S
C954   N981    1.427   .     S
C954   N978    1.384   .     A
C955   N977    1.385   .     A
C955   N982    1.429   .     S
C955   C580    1.423   1_565 S
C956   H965    1.084   .     S
C956   C1057   1.369   1_455 S
H957   N979    1.045   .     S
H968   N979    1.045   .     S
H970   N980    1.046   .     S
H971   N980    1.045   .     S
H972   N981    1.039   .     S
H973   N981    1.040   .     S
H974   N982    1.040   .     S
H975   N982    1.039   .     S
N977   Zn991   2.024   .     S
N978   Zn992   2.024   .     S
O983   Zn991   1.997   .     S
O984   Zn992   1.997   .     S
O985   Zn991   2.003   .     S
O986   Zn992   2.003   .     S
O987   Zn991   1.994   .     S
O988   Zn992   1.994   .     S
O989   Zn991   2.006   .     S
O990   Zn992   2.006   .     S
C993   O1048   1.290   .     A
C993   O1045   1.287   .     A
C993   C1011   1.421   .     S
C994   C1010   1.396   .     A
C994   H1028   1.083   .     S
C994   C1058   1.369   .     S
C995   H1029   1.083   .     S
C995   C1010   1.399   .     A
C995   C1080   1.369   .     S
C996   H1031   1.083   .     S
C996   C1011   1.399   .     A
C997   H1038   1.084   .     S
C997   C1001   1.381   .     A
C997   C1008   1.398   .     A
C998   C1002   1.379   .     A
C998   C1009   1.397   .     A
C998   H1020   1.084   .     S
C999   H1021   1.084   .     S
C999   C1003   1.382   .     A
C999   C1009   1.398   .     A
C1000  C1005   1.381   .     A
C1000  H1022   1.084   .     S
C1000  C1008   1.399   .     A
C1001  C1006   1.398   .     A
C1001  H1023   1.084   .     S
C1002  H1024   1.082   .     S
C1002  C1007   1.400   .     A
C1003  C1007   1.401   .     A
C1003  H1025   1.083   .     S
C1004  O1046   1.287   .     A
C1004  O1047   1.291   .     A
C1004  C1010   1.421   .     S
C1005  C1006   1.396   .     A
C1005  H1026   1.081   .     S
C1006  C1012   1.433   .     S
C1007  C1013   1.443   .     S
C1009  C450    1.442   1_556 S
C1011  C1018   1.396   .     A
C1012  O1052   1.295   .     A
C1012  O1049   1.289   .     A
C1013  O1050   1.294   .     A
C1013  O1051   1.295   .     A
C1014  N1041   1.431   .     S
C1014  N1040   1.359   .     A
C1015  N1039   1.358   .     A
C1015  N1042   1.431   .     S
C1015  C644    1.422   1_565 S
C1016  N1043   1.427   .     S
C1016  N1040   1.384   .     A
C1017  N1039   1.385   .     A
C1017  N1044   1.429   .     S
C1017  C642    1.423   1_565 S
C1018  H1027   1.084   .     S
H1019  N1041   1.045   .     S
H1030  N1041   1.045   .     S
H1032  N1042   1.046   .     S
H1033  N1042   1.045   .     S
H1034  N1043   1.039   .     S
H1035  N1043   1.040   .     S
H1036  N1044   1.040   .     S
H1037  N1044   1.039   .     S
N1039  Zn1053  2.024   .     S
N1040  Zn1054  2.024   .     S
O1045  Zn1053  1.997   .     S
O1046  Zn1054  1.997   .     S
O1047  Zn1053  2.003   .     S
O1048  Zn1054  2.003   .     S
O1049  Zn1053  1.994   .     S
O1050  Zn1054  1.994   .     S
O1051  Zn1053  2.006   .     S
O1052  Zn1054  2.006   .     S
C1055  O1110   1.290   .     A
C1055  O1107   1.287   .     A
C1055  C1073   1.421   .     S
C1056  C1072   1.396   .     A
C1056  H1090   1.083   .     S
C1056  C934    1.369   1_655 S
C1057  H1091   1.083   .     S
C1057  C1072   1.399   .     A
C1057  C956    1.369   1_655 S
C1058  H1093   1.083   .     S
C1058  C1073   1.399   .     A
C1059  H1100   1.084   .     S
C1059  C1063   1.381   .     A
C1059  C1070   1.398   .     A
C1060  C1064   1.379   .     A
C1060  C1071   1.397   .     A
C1060  H1082   1.084   .     S
C1061  H1083   1.084   .     S
C1061  C1065   1.382   .     A
C1061  C1071   1.398   .     A
C1062  C1067   1.381   .     A
C1062  H1084   1.084   .     S
C1062  C1070   1.399   .     A
C1063  C1068   1.398   .     A
C1063  H1085   1.084   .     S
C1064  H1086   1.082   .     S
C1064  C1069   1.400   .     A
C1065  C1069   1.401   .     A
C1065  H1087   1.083   .     S
C1066  O1108   1.287   .     A
C1066  O1109   1.291   .     A
C1066  C1072   1.421   .     S
C1067  C1068   1.396   .     A
C1067  H1088   1.081   .     S
C1068  C1074   1.433   .     S
C1069  C1075   1.443   .     S
C1071  C512    1.442   1_556 S
C1073  C1080   1.396   .     A
C1074  O1114   1.295   .     A
C1074  O1111   1.289   .     A
C1075  O1112   1.294   .     A
C1075  O1113   1.295   .     A
C1076  N1103   1.431   .     S
C1076  N1102   1.359   .     A
C1077  N1101   1.358   .     A
C1077  N1104   1.431   .     S
C1077  C706    1.422   1_565 S
C1078  N1105   1.427   .     S
C1078  N1102   1.384   .     A
C1079  N1101   1.385   .     A
C1079  N1106   1.429   .     S
C1079  C704    1.423   1_565 S
C1080  H1089   1.084   .     S
H1081  N1103   1.045   .     S
H1092  N1103   1.045   .     S
H1094  N1104   1.046   .     S
H1095  N1104   1.045   .     S
H1096  N1105   1.039   .     S
H1097  N1105   1.040   .     S
H1098  N1106   1.040   .     S
H1099  N1106   1.039   .     S
N1101  Zn1115  2.024   .     S
N1102  Zn1116  2.024   .     S
O1107  Zn1115  1.997   .     S
O1108  Zn1116  1.997   .     S
O1109  Zn1115  2.003   .     S
O1110  Zn1116  2.003   .     S
O1111  Zn1115  1.994   .     S
O1112  Zn1116  1.994   .     S
O1113  Zn1115  2.006   .     S
O1114  Zn1116  2.006   .     S
