data_str_m3_o10_o16_pcu_sym.93
_audit_creation_date              2020-01-03
_audit_creation_method            'Materials Studio'
_symmetry_space_group_name_H-M    'P1'
_symmetry_Int_Tables_number       1
_symmetry_cell_setting            triclinic
loop_
_symmetry_equiv_pos_as_xyz
  x,y,z
_cell_length_a                    23.3900
_cell_length_b                    25.6874
_cell_length_c                    25.4032
_cell_angle_alpha                 91.5255
_cell_angle_beta                  104.1134
_cell_angle_gamma                 93.6838
loop_
_atom_site_label
_atom_site_type_symbol
_atom_site_fract_x
_atom_site_fract_y
_atom_site_fract_z
_atom_site_U_iso_or_equiv
_atom_site_adp_type
_atom_site_occupancy
C1     C     0.01503   0.26488   0.24934   0.00000  Uiso   1.00
C2     C     0.06622   0.20857   0.40482   0.00000  Uiso   1.00
C3     C     0.02337   0.31944   0.25009   0.00000  Uiso   1.00
C4     C     0.03906   0.18018   0.35224   0.00000  Uiso   1.00
C5     C     0.31263   0.01422   0.25652   0.00000  Uiso   1.00
C6     C     0.31916   0.06858   0.25283   0.00000  Uiso   1.00
C7     C     0.29648   0.16646   0.14601   0.00000  Uiso   1.00
C8     C     0.29065   0.15666   0.49917   0.00000  Uiso   1.00
C9     C     0.27680   0.17413   0.08820   0.00000  Uiso   1.00
C10    C     0.03127   0.23653   0.43131   0.00000  Uiso   1.00
C11    C     0.05661   0.26274   0.48087   0.00000  Uiso   1.00
C12    C     0.15096   0.22553   0.48316   0.00000  Uiso   1.00
C13    C     0.11570   0.25741   0.00663   0.00000  Uiso   1.00
C14    C     0.20582   0.23747   0.10495   0.00000  Uiso   1.00
C15    C     0.15500   0.21998   0.12144   0.00000  Uiso   1.00
C16    C     0.12841   0.25425   0.15010   0.00000  Uiso   1.00
C17    C     0.15332   0.30517   0.16421   0.00000  Uiso   1.00
C18    C     0.20485   0.32212   0.14928   0.00000  Uiso   1.00
C19    C     0.23160   0.28823   0.12030   0.00000  Uiso   1.00
C20    C     0.12815   0.21094   0.42789   0.00000  Uiso   1.00
C21    C     0.20711   0.20668   0.00995   0.00000  Uiso   1.00
C22    C     0.24017   0.18220   0.47692   0.00000  Uiso   1.00
C23    C     0.22249   0.18331   0.42109   0.00000  Uiso   1.00
C24    C     0.16883   0.20100   0.39736   0.00000  Uiso   1.00
C25    C     0.22897   0.20502   0.06711   0.00000  Uiso   1.00
C26    C     0.30785   0.15141   0.05426   0.00000  Uiso   1.00
H27    H     0.01220   0.12909   0.07040   0.00000  Uiso   1.00
H28    H     0.16020   0.20766   0.35520   0.00000  Uiso   1.00
H29    H     0.06506   0.00296   0.24423   0.00000  Uiso   1.00
H30    H     0.13427   0.18116   0.10924   0.00000  Uiso   1.00
H31    H     0.08726   0.24190   0.15935   0.00000  Uiso   1.00
H32    H     0.13219   0.33183   0.18576   0.00000  Uiso   1.00
H33    H     0.22330   0.02857   0.15909   0.00000  Uiso   1.00
H34    H     0.27067   0.30218   0.10767   0.00000  Uiso   1.00
H35    H     0.27120   0.33073   0.26311   0.00000  Uiso   1.00
H36    H     0.15739   0.12085   0.21592   0.00000  Uiso   1.00
H37    H     0.17612   0.21560   0.27821   0.00000  Uiso   1.00
H38    H     0.24907   0.16867   0.39551   0.00000  Uiso   1.00
H39    H     0.31545   0.13862   0.47357   0.00000  Uiso   1.00
H40    H     0.31874   0.24096   0.41220   0.00000  Uiso   1.00
H41    H     0.13303   0.28217   0.04217   0.00000  Uiso   1.00
H42    H     0.03034   0.28717   0.49955   0.00000  Uiso   1.00
N43    N     0.14493   0.15223   0.23543   0.00000  Uiso   1.00
N44    N     0.18840   0.18110   0.26458   0.00000  Uiso   1.00
O45    O     0.29769   0.24629   0.25358   0.00000  Uiso   1.00
O46    O     0.05742   0.23704   0.24424   0.00000  Uiso   1.00
O47    O     0.31490   0.17358   0.33380   0.00000  Uiso   1.00
O48    O     0.07463   0.16433   0.32446   0.00000  Uiso   1.00
O49    O     0.27592   0.09629   0.25577   0.00000  Uiso   1.00
O50    O     0.03565   0.08704   0.24642   0.00000  Uiso   1.00
O51    O     0.25870   0.16901   0.17554   0.00000  Uiso   1.00
O52    O     0.01843   0.15976   0.16620   0.00000  Uiso   1.00
Zn53   Zn    0.27119   0.17284   0.25624   0.00000  Uiso   1.00
Zn54   Zn    0.06214   0.16049   0.24377   0.00000  Uiso   1.00
C55    C     0.34836   0.26488   0.24934   0.00000  Uiso   1.00
C56    C     0.39956   0.20857   0.40482   0.00000  Uiso   1.00
C57    C     0.35670   0.31944   0.25009   0.00000  Uiso   1.00
C58    C     0.37239   0.18018   0.35224   0.00000  Uiso   1.00
C59    C     0.64597   0.01422   0.25652   0.00000  Uiso   1.00
C60    C     0.65249   0.06858   0.25283   0.00000  Uiso   1.00
C61    C     0.62982   0.16646   0.14601   0.00000  Uiso   1.00
C62    C     0.62398   0.15666   0.49917   0.00000  Uiso   1.00
C63    C     0.61013   0.17413   0.08820   0.00000  Uiso   1.00
C64    C     0.36460   0.23653   0.43131   0.00000  Uiso   1.00
C65    C     0.38995   0.26274   0.48087   0.00000  Uiso   1.00
C66    C     0.48430   0.22553   0.48316   0.00000  Uiso   1.00
C67    C     0.44903   0.25741   0.00663   0.00000  Uiso   1.00
C68    C     0.53915   0.23747   0.10495   0.00000  Uiso   1.00
C69    C     0.48834   0.21998   0.12144   0.00000  Uiso   1.00
C70    C     0.46174   0.25425   0.15010   0.00000  Uiso   1.00
C71    C     0.48666   0.30517   0.16421   0.00000  Uiso   1.00
C72    C     0.53818   0.32212   0.14928   0.00000  Uiso   1.00
C73    C     0.56493   0.28823   0.12030   0.00000  Uiso   1.00
C74    C     0.46149   0.21094   0.42789   0.00000  Uiso   1.00
C75    C     0.54045   0.20668   0.00995   0.00000  Uiso   1.00
C76    C     0.57351   0.18220   0.47692   0.00000  Uiso   1.00
C77    C     0.55582   0.18331   0.42109   0.00000  Uiso   1.00
C78    C     0.50216   0.20100   0.39736   0.00000  Uiso   1.00
C79    C     0.56230   0.20502   0.06711   0.00000  Uiso   1.00
C80    C     0.64118   0.15141   0.05426   0.00000  Uiso   1.00
H81    H     0.34554   0.12909   0.07040   0.00000  Uiso   1.00
H82    H     0.49354   0.20766   0.35520   0.00000  Uiso   1.00
H83    H     0.39840   0.00296   0.24423   0.00000  Uiso   1.00
H84    H     0.46760   0.18116   0.10924   0.00000  Uiso   1.00
H85    H     0.42060   0.24190   0.15935   0.00000  Uiso   1.00
H86    H     0.46552   0.33183   0.18576   0.00000  Uiso   1.00
H87    H     0.55664   0.02857   0.15909   0.00000  Uiso   1.00
H88    H     0.60400   0.30218   0.10767   0.00000  Uiso   1.00
H89    H     0.60453   0.33073   0.26311   0.00000  Uiso   1.00
H90    H     0.49073   0.12085   0.21592   0.00000  Uiso   1.00
H91    H     0.50946   0.21560   0.27821   0.00000  Uiso   1.00
H92    H     0.58240   0.16867   0.39551   0.00000  Uiso   1.00
H93    H     0.64879   0.13862   0.47357   0.00000  Uiso   1.00
H94    H     0.65207   0.24096   0.41220   0.00000  Uiso   1.00
H95    H     0.46636   0.28217   0.04217   0.00000  Uiso   1.00
H96    H     0.36368   0.28717   0.49955   0.00000  Uiso   1.00
N97    N     0.47827   0.15223   0.23543   0.00000  Uiso   1.00
N98    N     0.52173   0.18110   0.26458   0.00000  Uiso   1.00
O99    O     0.63102   0.24629   0.25358   0.00000  Uiso   1.00
O100   O     0.39075   0.23704   0.24424   0.00000  Uiso   1.00
O101   O     0.64823   0.17358   0.33380   0.00000  Uiso   1.00
O102   O     0.40796   0.16433   0.32446   0.00000  Uiso   1.00
O103   O     0.60925   0.09629   0.25577   0.00000  Uiso   1.00
O104   O     0.36898   0.08704   0.24642   0.00000  Uiso   1.00
O105   O     0.59204   0.16901   0.17554   0.00000  Uiso   1.00
O106   O     0.35177   0.15976   0.16620   0.00000  Uiso   1.00
Zn107  Zn    0.60453   0.17284   0.25624   0.00000  Uiso   1.00
Zn108  Zn    0.39547   0.16049   0.24377   0.00000  Uiso   1.00
C109   C     0.68169   0.26488   0.24934   0.00000  Uiso   1.00
C110   C     0.73289   0.20857   0.40482   0.00000  Uiso   1.00
C111   C     0.69004   0.31944   0.25009   0.00000  Uiso   1.00
C112   C     0.70573   0.18018   0.35224   0.00000  Uiso   1.00
C113   C     0.97930   0.01422   0.25652   0.00000  Uiso   1.00
C114   C     0.98582   0.06858   0.25283   0.00000  Uiso   1.00
C115   C     0.96315   0.16646   0.14601   0.00000  Uiso   1.00
C116   C     0.95731   0.15666   0.49917   0.00000  Uiso   1.00
C117   C     0.94347   0.17413   0.08820   0.00000  Uiso   1.00
C118   C     0.69794   0.23653   0.43131   0.00000  Uiso   1.00
C119   C     0.72328   0.26274   0.48087   0.00000  Uiso   1.00
C120   C     0.81763   0.22553   0.48316   0.00000  Uiso   1.00
C121   C     0.78237   0.25741   0.00663   0.00000  Uiso   1.00
C122   C     0.87249   0.23747   0.10495   0.00000  Uiso   1.00
C123   C     0.82167   0.21998   0.12144   0.00000  Uiso   1.00
C124   C     0.79508   0.25425   0.15010   0.00000  Uiso   1.00
C125   C     0.81999   0.30517   0.16421   0.00000  Uiso   1.00
C126   C     0.87152   0.32212   0.14928   0.00000  Uiso   1.00
C127   C     0.89827   0.28823   0.12030   0.00000  Uiso   1.00
C128   C     0.79482   0.21094   0.42789   0.00000  Uiso   1.00
C129   C     0.87378   0.20668   0.00995   0.00000  Uiso   1.00
C130   C     0.90684   0.18220   0.47692   0.00000  Uiso   1.00
C131   C     0.88916   0.18331   0.42109   0.00000  Uiso   1.00
C132   C     0.83549   0.20100   0.39736   0.00000  Uiso   1.00
C133   C     0.89563   0.20502   0.06711   0.00000  Uiso   1.00
C134   C     0.97452   0.15141   0.05426   0.00000  Uiso   1.00
H135   H     0.67887   0.12909   0.07040   0.00000  Uiso   1.00
H136   H     0.82687   0.20766   0.35520   0.00000  Uiso   1.00
H137   H     0.73173   0.00296   0.24423   0.00000  Uiso   1.00
H138   H     0.80094   0.18116   0.10924   0.00000  Uiso   1.00
H139   H     0.75393   0.24190   0.15935   0.00000  Uiso   1.00
H140   H     0.79885   0.33183   0.18576   0.00000  Uiso   1.00
H141   H     0.88997   0.02857   0.15909   0.00000  Uiso   1.00
H142   H     0.93733   0.30218   0.10767   0.00000  Uiso   1.00
H143   H     0.93787   0.33073   0.26311   0.00000  Uiso   1.00
H144   H     0.82406   0.12085   0.21592   0.00000  Uiso   1.00
H145   H     0.84279   0.21560   0.27821   0.00000  Uiso   1.00
H146   H     0.91573   0.16867   0.39551   0.00000  Uiso   1.00
H147   H     0.98212   0.13862   0.47357   0.00000  Uiso   1.00
H148   H     0.98540   0.24096   0.41220   0.00000  Uiso   1.00
H149   H     0.79969   0.28217   0.04217   0.00000  Uiso   1.00
H150   H     0.69701   0.28717   0.49955   0.00000  Uiso   1.00
N151   N     0.81160   0.15223   0.23543   0.00000  Uiso   1.00
N152   N     0.85507   0.18110   0.26458   0.00000  Uiso   1.00
O153   O     0.96435   0.24629   0.25358   0.00000  Uiso   1.00
O154   O     0.72408   0.23704   0.24424   0.00000  Uiso   1.00
O155   O     0.98157   0.17358   0.33380   0.00000  Uiso   1.00
O156   O     0.74130   0.16433   0.32446   0.00000  Uiso   1.00
O157   O     0.94258   0.09629   0.25577   0.00000  Uiso   1.00
O158   O     0.70231   0.08704   0.24642   0.00000  Uiso   1.00
O159   O     0.92537   0.16901   0.17554   0.00000  Uiso   1.00
O160   O     0.68510   0.15976   0.16620   0.00000  Uiso   1.00
Zn161  Zn    0.93786   0.17284   0.25624   0.00000  Uiso   1.00
Zn162  Zn    0.72881   0.16049   0.24377   0.00000  Uiso   1.00
C163   C     0.01503   0.59821   0.24934   0.00000  Uiso   1.00
C164   C     0.06622   0.54190   0.40482   0.00000  Uiso   1.00
C165   C     0.02337   0.65278   0.25009   0.00000  Uiso   1.00
C166   C     0.03906   0.51351   0.35224   0.00000  Uiso   1.00
C167   C     0.31263   0.34756   0.25652   0.00000  Uiso   1.00
C168   C     0.31916   0.40191   0.25283   0.00000  Uiso   1.00
C169   C     0.29648   0.49979   0.14601   0.00000  Uiso   1.00
C170   C     0.29065   0.48999   0.49917   0.00000  Uiso   1.00
C171   C     0.27680   0.50746   0.08820   0.00000  Uiso   1.00
C172   C     0.03127   0.56986   0.43131   0.00000  Uiso   1.00
C173   C     0.05661   0.59607   0.48087   0.00000  Uiso   1.00
C174   C     0.15096   0.55886   0.48316   0.00000  Uiso   1.00
C175   C     0.11570   0.59074   0.00663   0.00000  Uiso   1.00
C176   C     0.20582   0.57080   0.10495   0.00000  Uiso   1.00
C177   C     0.15500   0.55331   0.12144   0.00000  Uiso   1.00
C178   C     0.12841   0.58758   0.15010   0.00000  Uiso   1.00
C179   C     0.15332   0.63850   0.16421   0.00000  Uiso   1.00
C180   C     0.20485   0.65545   0.14928   0.00000  Uiso   1.00
C181   C     0.23160   0.62156   0.12030   0.00000  Uiso   1.00
C182   C     0.12815   0.54427   0.42789   0.00000  Uiso   1.00
C183   C     0.20711   0.54001   0.00995   0.00000  Uiso   1.00
C184   C     0.24017   0.51553   0.47692   0.00000  Uiso   1.00
C185   C     0.22249   0.51665   0.42109   0.00000  Uiso   1.00
C186   C     0.16883   0.53434   0.39736   0.00000  Uiso   1.00
C187   C     0.22897   0.53835   0.06711   0.00000  Uiso   1.00
C188   C     0.30785   0.48474   0.05426   0.00000  Uiso   1.00
H189   H     0.01220   0.46242   0.07040   0.00000  Uiso   1.00
H190   H     0.16020   0.54099   0.35520   0.00000  Uiso   1.00
H191   H     0.06506   0.33629   0.24423   0.00000  Uiso   1.00
H192   H     0.13427   0.51449   0.10924   0.00000  Uiso   1.00
H193   H     0.08726   0.57523   0.15935   0.00000  Uiso   1.00
H194   H     0.13219   0.66516   0.18576   0.00000  Uiso   1.00
H195   H     0.22330   0.36191   0.15909   0.00000  Uiso   1.00
H196   H     0.27067   0.63551   0.10767   0.00000  Uiso   1.00
H197   H     0.27120   0.66407   0.26311   0.00000  Uiso   1.00
H198   H     0.15739   0.45418   0.21592   0.00000  Uiso   1.00
H199   H     0.17612   0.54893   0.27821   0.00000  Uiso   1.00
H200   H     0.24907   0.50200   0.39551   0.00000  Uiso   1.00
H201   H     0.31545   0.47196   0.47357   0.00000  Uiso   1.00
H202   H     0.31874   0.57429   0.41220   0.00000  Uiso   1.00
H203   H     0.13303   0.61550   0.04217   0.00000  Uiso   1.00
H204   H     0.03034   0.62050   0.49955   0.00000  Uiso   1.00
N205   N     0.14493   0.48556   0.23543   0.00000  Uiso   1.00
N206   N     0.18840   0.51444   0.26458   0.00000  Uiso   1.00
O207   O     0.29769   0.57963   0.25358   0.00000  Uiso   1.00
O208   O     0.05742   0.57038   0.24424   0.00000  Uiso   1.00
O209   O     0.31490   0.50691   0.33380   0.00000  Uiso   1.00
O210   O     0.07463   0.49766   0.32446   0.00000  Uiso   1.00
O211   O     0.27592   0.42962   0.25577   0.00000  Uiso   1.00
O212   O     0.03565   0.42037   0.24642   0.00000  Uiso   1.00
O213   O     0.25870   0.50234   0.17554   0.00000  Uiso   1.00
O214   O     0.01843   0.49309   0.16620   0.00000  Uiso   1.00
Zn215  Zn    0.27119   0.50618   0.25624   0.00000  Uiso   1.00
Zn216  Zn    0.06214   0.49382   0.24377   0.00000  Uiso   1.00
C217   C     0.34836   0.59821   0.24934   0.00000  Uiso   1.00
C218   C     0.39956   0.54190   0.40482   0.00000  Uiso   1.00
C219   C     0.35670   0.65278   0.25009   0.00000  Uiso   1.00
C220   C     0.37239   0.51351   0.35224   0.00000  Uiso   1.00
C221   C     0.64597   0.34756   0.25652   0.00000  Uiso   1.00
C222   C     0.65249   0.40191   0.25283   0.00000  Uiso   1.00
C223   C     0.62982   0.49979   0.14601   0.00000  Uiso   1.00
C224   C     0.62398   0.48999   0.49917   0.00000  Uiso   1.00
C225   C     0.61013   0.50746   0.08820   0.00000  Uiso   1.00
C226   C     0.36460   0.56986   0.43131   0.00000  Uiso   1.00
C227   C     0.38995   0.59607   0.48087   0.00000  Uiso   1.00
C228   C     0.48430   0.55886   0.48316   0.00000  Uiso   1.00
C229   C     0.44903   0.59074   0.00663   0.00000  Uiso   1.00
C230   C     0.53915   0.57080   0.10495   0.00000  Uiso   1.00
C231   C     0.48834   0.55331   0.12144   0.00000  Uiso   1.00
C232   C     0.46174   0.58758   0.15010   0.00000  Uiso   1.00
C233   C     0.48666   0.63850   0.16421   0.00000  Uiso   1.00
C234   C     0.53818   0.65545   0.14928   0.00000  Uiso   1.00
C235   C     0.56493   0.62156   0.12030   0.00000  Uiso   1.00
C236   C     0.46149   0.54427   0.42789   0.00000  Uiso   1.00
C237   C     0.54045   0.54001   0.00995   0.00000  Uiso   1.00
C238   C     0.57351   0.51553   0.47692   0.00000  Uiso   1.00
C239   C     0.55582   0.51665   0.42109   0.00000  Uiso   1.00
C240   C     0.50216   0.53434   0.39736   0.00000  Uiso   1.00
C241   C     0.56230   0.53835   0.06711   0.00000  Uiso   1.00
C242   C     0.64118   0.48474   0.05426   0.00000  Uiso   1.00
H243   H     0.34554   0.46242   0.07040   0.00000  Uiso   1.00
H244   H     0.49354   0.54099   0.35520   0.00000  Uiso   1.00
H245   H     0.39840   0.33629   0.24423   0.00000  Uiso   1.00
H246   H     0.46760   0.51449   0.10924   0.00000  Uiso   1.00
H247   H     0.42060   0.57523   0.15935   0.00000  Uiso   1.00
H248   H     0.46552   0.66516   0.18576   0.00000  Uiso   1.00
H249   H     0.55664   0.36191   0.15909   0.00000  Uiso   1.00
H250   H     0.60400   0.63551   0.10767   0.00000  Uiso   1.00
H251   H     0.60453   0.66407   0.26311   0.00000  Uiso   1.00
H252   H     0.49073   0.45418   0.21592   0.00000  Uiso   1.00
H253   H     0.50946   0.54893   0.27821   0.00000  Uiso   1.00
H254   H     0.58240   0.50200   0.39551   0.00000  Uiso   1.00
H255   H     0.64879   0.47196   0.47357   0.00000  Uiso   1.00
H256   H     0.65207   0.57429   0.41220   0.00000  Uiso   1.00
H257   H     0.46636   0.61550   0.04217   0.00000  Uiso   1.00
H258   H     0.36368   0.62050   0.49955   0.00000  Uiso   1.00
N259   N     0.47827   0.48556   0.23543   0.00000  Uiso   1.00
N260   N     0.52173   0.51444   0.26458   0.00000  Uiso   1.00
O261   O     0.63102   0.57963   0.25358   0.00000  Uiso   1.00
O262   O     0.39075   0.57038   0.24424   0.00000  Uiso   1.00
O263   O     0.64823   0.50691   0.33380   0.00000  Uiso   1.00
O264   O     0.40796   0.49766   0.32446   0.00000  Uiso   1.00
O265   O     0.60925   0.42962   0.25577   0.00000  Uiso   1.00
O266   O     0.36898   0.42037   0.24642   0.00000  Uiso   1.00
O267   O     0.59204   0.50234   0.17554   0.00000  Uiso   1.00
O268   O     0.35177   0.49309   0.16620   0.00000  Uiso   1.00
Zn269  Zn    0.60453   0.50618   0.25624   0.00000  Uiso   1.00
Zn270  Zn    0.39547   0.49382   0.24377   0.00000  Uiso   1.00
C271   C     0.68169   0.59821   0.24934   0.00000  Uiso   1.00
C272   C     0.73289   0.54190   0.40482   0.00000  Uiso   1.00
C273   C     0.69004   0.65278   0.25009   0.00000  Uiso   1.00
C274   C     0.70573   0.51351   0.35224   0.00000  Uiso   1.00
C275   C     0.97930   0.34756   0.25652   0.00000  Uiso   1.00
C276   C     0.98582   0.40191   0.25283   0.00000  Uiso   1.00
C277   C     0.96315   0.49979   0.14601   0.00000  Uiso   1.00
C278   C     0.95731   0.48999   0.49917   0.00000  Uiso   1.00
C279   C     0.94347   0.50746   0.08820   0.00000  Uiso   1.00
C280   C     0.69794   0.56986   0.43131   0.00000  Uiso   1.00
C281   C     0.72328   0.59607   0.48087   0.00000  Uiso   1.00
C282   C     0.81763   0.55886   0.48316   0.00000  Uiso   1.00
C283   C     0.78237   0.59074   0.00663   0.00000  Uiso   1.00
C284   C     0.87249   0.57080   0.10495   0.00000  Uiso   1.00
C285   C     0.82167   0.55331   0.12144   0.00000  Uiso   1.00
C286   C     0.79508   0.58758   0.15010   0.00000  Uiso   1.00
C287   C     0.81999   0.63850   0.16421   0.00000  Uiso   1.00
C288   C     0.87152   0.65545   0.14928   0.00000  Uiso   1.00
C289   C     0.89827   0.62156   0.12030   0.00000  Uiso   1.00
C290   C     0.79482   0.54427   0.42789   0.00000  Uiso   1.00
C291   C     0.87378   0.54001   0.00995   0.00000  Uiso   1.00
C292   C     0.90684   0.51553   0.47692   0.00000  Uiso   1.00
C293   C     0.88916   0.51665   0.42109   0.00000  Uiso   1.00
C294   C     0.83549   0.53434   0.39736   0.00000  Uiso   1.00
C295   C     0.89563   0.53835   0.06711   0.00000  Uiso   1.00
C296   C     0.97452   0.48474   0.05426   0.00000  Uiso   1.00
H297   H     0.67887   0.46242   0.07040   0.00000  Uiso   1.00
H298   H     0.82687   0.54099   0.35520   0.00000  Uiso   1.00
H299   H     0.73173   0.33629   0.24423   0.00000  Uiso   1.00
H300   H     0.80094   0.51449   0.10924   0.00000  Uiso   1.00
H301   H     0.75393   0.57523   0.15935   0.00000  Uiso   1.00
H302   H     0.79885   0.66516   0.18576   0.00000  Uiso   1.00
H303   H     0.88997   0.36191   0.15909   0.00000  Uiso   1.00
H304   H     0.93733   0.63551   0.10767   0.00000  Uiso   1.00
H305   H     0.93787   0.66407   0.26311   0.00000  Uiso   1.00
H306   H     0.82406   0.45418   0.21592   0.00000  Uiso   1.00
H307   H     0.84279   0.54893   0.27821   0.00000  Uiso   1.00
H308   H     0.91573   0.50200   0.39551   0.00000  Uiso   1.00
H309   H     0.98212   0.47196   0.47357   0.00000  Uiso   1.00
H310   H     0.98540   0.57429   0.41220   0.00000  Uiso   1.00
H311   H     0.79969   0.61550   0.04217   0.00000  Uiso   1.00
H312   H     0.69701   0.62050   0.49955   0.00000  Uiso   1.00
N313   N     0.81160   0.48556   0.23543   0.00000  Uiso   1.00
N314   N     0.85507   0.51444   0.26458   0.00000  Uiso   1.00
O315   O     0.96435   0.57963   0.25358   0.00000  Uiso   1.00
O316   O     0.72408   0.57038   0.24424   0.00000  Uiso   1.00
O317   O     0.98157   0.50691   0.33380   0.00000  Uiso   1.00
O318   O     0.74130   0.49766   0.32446   0.00000  Uiso   1.00
O319   O     0.94258   0.42962   0.25577   0.00000  Uiso   1.00
O320   O     0.70231   0.42037   0.24642   0.00000  Uiso   1.00
O321   O     0.92537   0.50234   0.17554   0.00000  Uiso   1.00
O322   O     0.68510   0.49309   0.16620   0.00000  Uiso   1.00
Zn323  Zn    0.93786   0.50618   0.25624   0.00000  Uiso   1.00
Zn324  Zn    0.72881   0.49382   0.24377   0.00000  Uiso   1.00
C325   C     0.01503   0.93155   0.24934   0.00000  Uiso   1.00
C326   C     0.06622   0.87523   0.40482   0.00000  Uiso   1.00
C327   C     0.02337   0.98611   0.25009   0.00000  Uiso   1.00
C328   C     0.03906   0.84684   0.35224   0.00000  Uiso   1.00
C329   C     0.31263   0.68089   0.25652   0.00000  Uiso   1.00
C330   C     0.31916   0.73525   0.25283   0.00000  Uiso   1.00
C331   C     0.29648   0.83313   0.14601   0.00000  Uiso   1.00
C332   C     0.29065   0.82332   0.49917   0.00000  Uiso   1.00
C333   C     0.27680   0.84080   0.08820   0.00000  Uiso   1.00
C334   C     0.03127   0.90320   0.43131   0.00000  Uiso   1.00
C335   C     0.05661   0.92940   0.48087   0.00000  Uiso   1.00
C336   C     0.15096   0.89219   0.48316   0.00000  Uiso   1.00
C337   C     0.11570   0.92407   0.00663   0.00000  Uiso   1.00
C338   C     0.20582   0.90413   0.10495   0.00000  Uiso   1.00
C339   C     0.15500   0.88664   0.12144   0.00000  Uiso   1.00
C340   C     0.12841   0.92091   0.15010   0.00000  Uiso   1.00
C341   C     0.15332   0.97183   0.16421   0.00000  Uiso   1.00
C342   C     0.20485   0.98879   0.14928   0.00000  Uiso   1.00
C343   C     0.23160   0.95489   0.12030   0.00000  Uiso   1.00
C344   C     0.12815   0.87761   0.42789   0.00000  Uiso   1.00
C345   C     0.20711   0.87334   0.00995   0.00000  Uiso   1.00
C346   C     0.24017   0.84887   0.47692   0.00000  Uiso   1.00
C347   C     0.22249   0.84998   0.42109   0.00000  Uiso   1.00
C348   C     0.16883   0.86767   0.39736   0.00000  Uiso   1.00
C349   C     0.22897   0.87169   0.06711   0.00000  Uiso   1.00
C350   C     0.30785   0.81807   0.05426   0.00000  Uiso   1.00
H351   H     0.01220   0.79576   0.07040   0.00000  Uiso   1.00
H352   H     0.16020   0.87433   0.35520   0.00000  Uiso   1.00
H353   H     0.06506   0.66963   0.24423   0.00000  Uiso   1.00
H354   H     0.13427   0.84783   0.10924   0.00000  Uiso   1.00
H355   H     0.08726   0.90856   0.15935   0.00000  Uiso   1.00
H356   H     0.13219   0.99849   0.18576   0.00000  Uiso   1.00
H357   H     0.22330   0.69524   0.15909   0.00000  Uiso   1.00
H358   H     0.27067   0.96885   0.10767   0.00000  Uiso   1.00
H359   H     0.27120   0.99740   0.26311   0.00000  Uiso   1.00
H360   H     0.15739   0.78752   0.21592   0.00000  Uiso   1.00
H361   H     0.17612   0.88227   0.27821   0.00000  Uiso   1.00
H362   H     0.24907   0.83533   0.39551   0.00000  Uiso   1.00
H363   H     0.31545   0.80529   0.47357   0.00000  Uiso   1.00
H364   H     0.31874   0.90763   0.41220   0.00000  Uiso   1.00
H365   H     0.13303   0.94884   0.04217   0.00000  Uiso   1.00
H366   H     0.03034   0.95384   0.49955   0.00000  Uiso   1.00
N367   N     0.14493   0.81890   0.23543   0.00000  Uiso   1.00
N368   N     0.18840   0.84777   0.26458   0.00000  Uiso   1.00
O369   O     0.29769   0.91296   0.25358   0.00000  Uiso   1.00
O370   O     0.05742   0.90371   0.24424   0.00000  Uiso   1.00
O371   O     0.31490   0.84024   0.33380   0.00000  Uiso   1.00
O372   O     0.07463   0.83099   0.32446   0.00000  Uiso   1.00
O373   O     0.27592   0.76296   0.25577   0.00000  Uiso   1.00
O374   O     0.03565   0.75371   0.24642   0.00000  Uiso   1.00
O375   O     0.25870   0.83567   0.17554   0.00000  Uiso   1.00
O376   O     0.01843   0.82642   0.16620   0.00000  Uiso   1.00
Zn377  Zn    0.27119   0.83951   0.25624   0.00000  Uiso   1.00
Zn378  Zn    0.06214   0.82716   0.24377   0.00000  Uiso   1.00
C379   C     0.34836   0.93155   0.24934   0.00000  Uiso   1.00
C380   C     0.39956   0.87523   0.40482   0.00000  Uiso   1.00
C381   C     0.35670   0.98611   0.25009   0.00000  Uiso   1.00
C382   C     0.37239   0.84684   0.35224   0.00000  Uiso   1.00
C383   C     0.64597   0.68089   0.25652   0.00000  Uiso   1.00
C384   C     0.65249   0.73525   0.25283   0.00000  Uiso   1.00
C385   C     0.62982   0.83313   0.14601   0.00000  Uiso   1.00
C386   C     0.62398   0.82332   0.49917   0.00000  Uiso   1.00
C387   C     0.61013   0.84080   0.08820   0.00000  Uiso   1.00
C388   C     0.36460   0.90320   0.43131   0.00000  Uiso   1.00
C389   C     0.38995   0.92940   0.48087   0.00000  Uiso   1.00
C390   C     0.48430   0.89219   0.48316   0.00000  Uiso   1.00
C391   C     0.44903   0.92407   0.00663   0.00000  Uiso   1.00
C392   C     0.53915   0.90413   0.10495   0.00000  Uiso   1.00
C393   C     0.48834   0.88664   0.12144   0.00000  Uiso   1.00
C394   C     0.46174   0.92091   0.15010   0.00000  Uiso   1.00
C395   C     0.48666   0.97183   0.16421   0.00000  Uiso   1.00
C396   C     0.53818   0.98879   0.14928   0.00000  Uiso   1.00
C397   C     0.56493   0.95489   0.12030   0.00000  Uiso   1.00
C398   C     0.46149   0.87761   0.42789   0.00000  Uiso   1.00
C399   C     0.54045   0.87334   0.00995   0.00000  Uiso   1.00
C400   C     0.57351   0.84887   0.47692   0.00000  Uiso   1.00
C401   C     0.55582   0.84998   0.42109   0.00000  Uiso   1.00
C402   C     0.50216   0.86767   0.39736   0.00000  Uiso   1.00
C403   C     0.56230   0.87169   0.06711   0.00000  Uiso   1.00
C404   C     0.64118   0.81807   0.05426   0.00000  Uiso   1.00
H405   H     0.34554   0.79576   0.07040   0.00000  Uiso   1.00
H406   H     0.49354   0.87433   0.35520   0.00000  Uiso   1.00
H407   H     0.39840   0.66963   0.24423   0.00000  Uiso   1.00
H408   H     0.46760   0.84783   0.10924   0.00000  Uiso   1.00
H409   H     0.42060   0.90856   0.15935   0.00000  Uiso   1.00
H410   H     0.46552   0.99849   0.18576   0.00000  Uiso   1.00
H411   H     0.55664   0.69524   0.15909   0.00000  Uiso   1.00
H412   H     0.60400   0.96885   0.10767   0.00000  Uiso   1.00
H413   H     0.60453   0.99740   0.26311   0.00000  Uiso   1.00
H414   H     0.49073   0.78752   0.21592   0.00000  Uiso   1.00
H415   H     0.50946   0.88227   0.27821   0.00000  Uiso   1.00
H416   H     0.58240   0.83533   0.39551   0.00000  Uiso   1.00
H417   H     0.64879   0.80529   0.47357   0.00000  Uiso   1.00
H418   H     0.65207   0.90763   0.41220   0.00000  Uiso   1.00
H419   H     0.46636   0.94884   0.04217   0.00000  Uiso   1.00
H420   H     0.36368   0.95384   0.49955   0.00000  Uiso   1.00
N421   N     0.47827   0.81890   0.23543   0.00000  Uiso   1.00
N422   N     0.52173   0.84777   0.26458   0.00000  Uiso   1.00
O423   O     0.63102   0.91296   0.25358   0.00000  Uiso   1.00
O424   O     0.39075   0.90371   0.24424   0.00000  Uiso   1.00
O425   O     0.64823   0.84024   0.33380   0.00000  Uiso   1.00
O426   O     0.40796   0.83099   0.32446   0.00000  Uiso   1.00
O427   O     0.60925   0.76296   0.25577   0.00000  Uiso   1.00
O428   O     0.36898   0.75371   0.24642   0.00000  Uiso   1.00
O429   O     0.59204   0.83567   0.17554   0.00000  Uiso   1.00
O430   O     0.35177   0.82642   0.16620   0.00000  Uiso   1.00
Zn431  Zn    0.60453   0.83951   0.25624   0.00000  Uiso   1.00
Zn432  Zn    0.39547   0.82716   0.24377   0.00000  Uiso   1.00
C433   C     0.68169   0.93155   0.24934   0.00000  Uiso   1.00
C434   C     0.73289   0.87523   0.40482   0.00000  Uiso   1.00
C435   C     0.69004   0.98611   0.25009   0.00000  Uiso   1.00
C436   C     0.70573   0.84684   0.35224   0.00000  Uiso   1.00
C437   C     0.97930   0.68089   0.25652   0.00000  Uiso   1.00
C438   C     0.98582   0.73525   0.25283   0.00000  Uiso   1.00
C439   C     0.96315   0.83313   0.14601   0.00000  Uiso   1.00
C440   C     0.95731   0.82332   0.49917   0.00000  Uiso   1.00
C441   C     0.94347   0.84080   0.08820   0.00000  Uiso   1.00
C442   C     0.69794   0.90320   0.43131   0.00000  Uiso   1.00
C443   C     0.72328   0.92940   0.48087   0.00000  Uiso   1.00
C444   C     0.81763   0.89219   0.48316   0.00000  Uiso   1.00
C445   C     0.78237   0.92407   0.00663   0.00000  Uiso   1.00
C446   C     0.87249   0.90413   0.10495   0.00000  Uiso   1.00
C447   C     0.82167   0.88664   0.12144   0.00000  Uiso   1.00
C448   C     0.79508   0.92091   0.15010   0.00000  Uiso   1.00
C449   C     0.81999   0.97183   0.16421   0.00000  Uiso   1.00
C450   C     0.87152   0.98879   0.14928   0.00000  Uiso   1.00
C451   C     0.89827   0.95489   0.12030   0.00000  Uiso   1.00
C452   C     0.79482   0.87761   0.42789   0.00000  Uiso   1.00
C453   C     0.87378   0.87334   0.00995   0.00000  Uiso   1.00
C454   C     0.90684   0.84887   0.47692   0.00000  Uiso   1.00
C455   C     0.88916   0.84998   0.42109   0.00000  Uiso   1.00
C456   C     0.83549   0.86767   0.39736   0.00000  Uiso   1.00
C457   C     0.89563   0.87169   0.06711   0.00000  Uiso   1.00
C458   C     0.97452   0.81807   0.05426   0.00000  Uiso   1.00
H459   H     0.67887   0.79576   0.07040   0.00000  Uiso   1.00
H460   H     0.82687   0.87433   0.35520   0.00000  Uiso   1.00
H461   H     0.73173   0.66963   0.24423   0.00000  Uiso   1.00
H462   H     0.80094   0.84783   0.10924   0.00000  Uiso   1.00
H463   H     0.75393   0.90856   0.15935   0.00000  Uiso   1.00
H464   H     0.79885   0.99849   0.18576   0.00000  Uiso   1.00
H465   H     0.88997   0.69524   0.15909   0.00000  Uiso   1.00
H466   H     0.93733   0.96885   0.10767   0.00000  Uiso   1.00
H467   H     0.93787   0.99740   0.26311   0.00000  Uiso   1.00
H468   H     0.82406   0.78752   0.21592   0.00000  Uiso   1.00
H469   H     0.84279   0.88227   0.27821   0.00000  Uiso   1.00
H470   H     0.91573   0.83533   0.39551   0.00000  Uiso   1.00
H471   H     0.98212   0.80529   0.47357   0.00000  Uiso   1.00
H472   H     0.98540   0.90763   0.41220   0.00000  Uiso   1.00
H473   H     0.79969   0.94884   0.04217   0.00000  Uiso   1.00
H474   H     0.69701   0.95384   0.49955   0.00000  Uiso   1.00
N475   N     0.81160   0.81890   0.23543   0.00000  Uiso   1.00
N476   N     0.85507   0.84777   0.26458   0.00000  Uiso   1.00
O477   O     0.96435   0.91296   0.25358   0.00000  Uiso   1.00
O478   O     0.72408   0.90371   0.24424   0.00000  Uiso   1.00
O479   O     0.98157   0.84024   0.33380   0.00000  Uiso   1.00
O480   O     0.74130   0.83099   0.32446   0.00000  Uiso   1.00
O481   O     0.94258   0.76296   0.25577   0.00000  Uiso   1.00
O482   O     0.70231   0.75371   0.24642   0.00000  Uiso   1.00
O483   O     0.92537   0.83567   0.17554   0.00000  Uiso   1.00
O484   O     0.68510   0.82642   0.16620   0.00000  Uiso   1.00
Zn485  Zn    0.93786   0.83951   0.25624   0.00000  Uiso   1.00
Zn486  Zn    0.72881   0.82716   0.24377   0.00000  Uiso   1.00
C487   C     0.01503   0.26488   0.74934   0.00000  Uiso   1.00
C488   C     0.06622   0.20857   0.90482   0.00000  Uiso   1.00
C489   C     0.02337   0.31944   0.75009   0.00000  Uiso   1.00
C490   C     0.03906   0.18018   0.85224   0.00000  Uiso   1.00
C491   C     0.31263   0.01422   0.75652   0.00000  Uiso   1.00
C492   C     0.31916   0.06858   0.75283   0.00000  Uiso   1.00
C493   C     0.29648   0.16646   0.64601   0.00000  Uiso   1.00
C494   C     0.29065   0.15666   0.99917   0.00000  Uiso   1.00
C495   C     0.27680   0.17413   0.58820   0.00000  Uiso   1.00
C496   C     0.03127   0.23653   0.93131   0.00000  Uiso   1.00
C497   C     0.05661   0.26274   0.98087   0.00000  Uiso   1.00
C498   C     0.15096   0.22553   0.98316   0.00000  Uiso   1.00
C499   C     0.11570   0.25741   0.50663   0.00000  Uiso   1.00
C500   C     0.20582   0.23747   0.60495   0.00000  Uiso   1.00
C501   C     0.15500   0.21998   0.62144   0.00000  Uiso   1.00
C502   C     0.12841   0.25425   0.65010   0.00000  Uiso   1.00
C503   C     0.15332   0.30517   0.66421   0.00000  Uiso   1.00
C504   C     0.20485   0.32212   0.64928   0.00000  Uiso   1.00
C505   C     0.23160   0.28823   0.62030   0.00000  Uiso   1.00
C506   C     0.12815   0.21094   0.92789   0.00000  Uiso   1.00
C507   C     0.20711   0.20668   0.50995   0.00000  Uiso   1.00
C508   C     0.24017   0.18220   0.97692   0.00000  Uiso   1.00
C509   C     0.22249   0.18331   0.92109   0.00000  Uiso   1.00
C510   C     0.16883   0.20100   0.89736   0.00000  Uiso   1.00
C511   C     0.22897   0.20502   0.56711   0.00000  Uiso   1.00
C512   C     0.30785   0.15141   0.55426   0.00000  Uiso   1.00
H513   H     0.01220   0.12909   0.57040   0.00000  Uiso   1.00
H514   H     0.16020   0.20766   0.85520   0.00000  Uiso   1.00
H515   H     0.06506   0.00296   0.74423   0.00000  Uiso   1.00
H516   H     0.13427   0.18116   0.60924   0.00000  Uiso   1.00
H517   H     0.08726   0.24190   0.65935   0.00000  Uiso   1.00
H518   H     0.13219   0.33183   0.68576   0.00000  Uiso   1.00
H519   H     0.22330   0.02857   0.65909   0.00000  Uiso   1.00
H520   H     0.27067   0.30218   0.60767   0.00000  Uiso   1.00
H521   H     0.27120   0.33073   0.76311   0.00000  Uiso   1.00
H522   H     0.15739   0.12085   0.71592   0.00000  Uiso   1.00
H523   H     0.17612   0.21560   0.77821   0.00000  Uiso   1.00
H524   H     0.24907   0.16867   0.89551   0.00000  Uiso   1.00
H525   H     0.31545   0.13862   0.97357   0.00000  Uiso   1.00
H526   H     0.31874   0.24096   0.91220   0.00000  Uiso   1.00
H527   H     0.13303   0.28217   0.54217   0.00000  Uiso   1.00
H528   H     0.03034   0.28717   0.99955   0.00000  Uiso   1.00
N529   N     0.14493   0.15223   0.73543   0.00000  Uiso   1.00
N530   N     0.18840   0.18110   0.76458   0.00000  Uiso   1.00
O531   O     0.29769   0.24629   0.75358   0.00000  Uiso   1.00
O532   O     0.05742   0.23704   0.74424   0.00000  Uiso   1.00
O533   O     0.31490   0.17358   0.83380   0.00000  Uiso   1.00
O534   O     0.07463   0.16433   0.82446   0.00000  Uiso   1.00
O535   O     0.27592   0.09629   0.75577   0.00000  Uiso   1.00
O536   O     0.03565   0.08704   0.74642   0.00000  Uiso   1.00
O537   O     0.25870   0.16901   0.67554   0.00000  Uiso   1.00
O538   O     0.01843   0.15976   0.66620   0.00000  Uiso   1.00
Zn539  Zn    0.27119   0.17284   0.75624   0.00000  Uiso   1.00
Zn540  Zn    0.06214   0.16049   0.74377   0.00000  Uiso   1.00
C541   C     0.34836   0.26488   0.74934   0.00000  Uiso   1.00
C542   C     0.39956   0.20857   0.90482   0.00000  Uiso   1.00
C543   C     0.35670   0.31944   0.75009   0.00000  Uiso   1.00
C544   C     0.37239   0.18018   0.85224   0.00000  Uiso   1.00
C545   C     0.64597   0.01422   0.75652   0.00000  Uiso   1.00
C546   C     0.65249   0.06858   0.75283   0.00000  Uiso   1.00
C547   C     0.62982   0.16646   0.64601   0.00000  Uiso   1.00
C548   C     0.62398   0.15666   0.99917   0.00000  Uiso   1.00
C549   C     0.61013   0.17413   0.58820   0.00000  Uiso   1.00
C550   C     0.36460   0.23653   0.93131   0.00000  Uiso   1.00
C551   C     0.38995   0.26274   0.98087   0.00000  Uiso   1.00
C552   C     0.48430   0.22553   0.98316   0.00000  Uiso   1.00
C553   C     0.44903   0.25741   0.50663   0.00000  Uiso   1.00
C554   C     0.53915   0.23747   0.60495   0.00000  Uiso   1.00
C555   C     0.48834   0.21998   0.62144   0.00000  Uiso   1.00
C556   C     0.46174   0.25425   0.65010   0.00000  Uiso   1.00
C557   C     0.48666   0.30517   0.66421   0.00000  Uiso   1.00
C558   C     0.53818   0.32212   0.64928   0.00000  Uiso   1.00
C559   C     0.56493   0.28823   0.62030   0.00000  Uiso   1.00
C560   C     0.46149   0.21094   0.92789   0.00000  Uiso   1.00
C561   C     0.54045   0.20668   0.50995   0.00000  Uiso   1.00
C562   C     0.57351   0.18220   0.97692   0.00000  Uiso   1.00
C563   C     0.55582   0.18331   0.92109   0.00000  Uiso   1.00
C564   C     0.50216   0.20100   0.89736   0.00000  Uiso   1.00
C565   C     0.56230   0.20502   0.56711   0.00000  Uiso   1.00
C566   C     0.64118   0.15141   0.55426   0.00000  Uiso   1.00
H567   H     0.34554   0.12909   0.57040   0.00000  Uiso   1.00
H568   H     0.49354   0.20766   0.85520   0.00000  Uiso   1.00
H569   H     0.39840   0.00296   0.74423   0.00000  Uiso   1.00
H570   H     0.46760   0.18116   0.60924   0.00000  Uiso   1.00
H571   H     0.42060   0.24190   0.65935   0.00000  Uiso   1.00
H572   H     0.46552   0.33183   0.68576   0.00000  Uiso   1.00
H573   H     0.55664   0.02857   0.65909   0.00000  Uiso   1.00
H574   H     0.60400   0.30218   0.60767   0.00000  Uiso   1.00
H575   H     0.60453   0.33073   0.76311   0.00000  Uiso   1.00
H576   H     0.49073   0.12085   0.71592   0.00000  Uiso   1.00
H577   H     0.50946   0.21560   0.77821   0.00000  Uiso   1.00
H578   H     0.58240   0.16867   0.89551   0.00000  Uiso   1.00
H579   H     0.64879   0.13862   0.97357   0.00000  Uiso   1.00
H580   H     0.65207   0.24096   0.91220   0.00000  Uiso   1.00
H581   H     0.46636   0.28217   0.54217   0.00000  Uiso   1.00
H582   H     0.36368   0.28717   0.99955   0.00000  Uiso   1.00
N583   N     0.47827   0.15223   0.73543   0.00000  Uiso   1.00
N584   N     0.52173   0.18110   0.76458   0.00000  Uiso   1.00
O585   O     0.63102   0.24629   0.75358   0.00000  Uiso   1.00
O586   O     0.39075   0.23704   0.74424   0.00000  Uiso   1.00
O587   O     0.64823   0.17358   0.83380   0.00000  Uiso   1.00
O588   O     0.40796   0.16433   0.82446   0.00000  Uiso   1.00
O589   O     0.60925   0.09629   0.75577   0.00000  Uiso   1.00
O590   O     0.36898   0.08704   0.74642   0.00000  Uiso   1.00
O591   O     0.59204   0.16901   0.67554   0.00000  Uiso   1.00
O592   O     0.35177   0.15976   0.66620   0.00000  Uiso   1.00
Zn593  Zn    0.60453   0.17284   0.75624   0.00000  Uiso   1.00
Zn594  Zn    0.39547   0.16049   0.74377   0.00000  Uiso   1.00
C595   C     0.68169   0.26488   0.74934   0.00000  Uiso   1.00
C596   C     0.73289   0.20857   0.90482   0.00000  Uiso   1.00
C597   C     0.69004   0.31944   0.75009   0.00000  Uiso   1.00
C598   C     0.70573   0.18018   0.85224   0.00000  Uiso   1.00
C599   C     0.97930   0.01422   0.75652   0.00000  Uiso   1.00
C600   C     0.98582   0.06858   0.75283   0.00000  Uiso   1.00
C601   C     0.96315   0.16646   0.64601   0.00000  Uiso   1.00
C602   C     0.95731   0.15666   0.99917   0.00000  Uiso   1.00
C603   C     0.94347   0.17413   0.58820   0.00000  Uiso   1.00
C604   C     0.69794   0.23653   0.93131   0.00000  Uiso   1.00
C605   C     0.72328   0.26274   0.98087   0.00000  Uiso   1.00
C606   C     0.81763   0.22553   0.98316   0.00000  Uiso   1.00
C607   C     0.78237   0.25741   0.50663   0.00000  Uiso   1.00
C608   C     0.87249   0.23747   0.60495   0.00000  Uiso   1.00
C609   C     0.82167   0.21998   0.62144   0.00000  Uiso   1.00
C610   C     0.79508   0.25425   0.65010   0.00000  Uiso   1.00
C611   C     0.81999   0.30517   0.66421   0.00000  Uiso   1.00
C612   C     0.87152   0.32212   0.64928   0.00000  Uiso   1.00
C613   C     0.89827   0.28823   0.62030   0.00000  Uiso   1.00
C614   C     0.79482   0.21094   0.92789   0.00000  Uiso   1.00
C615   C     0.87378   0.20668   0.50995   0.00000  Uiso   1.00
C616   C     0.90684   0.18220   0.97692   0.00000  Uiso   1.00
C617   C     0.88916   0.18331   0.92109   0.00000  Uiso   1.00
C618   C     0.83549   0.20100   0.89736   0.00000  Uiso   1.00
C619   C     0.89563   0.20502   0.56711   0.00000  Uiso   1.00
C620   C     0.97452   0.15141   0.55426   0.00000  Uiso   1.00
H621   H     0.67887   0.12909   0.57040   0.00000  Uiso   1.00
H622   H     0.82687   0.20766   0.85520   0.00000  Uiso   1.00
H623   H     0.73173   0.00296   0.74423   0.00000  Uiso   1.00
H624   H     0.80094   0.18116   0.60924   0.00000  Uiso   1.00
H625   H     0.75393   0.24190   0.65935   0.00000  Uiso   1.00
H626   H     0.79885   0.33183   0.68576   0.00000  Uiso   1.00
H627   H     0.88997   0.02857   0.65909   0.00000  Uiso   1.00
H628   H     0.93733   0.30218   0.60767   0.00000  Uiso   1.00
H629   H     0.93787   0.33073   0.76311   0.00000  Uiso   1.00
H630   H     0.82406   0.12085   0.71592   0.00000  Uiso   1.00
H631   H     0.84279   0.21560   0.77821   0.00000  Uiso   1.00
H632   H     0.91573   0.16867   0.89551   0.00000  Uiso   1.00
H633   H     0.98212   0.13862   0.97357   0.00000  Uiso   1.00
H634   H     0.98540   0.24096   0.91220   0.00000  Uiso   1.00
H635   H     0.79969   0.28217   0.54217   0.00000  Uiso   1.00
H636   H     0.69701   0.28717   0.99955   0.00000  Uiso   1.00
N637   N     0.81160   0.15223   0.73543   0.00000  Uiso   1.00
N638   N     0.85507   0.18110   0.76458   0.00000  Uiso   1.00
O639   O     0.96435   0.24629   0.75358   0.00000  Uiso   1.00
O640   O     0.72408   0.23704   0.74424   0.00000  Uiso   1.00
O641   O     0.98157   0.17358   0.83380   0.00000  Uiso   1.00
O642   O     0.74130   0.16433   0.82446   0.00000  Uiso   1.00
O643   O     0.94258   0.09629   0.75577   0.00000  Uiso   1.00
O644   O     0.70231   0.08704   0.74642   0.00000  Uiso   1.00
O645   O     0.92537   0.16901   0.67554   0.00000  Uiso   1.00
O646   O     0.68510   0.15976   0.66620   0.00000  Uiso   1.00
Zn647  Zn    0.93786   0.17284   0.75624   0.00000  Uiso   1.00
Zn648  Zn    0.72881   0.16049   0.74377   0.00000  Uiso   1.00
C649   C     0.01503   0.59821   0.74934   0.00000  Uiso   1.00
C650   C     0.06622   0.54190   0.90482   0.00000  Uiso   1.00
C651   C     0.02337   0.65278   0.75009   0.00000  Uiso   1.00
C652   C     0.03906   0.51351   0.85224   0.00000  Uiso   1.00
C653   C     0.31263   0.34756   0.75652   0.00000  Uiso   1.00
C654   C     0.31916   0.40191   0.75283   0.00000  Uiso   1.00
C655   C     0.29648   0.49979   0.64601   0.00000  Uiso   1.00
C656   C     0.29065   0.48999   0.99917   0.00000  Uiso   1.00
C657   C     0.27680   0.50746   0.58820   0.00000  Uiso   1.00
C658   C     0.03127   0.56986   0.93131   0.00000  Uiso   1.00
C659   C     0.05661   0.59607   0.98087   0.00000  Uiso   1.00
C660   C     0.15096   0.55886   0.98316   0.00000  Uiso   1.00
C661   C     0.11570   0.59074   0.50663   0.00000  Uiso   1.00
C662   C     0.20582   0.57080   0.60495   0.00000  Uiso   1.00
C663   C     0.15500   0.55331   0.62144   0.00000  Uiso   1.00
C664   C     0.12841   0.58758   0.65010   0.00000  Uiso   1.00
C665   C     0.15332   0.63850   0.66421   0.00000  Uiso   1.00
C666   C     0.20485   0.65545   0.64928   0.00000  Uiso   1.00
C667   C     0.23160   0.62156   0.62030   0.00000  Uiso   1.00
C668   C     0.12815   0.54427   0.92789   0.00000  Uiso   1.00
C669   C     0.20711   0.54001   0.50995   0.00000  Uiso   1.00
C670   C     0.24017   0.51553   0.97692   0.00000  Uiso   1.00
C671   C     0.22249   0.51665   0.92109   0.00000  Uiso   1.00
C672   C     0.16883   0.53434   0.89736   0.00000  Uiso   1.00
C673   C     0.22897   0.53835   0.56711   0.00000  Uiso   1.00
C674   C     0.30785   0.48474   0.55426   0.00000  Uiso   1.00
H675   H     0.01220   0.46242   0.57040   0.00000  Uiso   1.00
H676   H     0.16020   0.54099   0.85520   0.00000  Uiso   1.00
H677   H     0.06506   0.33629   0.74423   0.00000  Uiso   1.00
H678   H     0.13427   0.51449   0.60924   0.00000  Uiso   1.00
H679   H     0.08726   0.57523   0.65935   0.00000  Uiso   1.00
H680   H     0.13219   0.66516   0.68576   0.00000  Uiso   1.00
H681   H     0.22330   0.36191   0.65909   0.00000  Uiso   1.00
H682   H     0.27067   0.63551   0.60767   0.00000  Uiso   1.00
H683   H     0.27120   0.66407   0.76311   0.00000  Uiso   1.00
H684   H     0.15739   0.45418   0.71592   0.00000  Uiso   1.00
H685   H     0.17612   0.54893   0.77821   0.00000  Uiso   1.00
H686   H     0.24907   0.50200   0.89551   0.00000  Uiso   1.00
H687   H     0.31545   0.47196   0.97357   0.00000  Uiso   1.00
H688   H     0.31874   0.57429   0.91220   0.00000  Uiso   1.00
H689   H     0.13303   0.61550   0.54217   0.00000  Uiso   1.00
H690   H     0.03034   0.62050   0.99955   0.00000  Uiso   1.00
N691   N     0.14493   0.48556   0.73543   0.00000  Uiso   1.00
N692   N     0.18840   0.51444   0.76458   0.00000  Uiso   1.00
O693   O     0.29769   0.57963   0.75358   0.00000  Uiso   1.00
O694   O     0.05742   0.57038   0.74424   0.00000  Uiso   1.00
O695   O     0.31490   0.50691   0.83380   0.00000  Uiso   1.00
O696   O     0.07463   0.49766   0.82446   0.00000  Uiso   1.00
O697   O     0.27592   0.42962   0.75577   0.00000  Uiso   1.00
O698   O     0.03565   0.42037   0.74642   0.00000  Uiso   1.00
O699   O     0.25870   0.50234   0.67554   0.00000  Uiso   1.00
O700   O     0.01843   0.49309   0.66620   0.00000  Uiso   1.00
Zn701  Zn    0.27119   0.50618   0.75624   0.00000  Uiso   1.00
Zn702  Zn    0.06214   0.49382   0.74377   0.00000  Uiso   1.00
C703   C     0.34836   0.59821   0.74934   0.00000  Uiso   1.00
C704   C     0.39956   0.54190   0.90482   0.00000  Uiso   1.00
C705   C     0.35670   0.65278   0.75009   0.00000  Uiso   1.00
C706   C     0.37239   0.51351   0.85224   0.00000  Uiso   1.00
C707   C     0.64597   0.34756   0.75652   0.00000  Uiso   1.00
C708   C     0.65249   0.40191   0.75283   0.00000  Uiso   1.00
C709   C     0.62982   0.49979   0.64601   0.00000  Uiso   1.00
C710   C     0.62398   0.48999   0.99917   0.00000  Uiso   1.00
C711   C     0.61013   0.50746   0.58820   0.00000  Uiso   1.00
C712   C     0.36460   0.56986   0.93131   0.00000  Uiso   1.00
C713   C     0.38995   0.59607   0.98087   0.00000  Uiso   1.00
C714   C     0.48430   0.55886   0.98316   0.00000  Uiso   1.00
C715   C     0.44903   0.59074   0.50663   0.00000  Uiso   1.00
C716   C     0.53915   0.57080   0.60495   0.00000  Uiso   1.00
C717   C     0.48834   0.55331   0.62144   0.00000  Uiso   1.00
C718   C     0.46174   0.58758   0.65010   0.00000  Uiso   1.00
C719   C     0.48666   0.63850   0.66421   0.00000  Uiso   1.00
C720   C     0.53818   0.65545   0.64928   0.00000  Uiso   1.00
C721   C     0.56493   0.62156   0.62030   0.00000  Uiso   1.00
C722   C     0.46149   0.54427   0.92789   0.00000  Uiso   1.00
C723   C     0.54045   0.54001   0.50995   0.00000  Uiso   1.00
C724   C     0.57351   0.51553   0.97692   0.00000  Uiso   1.00
C725   C     0.55582   0.51665   0.92109   0.00000  Uiso   1.00
C726   C     0.50216   0.53434   0.89736   0.00000  Uiso   1.00
C727   C     0.56230   0.53835   0.56711   0.00000  Uiso   1.00
C728   C     0.64118   0.48474   0.55426   0.00000  Uiso   1.00
H729   H     0.34554   0.46242   0.57040   0.00000  Uiso   1.00
H730   H     0.49354   0.54099   0.85520   0.00000  Uiso   1.00
H731   H     0.39840   0.33629   0.74423   0.00000  Uiso   1.00
H732   H     0.46760   0.51449   0.60924   0.00000  Uiso   1.00
H733   H     0.42060   0.57523   0.65935   0.00000  Uiso   1.00
H734   H     0.46552   0.66516   0.68576   0.00000  Uiso   1.00
H735   H     0.55664   0.36191   0.65909   0.00000  Uiso   1.00
H736   H     0.60400   0.63551   0.60767   0.00000  Uiso   1.00
H737   H     0.60453   0.66407   0.76311   0.00000  Uiso   1.00
H738   H     0.49073   0.45418   0.71592   0.00000  Uiso   1.00
H739   H     0.50946   0.54893   0.77821   0.00000  Uiso   1.00
H740   H     0.58240   0.50200   0.89551   0.00000  Uiso   1.00
H741   H     0.64879   0.47196   0.97357   0.00000  Uiso   1.00
H742   H     0.65207   0.57429   0.91220   0.00000  Uiso   1.00
H743   H     0.46636   0.61550   0.54217   0.00000  Uiso   1.00
H744   H     0.36368   0.62050   0.99955   0.00000  Uiso   1.00
N745   N     0.47827   0.48556   0.73543   0.00000  Uiso   1.00
N746   N     0.52173   0.51444   0.76458   0.00000  Uiso   1.00
O747   O     0.63102   0.57963   0.75358   0.00000  Uiso   1.00
O748   O     0.39075   0.57038   0.74424   0.00000  Uiso   1.00
O749   O     0.64823   0.50691   0.83380   0.00000  Uiso   1.00
O750   O     0.40796   0.49766   0.82446   0.00000  Uiso   1.00
O751   O     0.60925   0.42962   0.75577   0.00000  Uiso   1.00
O752   O     0.36898   0.42037   0.74642   0.00000  Uiso   1.00
O753   O     0.59204   0.50234   0.67554   0.00000  Uiso   1.00
O754   O     0.35177   0.49309   0.66620   0.00000  Uiso   1.00
Zn755  Zn    0.60453   0.50618   0.75624   0.00000  Uiso   1.00
Zn756  Zn    0.39547   0.49382   0.74377   0.00000  Uiso   1.00
C757   C     0.68169   0.59821   0.74934   0.00000  Uiso   1.00
C758   C     0.73289   0.54190   0.90482   0.00000  Uiso   1.00
C759   C     0.69004   0.65278   0.75009   0.00000  Uiso   1.00
C760   C     0.70573   0.51351   0.85224   0.00000  Uiso   1.00
C761   C     0.97930   0.34756   0.75652   0.00000  Uiso   1.00
C762   C     0.98582   0.40191   0.75283   0.00000  Uiso   1.00
C763   C     0.96315   0.49979   0.64601   0.00000  Uiso   1.00
C764   C     0.95731   0.48999   0.99917   0.00000  Uiso   1.00
C765   C     0.94347   0.50746   0.58820   0.00000  Uiso   1.00
C766   C     0.69794   0.56986   0.93131   0.00000  Uiso   1.00
C767   C     0.72328   0.59607   0.98087   0.00000  Uiso   1.00
C768   C     0.81763   0.55886   0.98316   0.00000  Uiso   1.00
C769   C     0.78237   0.59074   0.50663   0.00000  Uiso   1.00
C770   C     0.87249   0.57080   0.60495   0.00000  Uiso   1.00
C771   C     0.82167   0.55331   0.62144   0.00000  Uiso   1.00
C772   C     0.79508   0.58758   0.65010   0.00000  Uiso   1.00
C773   C     0.81999   0.63850   0.66421   0.00000  Uiso   1.00
C774   C     0.87152   0.65545   0.64928   0.00000  Uiso   1.00
C775   C     0.89827   0.62156   0.62030   0.00000  Uiso   1.00
C776   C     0.79482   0.54427   0.92789   0.00000  Uiso   1.00
C777   C     0.87378   0.54001   0.50995   0.00000  Uiso   1.00
C778   C     0.90684   0.51553   0.97692   0.00000  Uiso   1.00
C779   C     0.88916   0.51665   0.92109   0.00000  Uiso   1.00
C780   C     0.83549   0.53434   0.89736   0.00000  Uiso   1.00
C781   C     0.89563   0.53835   0.56711   0.00000  Uiso   1.00
C782   C     0.97452   0.48474   0.55426   0.00000  Uiso   1.00
H783   H     0.67887   0.46242   0.57040   0.00000  Uiso   1.00
H784   H     0.82687   0.54099   0.85520   0.00000  Uiso   1.00
H785   H     0.73173   0.33629   0.74423   0.00000  Uiso   1.00
H786   H     0.80094   0.51449   0.60924   0.00000  Uiso   1.00
H787   H     0.75393   0.57523   0.65935   0.00000  Uiso   1.00
H788   H     0.79885   0.66516   0.68576   0.00000  Uiso   1.00
H789   H     0.88997   0.36191   0.65909   0.00000  Uiso   1.00
H790   H     0.93733   0.63551   0.60767   0.00000  Uiso   1.00
H791   H     0.93787   0.66407   0.76311   0.00000  Uiso   1.00
H792   H     0.82406   0.45418   0.71592   0.00000  Uiso   1.00
H793   H     0.84279   0.54893   0.77821   0.00000  Uiso   1.00
H794   H     0.91573   0.50200   0.89551   0.00000  Uiso   1.00
H795   H     0.98212   0.47196   0.97357   0.00000  Uiso   1.00
H796   H     0.98540   0.57429   0.91220   0.00000  Uiso   1.00
H797   H     0.79969   0.61550   0.54217   0.00000  Uiso   1.00
H798   H     0.69701   0.62050   0.99955   0.00000  Uiso   1.00
N799   N     0.81160   0.48556   0.73543   0.00000  Uiso   1.00
N800   N     0.85507   0.51444   0.76458   0.00000  Uiso   1.00
O801   O     0.96435   0.57963   0.75358   0.00000  Uiso   1.00
O802   O     0.72408   0.57038   0.74424   0.00000  Uiso   1.00
O803   O     0.98157   0.50691   0.83380   0.00000  Uiso   1.00
O804   O     0.74130   0.49766   0.82446   0.00000  Uiso   1.00
O805   O     0.94258   0.42962   0.75577   0.00000  Uiso   1.00
O806   O     0.70231   0.42037   0.74642   0.00000  Uiso   1.00
O807   O     0.92537   0.50234   0.67554   0.00000  Uiso   1.00
O808   O     0.68510   0.49309   0.66620   0.00000  Uiso   1.00
Zn809  Zn    0.93786   0.50618   0.75624   0.00000  Uiso   1.00
Zn810  Zn    0.72881   0.49382   0.74377   0.00000  Uiso   1.00
C811   C     0.01503   0.93155   0.74934   0.00000  Uiso   1.00
C812   C     0.06622   0.87523   0.90482   0.00000  Uiso   1.00
C813   C     0.02337   0.98611   0.75009   0.00000  Uiso   1.00
C814   C     0.03906   0.84684   0.85224   0.00000  Uiso   1.00
C815   C     0.31263   0.68089   0.75652   0.00000  Uiso   1.00
C816   C     0.31916   0.73525   0.75283   0.00000  Uiso   1.00
C817   C     0.29648   0.83313   0.64601   0.00000  Uiso   1.00
C818   C     0.29065   0.82332   0.99917   0.00000  Uiso   1.00
C819   C     0.27680   0.84080   0.58820   0.00000  Uiso   1.00
C820   C     0.03127   0.90320   0.93131   0.00000  Uiso   1.00
C821   C     0.05661   0.92940   0.98087   0.00000  Uiso   1.00
C822   C     0.15096   0.89219   0.98316   0.00000  Uiso   1.00
C823   C     0.11570   0.92407   0.50663   0.00000  Uiso   1.00
C824   C     0.20582   0.90413   0.60495   0.00000  Uiso   1.00
C825   C     0.15500   0.88664   0.62144   0.00000  Uiso   1.00
C826   C     0.12841   0.92091   0.65010   0.00000  Uiso   1.00
C827   C     0.15332   0.97183   0.66421   0.00000  Uiso   1.00
C828   C     0.20485   0.98879   0.64928   0.00000  Uiso   1.00
C829   C     0.23160   0.95489   0.62030   0.00000  Uiso   1.00
C830   C     0.12815   0.87761   0.92789   0.00000  Uiso   1.00
C831   C     0.20711   0.87334   0.50995   0.00000  Uiso   1.00
C832   C     0.24017   0.84887   0.97692   0.00000  Uiso   1.00
C833   C     0.22249   0.84998   0.92109   0.00000  Uiso   1.00
C834   C     0.16883   0.86767   0.89736   0.00000  Uiso   1.00
C835   C     0.22897   0.87169   0.56711   0.00000  Uiso   1.00
C836   C     0.30785   0.81807   0.55426   0.00000  Uiso   1.00
H837   H     0.01220   0.79576   0.57040   0.00000  Uiso   1.00
H838   H     0.16020   0.87433   0.85520   0.00000  Uiso   1.00
H839   H     0.06506   0.66963   0.74423   0.00000  Uiso   1.00
H840   H     0.13427   0.84783   0.60924   0.00000  Uiso   1.00
H841   H     0.08726   0.90856   0.65935   0.00000  Uiso   1.00
H842   H     0.13219   0.99849   0.68576   0.00000  Uiso   1.00
H843   H     0.22330   0.69524   0.65909   0.00000  Uiso   1.00
H844   H     0.27067   0.96885   0.60767   0.00000  Uiso   1.00
H845   H     0.27120   0.99740   0.76311   0.00000  Uiso   1.00
H846   H     0.15739   0.78752   0.71592   0.00000  Uiso   1.00
H847   H     0.17612   0.88227   0.77821   0.00000  Uiso   1.00
H848   H     0.24907   0.83533   0.89551   0.00000  Uiso   1.00
H849   H     0.31545   0.80529   0.97357   0.00000  Uiso   1.00
H850   H     0.31874   0.90763   0.91220   0.00000  Uiso   1.00
H851   H     0.13303   0.94884   0.54217   0.00000  Uiso   1.00
H852   H     0.03034   0.95384   0.99955   0.00000  Uiso   1.00
N853   N     0.14493   0.81890   0.73543   0.00000  Uiso   1.00
N854   N     0.18840   0.84777   0.76458   0.00000  Uiso   1.00
O855   O     0.29769   0.91296   0.75358   0.00000  Uiso   1.00
O856   O     0.05742   0.90371   0.74424   0.00000  Uiso   1.00
O857   O     0.31490   0.84024   0.83380   0.00000  Uiso   1.00
O858   O     0.07463   0.83099   0.82446   0.00000  Uiso   1.00
O859   O     0.27592   0.76296   0.75577   0.00000  Uiso   1.00
O860   O     0.03565   0.75371   0.74642   0.00000  Uiso   1.00
O861   O     0.25870   0.83567   0.67554   0.00000  Uiso   1.00
O862   O     0.01843   0.82642   0.66620   0.00000  Uiso   1.00
Zn863  Zn    0.27119   0.83951   0.75624   0.00000  Uiso   1.00
Zn864  Zn    0.06214   0.82716   0.74377   0.00000  Uiso   1.00
C865   C     0.34836   0.93155   0.74934   0.00000  Uiso   1.00
C866   C     0.39956   0.87523   0.90482   0.00000  Uiso   1.00
C867   C     0.35670   0.98611   0.75009   0.00000  Uiso   1.00
C868   C     0.37239   0.84684   0.85224   0.00000  Uiso   1.00
C869   C     0.64597   0.68089   0.75652   0.00000  Uiso   1.00
C870   C     0.65249   0.73525   0.75283   0.00000  Uiso   1.00
C871   C     0.62982   0.83313   0.64601   0.00000  Uiso   1.00
C872   C     0.62398   0.82332   0.99917   0.00000  Uiso   1.00
C873   C     0.61013   0.84080   0.58820   0.00000  Uiso   1.00
C874   C     0.36460   0.90320   0.93131   0.00000  Uiso   1.00
C875   C     0.38995   0.92940   0.98087   0.00000  Uiso   1.00
C876   C     0.48430   0.89219   0.98316   0.00000  Uiso   1.00
C877   C     0.44903   0.92407   0.50663   0.00000  Uiso   1.00
C878   C     0.53915   0.90413   0.60495   0.00000  Uiso   1.00
C879   C     0.48834   0.88664   0.62144   0.00000  Uiso   1.00
C880   C     0.46174   0.92091   0.65010   0.00000  Uiso   1.00
C881   C     0.48666   0.97183   0.66421   0.00000  Uiso   1.00
C882   C     0.53818   0.98879   0.64928   0.00000  Uiso   1.00
C883   C     0.56493   0.95489   0.62030   0.00000  Uiso   1.00
C884   C     0.46149   0.87761   0.92789   0.00000  Uiso   1.00
C885   C     0.54045   0.87334   0.50995   0.00000  Uiso   1.00
C886   C     0.57351   0.84887   0.97692   0.00000  Uiso   1.00
C887   C     0.55582   0.84998   0.92109   0.00000  Uiso   1.00
C888   C     0.50216   0.86767   0.89736   0.00000  Uiso   1.00
C889   C     0.56230   0.87169   0.56711   0.00000  Uiso   1.00
C890   C     0.64118   0.81807   0.55426   0.00000  Uiso   1.00
H891   H     0.34554   0.79576   0.57040   0.00000  Uiso   1.00
H892   H     0.49354   0.87433   0.85520   0.00000  Uiso   1.00
H893   H     0.39840   0.66963   0.74423   0.00000  Uiso   1.00
H894   H     0.46760   0.84783   0.60924   0.00000  Uiso   1.00
H895   H     0.42060   0.90856   0.65935   0.00000  Uiso   1.00
H896   H     0.46552   0.99849   0.68576   0.00000  Uiso   1.00
H897   H     0.55664   0.69524   0.65909   0.00000  Uiso   1.00
H898   H     0.60400   0.96885   0.60767   0.00000  Uiso   1.00
H899   H     0.60453   0.99740   0.76311   0.00000  Uiso   1.00
H900   H     0.49073   0.78752   0.71592   0.00000  Uiso   1.00
H901   H     0.50946   0.88227   0.77821   0.00000  Uiso   1.00
H902   H     0.58240   0.83533   0.89551   0.00000  Uiso   1.00
H903   H     0.64879   0.80529   0.97357   0.00000  Uiso   1.00
H904   H     0.65207   0.90763   0.91220   0.00000  Uiso   1.00
H905   H     0.46636   0.94884   0.54217   0.00000  Uiso   1.00
H906   H     0.36368   0.95384   0.99955   0.00000  Uiso   1.00
N907   N     0.47827   0.81890   0.73543   0.00000  Uiso   1.00
N908   N     0.52173   0.84777   0.76458   0.00000  Uiso   1.00
O909   O     0.63102   0.91296   0.75358   0.00000  Uiso   1.00
O910   O     0.39075   0.90371   0.74424   0.00000  Uiso   1.00
O911   O     0.64823   0.84024   0.83380   0.00000  Uiso   1.00
O912   O     0.40796   0.83099   0.82446   0.00000  Uiso   1.00
O913   O     0.60925   0.76296   0.75577   0.00000  Uiso   1.00
O914   O     0.36898   0.75371   0.74642   0.00000  Uiso   1.00
O915   O     0.59204   0.83567   0.67554   0.00000  Uiso   1.00
O916   O     0.35177   0.82642   0.66620   0.00000  Uiso   1.00
Zn917  Zn    0.60453   0.83951   0.75624   0.00000  Uiso   1.00
Zn918  Zn    0.39547   0.82716   0.74377   0.00000  Uiso   1.00
C919   C     0.68169   0.93155   0.74934   0.00000  Uiso   1.00
C920   C     0.73289   0.87523   0.90482   0.00000  Uiso   1.00
C921   C     0.69004   0.98611   0.75009   0.00000  Uiso   1.00
C922   C     0.70573   0.84684   0.85224   0.00000  Uiso   1.00
C923   C     0.97930   0.68089   0.75652   0.00000  Uiso   1.00
C924   C     0.98582   0.73525   0.75283   0.00000  Uiso   1.00
C925   C     0.96315   0.83313   0.64601   0.00000  Uiso   1.00
C926   C     0.95731   0.82332   0.99917   0.00000  Uiso   1.00
C927   C     0.94347   0.84080   0.58820   0.00000  Uiso   1.00
C928   C     0.69794   0.90320   0.93131   0.00000  Uiso   1.00
C929   C     0.72328   0.92940   0.98087   0.00000  Uiso   1.00
C930   C     0.81763   0.89219   0.98316   0.00000  Uiso   1.00
C931   C     0.78237   0.92407   0.50663   0.00000  Uiso   1.00
C932   C     0.87249   0.90413   0.60495   0.00000  Uiso   1.00
C933   C     0.82167   0.88664   0.62144   0.00000  Uiso   1.00
C934   C     0.79508   0.92091   0.65010   0.00000  Uiso   1.00
C935   C     0.81999   0.97183   0.66421   0.00000  Uiso   1.00
C936   C     0.87152   0.98879   0.64928   0.00000  Uiso   1.00
C937   C     0.89827   0.95489   0.62030   0.00000  Uiso   1.00
C938   C     0.79482   0.87761   0.92789   0.00000  Uiso   1.00
C939   C     0.87378   0.87334   0.50995   0.00000  Uiso   1.00
C940   C     0.90684   0.84887   0.97692   0.00000  Uiso   1.00
C941   C     0.88916   0.84998   0.92109   0.00000  Uiso   1.00
C942   C     0.83549   0.86767   0.89736   0.00000  Uiso   1.00
C943   C     0.89563   0.87169   0.56711   0.00000  Uiso   1.00
C944   C     0.97452   0.81807   0.55426   0.00000  Uiso   1.00
H945   H     0.67887   0.79576   0.57040   0.00000  Uiso   1.00
H946   H     0.82687   0.87433   0.85520   0.00000  Uiso   1.00
H947   H     0.73173   0.66963   0.74423   0.00000  Uiso   1.00
H948   H     0.80094   0.84783   0.60924   0.00000  Uiso   1.00
H949   H     0.75393   0.90856   0.65935   0.00000  Uiso   1.00
H950   H     0.79885   0.99849   0.68576   0.00000  Uiso   1.00
H951   H     0.88997   0.69524   0.65909   0.00000  Uiso   1.00
H952   H     0.93733   0.96885   0.60767   0.00000  Uiso   1.00
H953   H     0.93787   0.99740   0.76311   0.00000  Uiso   1.00
H954   H     0.82406   0.78752   0.71592   0.00000  Uiso   1.00
H955   H     0.84279   0.88227   0.77821   0.00000  Uiso   1.00
H956   H     0.91573   0.83533   0.89551   0.00000  Uiso   1.00
H957   H     0.98212   0.80529   0.97357   0.00000  Uiso   1.00
H958   H     0.98540   0.90763   0.91220   0.00000  Uiso   1.00
H959   H     0.79969   0.94884   0.54217   0.00000  Uiso   1.00
H960   H     0.69701   0.95384   0.99955   0.00000  Uiso   1.00
N961   N     0.81160   0.81890   0.73543   0.00000  Uiso   1.00
N962   N     0.85507   0.84777   0.76458   0.00000  Uiso   1.00
O963   O     0.96435   0.91296   0.75358   0.00000  Uiso   1.00
O964   O     0.72408   0.90371   0.74424   0.00000  Uiso   1.00
O965   O     0.98157   0.84024   0.83380   0.00000  Uiso   1.00
O966   O     0.74130   0.83099   0.82446   0.00000  Uiso   1.00
O967   O     0.94258   0.76296   0.75577   0.00000  Uiso   1.00
O968   O     0.70231   0.75371   0.74642   0.00000  Uiso   1.00
O969   O     0.92537   0.83567   0.67554   0.00000  Uiso   1.00
O970   O     0.68510   0.82642   0.66620   0.00000  Uiso   1.00
Zn971  Zn    0.93786   0.83951   0.75624   0.00000  Uiso   1.00
Zn972  Zn    0.72881   0.82716   0.74377   0.00000  Uiso   1.00
loop_
_geom_bond_atom_site_label_1
_geom_bond_atom_site_label_2
_geom_bond_distance
_geom_bond_site_symmetry_2
_ccdc_geom_bond_type
C1     O46     1.288   .     A
C1     C3      1.402   .     S
C1     O153    1.279   1_455 S
C2     C4      1.481   .     S
C2     C10     1.398   .     A
C2     C20     1.421   .     A
C3     C275    1.335   1_455 S
C3     H191    1.086   .     S
C4     O48     1.292   .     A
C4     O155    1.310   1_455 S
C5     C6      1.403   .     S
C5     C381    1.335   1_545 S
C5     H359    1.088   1_545 S
C6     O49     1.289   .     A
C6     O104    1.279   .     S
C7     O51     1.295   .     A
C7     C9      1.451   .     S
C7     O106    1.294   .     S
C8     H39     1.085   .     S
C8     C22     1.392   .     A
C8     C512    1.372   .     S
C9     C25     1.419   .     A
C9     C26     1.395   .     A
C10    C11     1.389   .     A
C10    H148    1.079   1_455 S
C11    H42     1.083   .     S
C11    C499    1.395   .     S
C12    C20     1.406   .     A
C12    C499    1.417   .     S
C12    C507    1.444   .     S
C13    H41     1.068   .     S
C13    C497    1.395   1_554 S
C13    C498    1.417   1_554 S
C14    C25     1.477   .     S
C14    C15     1.405   .     A
C14    C19     1.405   .     A
C15    C16     1.396   .     A
C15    H30     1.083   .     S
C16    H31     1.076   .     S
C16    C17     1.398   .     A
C17    C18     1.396   .     A
C17    H32     1.081   .     S
C18    C19     1.397   .     A
C18    H195    1.082   .     S
C19    H34     1.083   .     S
C20    C24     1.397   .     A
C21    C25     1.420   .     A
C21    C498    1.444   1_554 S
C21    C508    1.431   1_554 S
C22    C23     1.379   .     A
C22    C507    1.431   .     S
C23    H38     1.079   .     S
C23    C24     1.365   .     A
C24    H28     1.061   .     S
C26    C494    1.372   1_554 S
C26    H81     1.084   .     S
H27    C134    1.084   1_455 S
H29    C327    1.086   1_545 S
H33    C342    1.082   1_545 S
H35    C167    1.088   .     S
H36    N43     1.029   .     S
H37    N44     1.026   .     S
H40    C64     1.079   .     S
N43    N44     1.280   .     D
N43    Zn54    2.023   .     S
N44    Zn53    2.023   .     S
O45    Zn53    1.956   .     S
O45    C55     1.279   .     S
O46    Zn54    1.977   .     S
O47    Zn53    1.985   .     S
O47    C58     1.310   .     S
O48    Zn54    1.998   .     S
O49    Zn53    1.977   .     S
O50    Zn54    1.956   .     S
O50    C114    1.279   1_455 S
O51    Zn53    1.998   .     S
O52    Zn54    1.985   .     S
O52    C115    1.294   1_455 S
C55    O100    1.288   .     A
C55    C57     1.402   .     S
C56    C58     1.481   .     S
C56    C64     1.398   .     A
C56    C74     1.421   .     A
C57    C167    1.335   .     S
C57    H245    1.086   .     S
C58    O102    1.292   .     A
C59    C60     1.403   .     S
C59    C435    1.335   1_545 S
C59    H413    1.088   1_545 S
C60    O103    1.289   .     A
C60    O158    1.279   .     S
C61    O105    1.295   .     A
C61    C63     1.451   .     S
C61    O160    1.294   .     S
C62    H93     1.085   .     S
C62    C76     1.392   .     A
C62    C566    1.372   .     S
C63    C79     1.419   .     A
C63    C80     1.395   .     A
C64    C65     1.389   .     A
C65    H96     1.083   .     S
C65    C553    1.395   .     S
C66    C74     1.406   .     A
C66    C553    1.417   .     S
C66    C561    1.444   .     S
C67    H95     1.068   .     S
C67    C551    1.395   1_554 S
C67    C552    1.417   1_554 S
C68    C79     1.477   .     S
C68    C69     1.405   .     A
C68    C73     1.405   .     A
C69    C70     1.396   .     A
C69    H84     1.083   .     S
C70    H85     1.076   .     S
C70    C71     1.398   .     A
C71    C72     1.396   .     A
C71    H86     1.081   .     S
C72    C73     1.397   .     A
C72    H249    1.082   .     S
C73    H88     1.083   .     S
C74    C78     1.397   .     A
C75    C79     1.420   .     A
C75    C552    1.444   1_554 S
C75    C562    1.431   1_554 S
C76    C77     1.379   .     A
C76    C561    1.431   .     S
C77    H92     1.079   .     S
C77    C78     1.365   .     A
C78    H82     1.061   .     S
C80    C548    1.372   1_554 S
C80    H135    1.084   .     S
H83    C381    1.086   1_545 S
H87    C396    1.082   1_545 S
H89    C221    1.088   .     S
H90    N97     1.029   .     S
H91    N98     1.026   .     S
H94    C118    1.079   .     S
N97    N98     1.280   .     D
N97    Zn108   2.023   .     S
N98    Zn107   2.023   .     S
O99    Zn107   1.956   .     S
O99    C109    1.279   .     S
O100   Zn108   1.977   .     S
O101   Zn107   1.985   .     S
O101   C112    1.310   .     S
O102   Zn108   1.998   .     S
O103   Zn107   1.977   .     S
O104   Zn108   1.956   .     S
O105   Zn107   1.998   .     S
O106   Zn108   1.985   .     S
C109   O154    1.288   .     A
C109   C111    1.402   .     S
C110   C112    1.481   .     S
C110   C118    1.398   .     A
C110   C128    1.421   .     A
C111   C221    1.335   .     S
C111   H299    1.086   .     S
C112   O156    1.292   .     A
C113   C114    1.403   .     S
C113   C327    1.335   1_645 S
C113   H467    1.088   1_545 S
C114   O157    1.289   .     A
C114   O50     1.279   1_655 S
C115   O159    1.295   .     A
C115   C117    1.451   .     S
C115   O52     1.294   1_655 S
C116   H147    1.085   .     S
C116   C130    1.392   .     A
C116   C620    1.372   .     S
C117   C133    1.419   .     A
C117   C134    1.395   .     A
C118   C119    1.389   .     A
C119   H150    1.083   .     S
C119   C607    1.395   .     S
C120   C128    1.406   .     A
C120   C607    1.417   .     S
C120   C615    1.444   .     S
C121   H149    1.068   .     S
C121   C605    1.395   1_554 S
C121   C606    1.417   1_554 S
C122   C133    1.477   .     S
C122   C123    1.405   .     A
C122   C127    1.405   .     A
C123   C124    1.396   .     A
C123   H138    1.083   .     S
C124   H139    1.076   .     S
C124   C125    1.398   .     A
C125   C126    1.396   .     A
C125   H140    1.081   .     S
C126   C127    1.397   .     A
C126   H303    1.082   .     S
C127   H142    1.083   .     S
C128   C132    1.397   .     A
C129   C133    1.420   .     A
C129   C606    1.444   1_554 S
C129   C616    1.431   1_554 S
C130   C131    1.379   .     A
C130   C615    1.431   .     S
C131   H146    1.079   .     S
C131   C132    1.365   .     A
C132   H136    1.061   .     S
C134   C602    1.372   1_554 S
C134   H27     1.084   1_655 S
H137   C435    1.086   1_545 S
H141   C450    1.082   1_545 S
H143   C275    1.088   .     S
H144   N151    1.029   .     S
H145   N152    1.026   .     S
H148   C10     1.079   1_655 S
N151   N152    1.280   .     D
N151   Zn162   2.023   .     S
N152   Zn161   2.023   .     S
O153   Zn161   1.956   .     S
O153   C1      1.279   1_655 S
O154   Zn162   1.977   .     S
O155   Zn161   1.985   .     S
O155   C4      1.310   1_655 S
O156   Zn162   1.998   .     S
O157   Zn161   1.977   .     S
O158   Zn162   1.956   .     S
O159   Zn161   1.998   .     S
O160   Zn162   1.985   .     S
C163   O208    1.288   .     A
C163   C165    1.402   .     S
C163   O315    1.279   1_455 S
C164   C166    1.481   .     S
C164   C172    1.398   .     A
C164   C182    1.421   .     A
C165   C437    1.335   1_455 S
C165   H353    1.086   .     S
C166   O210    1.292   .     A
C166   O317    1.310   1_455 S
C167   C168    1.403   .     S
C168   O211    1.289   .     A
C168   O266    1.279   .     S
C169   O213    1.295   .     A
C169   C171    1.451   .     S
C169   O268    1.294   .     S
C170   H201    1.085   .     S
C170   C184    1.392   .     A
C170   C674    1.372   .     S
C171   C187    1.419   .     A
C171   C188    1.395   .     A
C172   C173    1.389   .     A
C172   H310    1.079   1_455 S
C173   H204    1.083   .     S
C173   C661    1.395   .     S
C174   C182    1.406   .     A
C174   C661    1.417   .     S
C174   C669    1.444   .     S
C175   H203    1.068   .     S
C175   C659    1.395   1_554 S
C175   C660    1.417   1_554 S
C176   C187    1.477   .     S
C176   C177    1.405   .     A
C176   C181    1.405   .     A
C177   C178    1.396   .     A
C177   H192    1.083   .     S
C178   H193    1.076   .     S
C178   C179    1.398   .     A
C179   C180    1.396   .     A
C179   H194    1.081   .     S
C180   C181    1.397   .     A
C180   H357    1.082   .     S
C181   H196    1.083   .     S
C182   C186    1.397   .     A
C183   C187    1.420   .     A
C183   C660    1.444   1_554 S
C183   C670    1.431   1_554 S
C184   C185    1.379   .     A
C184   C669    1.431   .     S
C185   H200    1.079   .     S
C185   C186    1.365   .     A
C186   H190    1.061   .     S
C188   C656    1.372   1_554 S
C188   H243    1.084   .     S
H189   C296    1.084   1_455 S
H197   C329    1.088   .     S
H198   N205    1.029   .     S
H199   N206    1.026   .     S
H202   C226    1.079   .     S
N205   N206    1.280   .     D
N205   Zn216   2.023   .     S
N206   Zn215   2.023   .     S
O207   Zn215   1.956   .     S
O207   C217    1.279   .     S
O208   Zn216   1.977   .     S
O209   Zn215   1.985   .     S
O209   C220    1.310   .     S
O210   Zn216   1.998   .     S
O211   Zn215   1.977   .     S
O212   Zn216   1.956   .     S
O212   C276    1.279   1_455 S
O213   Zn215   1.998   .     S
O214   Zn216   1.985   .     S
O214   C277    1.294   1_455 S
C217   O262    1.288   .     A
C217   C219    1.402   .     S
C218   C220    1.481   .     S
C218   C226    1.398   .     A
C218   C236    1.421   .     A
C219   C329    1.335   .     S
C219   H407    1.086   .     S
C220   O264    1.292   .     A
C221   C222    1.403   .     S
C222   O265    1.289   .     A
C222   O320    1.279   .     S
C223   O267    1.295   .     A
C223   C225    1.451   .     S
C223   O322    1.294   .     S
C224   H255    1.085   .     S
C224   C238    1.392   .     A
C224   C728    1.372   .     S
C225   C241    1.419   .     A
C225   C242    1.395   .     A
C226   C227    1.389   .     A
C227   H258    1.083   .     S
C227   C715    1.395   .     S
C228   C236    1.406   .     A
C228   C715    1.417   .     S
C228   C723    1.444   .     S
C229   H257    1.068   .     S
C229   C713    1.395   1_554 S
C229   C714    1.417   1_554 S
C230   C241    1.477   .     S
C230   C231    1.405   .     A
C230   C235    1.405   .     A
C231   C232    1.396   .     A
C231   H246    1.083   .     S
C232   H247    1.076   .     S
C232   C233    1.398   .     A
C233   C234    1.396   .     A
C233   H248    1.081   .     S
C234   C235    1.397   .     A
C234   H411    1.082   .     S
C235   H250    1.083   .     S
C236   C240    1.397   .     A
C237   C241    1.420   .     A
C237   C714    1.444   1_554 S
C237   C724    1.431   1_554 S
C238   C239    1.379   .     A
C238   C723    1.431   .     S
C239   H254    1.079   .     S
C239   C240    1.365   .     A
C240   H244    1.061   .     S
C242   C710    1.372   1_554 S
C242   H297    1.084   .     S
H251   C383    1.088   .     S
H252   N259    1.029   .     S
H253   N260    1.026   .     S
H256   C280    1.079   .     S
N259   N260    1.280   .     D
N259   Zn270   2.023   .     S
N260   Zn269   2.023   .     S
O261   Zn269   1.956   .     S
O261   C271    1.279   .     S
O262   Zn270   1.977   .     S
O263   Zn269   1.985   .     S
O263   C274    1.310   .     S
O264   Zn270   1.998   .     S
O265   Zn269   1.977   .     S
O266   Zn270   1.956   .     S
O267   Zn269   1.998   .     S
O268   Zn270   1.985   .     S
C271   O316    1.288   .     A
C271   C273    1.402   .     S
C272   C274    1.481   .     S
C272   C280    1.398   .     A
C272   C290    1.421   .     A
C273   C383    1.335   .     S
C273   H461    1.086   .     S
C274   O318    1.292   .     A
C275   C276    1.403   .     S
C275   C3      1.335   1_655 S
C276   O319    1.289   .     A
C276   O212    1.279   1_655 S
C277   O321    1.295   .     A
C277   C279    1.451   .     S
C277   O214    1.294   1_655 S
C278   H309    1.085   .     S
C278   C292    1.392   .     A
C278   C782    1.372   .     S
C279   C295    1.419   .     A
C279   C296    1.395   .     A
C280   C281    1.389   .     A
C281   H312    1.083   .     S
C281   C769    1.395   .     S
C282   C290    1.406   .     A
C282   C769    1.417   .     S
C282   C777    1.444   .     S
C283   H311    1.068   .     S
C283   C767    1.395   1_554 S
C283   C768    1.417   1_554 S
C284   C295    1.477   .     S
C284   C285    1.405   .     A
C284   C289    1.405   .     A
C285   C286    1.396   .     A
C285   H300    1.083   .     S
C286   H301    1.076   .     S
C286   C287    1.398   .     A
C287   C288    1.396   .     A
C287   H302    1.081   .     S
C288   C289    1.397   .     A
C288   H465    1.082   .     S
C289   H304    1.083   .     S
C290   C294    1.397   .     A
C291   C295    1.420   .     A
C291   C768    1.444   1_554 S
C291   C778    1.431   1_554 S
C292   C293    1.379   .     A
C292   C777    1.431   .     S
C293   H308    1.079   .     S
C293   C294    1.365   .     A
C294   H298    1.061   .     S
C296   C764    1.372   1_554 S
C296   H189    1.084   1_655 S
H305   C437    1.088   .     S
H306   N313    1.029   .     S
H307   N314    1.026   .     S
H310   C172    1.079   1_655 S
N313   N314    1.280   .     D
N313   Zn324   2.023   .     S
N314   Zn323   2.023   .     S
O315   Zn323   1.956   .     S
O315   C163    1.279   1_655 S
O316   Zn324   1.977   .     S
O317   Zn323   1.985   .     S
O317   C166    1.310   1_655 S
O318   Zn324   1.998   .     S
O319   Zn323   1.977   .     S
O320   Zn324   1.956   .     S
O321   Zn323   1.998   .     S
O322   Zn324   1.985   .     S
C325   O370    1.288   .     A
C325   C327    1.402   .     S
C325   O477    1.279   1_455 S
C326   C328    1.481   .     S
C326   C334    1.398   .     A
C326   C344    1.421   .     A
C327   C113    1.335   1_465 S
C327   H29     1.086   1_565 S
C328   O372    1.292   .     A
C328   O479    1.310   1_455 S
C329   C330    1.403   .     S
C330   O373    1.289   .     A
C330   O428    1.279   .     S
C331   O375    1.295   .     A
C331   C333    1.451   .     S
C331   O430    1.294   .     S
C332   H363    1.085   .     S
C332   C346    1.392   .     A
C332   C836    1.372   .     S
C333   C349    1.419   .     A
C333   C350    1.395   .     A
C334   C335    1.389   .     A
C334   H472    1.079   1_455 S
C335   H366    1.083   .     S
C335   C823    1.395   .     S
C336   C344    1.406   .     A
C336   C823    1.417   .     S
C336   C831    1.444   .     S
C337   H365    1.068   .     S
C337   C821    1.395   1_554 S
C337   C822    1.417   1_554 S
C338   C349    1.477   .     S
C338   C339    1.405   .     A
C338   C343    1.405   .     A
C339   C340    1.396   .     A
C339   H354    1.083   .     S
C340   H355    1.076   .     S
C340   C341    1.398   .     A
C341   C342    1.396   .     A
C341   H356    1.081   .     S
C342   C343    1.397   .     A
C342   H33     1.082   1_565 S
C343   H358    1.083   .     S
C344   C348    1.397   .     A
C345   C349    1.420   .     A
C345   C822    1.444   1_554 S
C345   C832    1.431   1_554 S
C346   C347    1.379   .     A
C346   C831    1.431   .     S
C347   H362    1.079   .     S
C347   C348    1.365   .     A
C348   H352    1.061   .     S
C350   C818    1.372   1_554 S
C350   H405    1.084   .     S
H351   C458    1.084   1_455 S
H359   C5      1.088   1_565 S
H360   N367    1.029   .     S
H361   N368    1.026   .     S
H364   C388    1.079   .     S
N367   N368    1.280   .     D
N367   Zn378   2.023   .     S
N368   Zn377   2.023   .     S
O369   Zn377   1.956   .     S
O369   C379    1.279   .     S
O370   Zn378   1.977   .     S
O371   Zn377   1.985   .     S
O371   C382    1.310   .     S
O372   Zn378   1.998   .     S
O373   Zn377   1.977   .     S
O374   Zn378   1.956   .     S
O374   C438    1.279   1_455 S
O375   Zn377   1.998   .     S
O376   Zn378   1.985   .     S
O376   C439    1.294   1_455 S
C379   O424    1.288   .     A
C379   C381    1.402   .     S
C380   C382    1.481   .     S
C380   C388    1.398   .     A
C380   C398    1.421   .     A
C381   C5      1.335   1_565 S
C381   H83     1.086   1_565 S
C382   O426    1.292   .     A
C383   C384    1.403   .     S
C384   O427    1.289   .     A
C384   O482    1.279   .     S
C385   O429    1.295   .     A
C385   C387    1.451   .     S
C385   O484    1.294   .     S
C386   H417    1.085   .     S
C386   C400    1.392   .     A
C386   C890    1.372   .     S
C387   C403    1.419   .     A
C387   C404    1.395   .     A
C388   C389    1.389   .     A
C389   H420    1.083   .     S
C389   C877    1.395   .     S
C390   C398    1.406   .     A
C390   C877    1.417   .     S
C390   C885    1.444   .     S
C391   H419    1.068   .     S
C391   C875    1.395   1_554 S
C391   C876    1.417   1_554 S
C392   C403    1.477   .     S
C392   C393    1.405   .     A
C392   C397    1.405   .     A
C393   C394    1.396   .     A
C393   H408    1.083   .     S
C394   H409    1.076   .     S
C394   C395    1.398   .     A
C395   C396    1.396   .     A
C395   H410    1.081   .     S
C396   C397    1.397   .     A
C396   H87     1.082   1_565 S
C397   H412    1.083   .     S
C398   C402    1.397   .     A
C399   C403    1.420   .     A
C399   C876    1.444   1_554 S
C399   C886    1.431   1_554 S
C400   C401    1.379   .     A
C400   C885    1.431   .     S
C401   H416    1.079   .     S
C401   C402    1.365   .     A
C402   H406    1.061   .     S
C404   C872    1.372   1_554 S
C404   H459    1.084   .     S
H413   C59     1.088   1_565 S
H414   N421    1.029   .     S
H415   N422    1.026   .     S
H418   C442    1.079   .     S
N421   N422    1.280   .     D
N421   Zn432   2.023   .     S
N422   Zn431   2.023   .     S
O423   Zn431   1.956   .     S
O423   C433    1.279   .     S
O424   Zn432   1.977   .     S
O425   Zn431   1.985   .     S
O425   C436    1.310   .     S
O426   Zn432   1.998   .     S
O427   Zn431   1.977   .     S
O428   Zn432   1.956   .     S
O429   Zn431   1.998   .     S
O430   Zn432   1.985   .     S
C433   O478    1.288   .     A
C433   C435    1.402   .     S
C434   C436    1.481   .     S
C434   C442    1.398   .     A
C434   C452    1.421   .     A
C435   C59     1.335   1_565 S
C435   H137    1.086   1_565 S
C436   O480    1.292   .     A
C437   C438    1.403   .     S
C437   C165    1.335   1_655 S
C438   O481    1.289   .     A
C438   O374    1.279   1_655 S
C439   O483    1.295   .     A
C439   C441    1.451   .     S
C439   O376    1.294   1_655 S
C440   H471    1.085   .     S
C440   C454    1.392   .     A
C440   C944    1.372   .     S
C441   C457    1.419   .     A
C441   C458    1.395   .     A
C442   C443    1.389   .     A
C443   H474    1.083   .     S
C443   C931    1.395   .     S
C444   C452    1.406   .     A
C444   C931    1.417   .     S
C444   C939    1.444   .     S
C445   H473    1.068   .     S
C445   C929    1.395   1_554 S
C445   C930    1.417   1_554 S
C446   C457    1.477   .     S
C446   C447    1.405   .     A
C446   C451    1.405   .     A
C447   C448    1.396   .     A
C447   H462    1.083   .     S
C448   H463    1.076   .     S
C448   C449    1.398   .     A
C449   C450    1.396   .     A
C449   H464    1.081   .     S
C450   C451    1.397   .     A
C450   H141    1.082   1_565 S
C451   H466    1.083   .     S
C452   C456    1.397   .     A
C453   C457    1.420   .     A
C453   C930    1.444   1_554 S
C453   C940    1.431   1_554 S
C454   C455    1.379   .     A
C454   C939    1.431   .     S
C455   H470    1.079   .     S
C455   C456    1.365   .     A
C456   H460    1.061   .     S
C458   C926    1.372   1_554 S
C458   H351    1.084   1_655 S
H467   C113    1.088   1_565 S
H468   N475    1.029   .     S
H469   N476    1.026   .     S
H472   C334    1.079   1_655 S
N475   N476    1.280   .     D
N475   Zn486   2.023   .     S
N476   Zn485   2.023   .     S
O477   Zn485   1.956   .     S
O477   C325    1.279   1_655 S
O478   Zn486   1.977   .     S
O479   Zn485   1.985   .     S
O479   C328    1.310   1_655 S
O480   Zn486   1.998   .     S
O481   Zn485   1.977   .     S
O482   Zn486   1.956   .     S
O483   Zn485   1.998   .     S
O484   Zn486   1.985   .     S
C487   O532    1.288   .     A
C487   C489    1.402   .     S
C487   O639    1.279   1_455 S
C488   C490    1.481   .     S
C488   C496    1.398   .     A
C488   C506    1.421   .     A
C489   C761    1.335   1_455 S
C489   H677    1.086   .     S
C490   O534    1.292   .     A
C490   O641    1.310   1_455 S
C491   C492    1.403   .     S
C491   C867    1.335   1_545 S
C491   H845    1.088   1_545 S
C492   O535    1.289   .     A
C492   O590    1.279   .     S
C493   O537    1.295   .     A
C493   C495    1.451   .     S
C493   O592    1.294   .     S
C494   H525    1.085   .     S
C494   C508    1.392   .     A
C494   C26     1.372   1_556 S
C495   C511    1.419   .     A
C495   C512    1.395   .     A
C496   C497    1.389   .     A
C496   H634    1.079   1_455 S
C497   H528    1.083   .     S
C497   C13     1.395   1_556 S
C498   C506    1.406   .     A
C498   C13     1.417   1_556 S
C498   C21     1.444   1_556 S
C499   H527    1.068   .     S
C500   C511    1.477   .     S
C500   C501    1.405   .     A
C500   C505    1.405   .     A
C501   C502    1.396   .     A
C501   H516    1.083   .     S
C502   H517    1.076   .     S
C502   C503    1.398   .     A
C503   C504    1.396   .     A
C503   H518    1.081   .     S
C504   C505    1.397   .     A
C504   H681    1.082   .     S
C505   H520    1.083   .     S
C506   C510    1.397   .     A
C507   C511    1.420   .     A
C508   C509    1.379   .     A
C508   C21     1.431   1_556 S
C509   H524    1.079   .     S
C509   C510    1.365   .     A
C510   H514    1.061   .     S
C512   H567    1.084   .     S
H513   C620    1.084   1_455 S
H515   C813    1.086   1_545 S
H519   C828    1.082   1_545 S
H521   C653    1.088   .     S
H522   N529    1.029   .     S
H523   N530    1.026   .     S
H526   C550    1.079   .     S
N529   N530    1.280   .     D
N529   Zn540   2.023   .     S
N530   Zn539   2.023   .     S
O531   Zn539   1.956   .     S
O531   C541    1.279   .     S
O532   Zn540   1.977   .     S
O533   Zn539   1.985   .     S
O533   C544    1.310   .     S
O534   Zn540   1.998   .     S
O535   Zn539   1.977   .     S
O536   Zn540   1.956   .     S
O536   C600    1.279   1_455 S
O537   Zn539   1.998   .     S
O538   Zn540   1.985   .     S
O538   C601    1.294   1_455 S
C541   O586    1.288   .     A
C541   C543    1.402   .     S
C542   C544    1.481   .     S
C542   C550    1.398   .     A
C542   C560    1.421   .     A
C543   C653    1.335   .     S
C543   H731    1.086   .     S
C544   O588    1.292   .     A
C545   C546    1.403   .     S
C545   C921    1.335   1_545 S
C545   H899    1.088   1_545 S
C546   O589    1.289   .     A
C546   O644    1.279   .     S
C547   O591    1.295   .     A
C547   C549    1.451   .     S
C547   O646    1.294   .     S
C548   H579    1.085   .     S
C548   C562    1.392   .     A
C548   C80     1.372   1_556 S
C549   C565    1.419   .     A
C549   C566    1.395   .     A
C550   C551    1.389   .     A
C551   H582    1.083   .     S
C551   C67     1.395   1_556 S
C552   C560    1.406   .     A
C552   C67     1.417   1_556 S
C552   C75     1.444   1_556 S
C553   H581    1.068   .     S
C554   C565    1.477   .     S
C554   C555    1.405   .     A
C554   C559    1.405   .     A
C555   C556    1.396   .     A
C555   H570    1.083   .     S
C556   H571    1.076   .     S
C556   C557    1.398   .     A
C557   C558    1.396   .     A
C557   H572    1.081   .     S
C558   C559    1.397   .     A
C558   H735    1.082   .     S
C559   H574    1.083   .     S
C560   C564    1.397   .     A
C561   C565    1.420   .     A
C562   C563    1.379   .     A
C562   C75     1.431   1_556 S
C563   H578    1.079   .     S
C563   C564    1.365   .     A
C564   H568    1.061   .     S
C566   H621    1.084   .     S
H569   C867    1.086   1_545 S
H573   C882    1.082   1_545 S
H575   C707    1.088   .     S
H576   N583    1.029   .     S
H577   N584    1.026   .     S
H580   C604    1.079   .     S
N583   N584    1.280   .     D
N583   Zn594   2.023   .     S
N584   Zn593   2.023   .     S
O585   Zn593   1.956   .     S
O585   C595    1.279   .     S
O586   Zn594   1.977   .     S
O587   Zn593   1.985   .     S
O587   C598    1.310   .     S
O588   Zn594   1.998   .     S
O589   Zn593   1.977   .     S
O590   Zn594   1.956   .     S
O591   Zn593   1.998   .     S
O592   Zn594   1.985   .     S
C595   O640    1.288   .     A
C595   C597    1.402   .     S
C596   C598    1.481   .     S
C596   C604    1.398   .     A
C596   C614    1.421   .     A
C597   C707    1.335   .     S
C597   H785    1.086   .     S
C598   O642    1.292   .     A
C599   C600    1.403   .     S
C599   C813    1.335   1_645 S
C599   H953    1.088   1_545 S
C600   O643    1.289   .     A
C600   O536    1.279   1_655 S
C601   O645    1.295   .     A
C601   C603    1.451   .     S
C601   O538    1.294   1_655 S
C602   H633    1.085   .     S
C602   C616    1.392   .     A
C602   C134    1.372   1_556 S
C603   C619    1.419   .     A
C603   C620    1.395   .     A
C604   C605    1.389   .     A
C605   H636    1.083   .     S
C605   C121    1.395   1_556 S
C606   C614    1.406   .     A
C606   C121    1.417   1_556 S
C606   C129    1.444   1_556 S
C607   H635    1.068   .     S
C608   C619    1.477   .     S
C608   C609    1.405   .     A
C608   C613    1.405   .     A
C609   C610    1.396   .     A
C609   H624    1.083   .     S
C610   H625    1.076   .     S
C610   C611    1.398   .     A
C611   C612    1.396   .     A
C611   H626    1.081   .     S
C612   C613    1.397   .     A
C612   H789    1.082   .     S
C613   H628    1.083   .     S
C614   C618    1.397   .     A
C615   C619    1.420   .     A
C616   C617    1.379   .     A
C616   C129    1.431   1_556 S
C617   H632    1.079   .     S
C617   C618    1.365   .     A
C618   H622    1.061   .     S
C620   H513    1.084   1_655 S
H623   C921    1.086   1_545 S
H627   C936    1.082   1_545 S
H629   C761    1.088   .     S
H630   N637    1.029   .     S
H631   N638    1.026   .     S
H634   C496    1.079   1_655 S
N637   N638    1.280   .     D
N637   Zn648   2.023   .     S
N638   Zn647   2.023   .     S
O639   Zn647   1.956   .     S
O639   C487    1.279   1_655 S
O640   Zn648   1.977   .     S
O641   Zn647   1.985   .     S
O641   C490    1.310   1_655 S
O642   Zn648   1.998   .     S
O643   Zn647   1.977   .     S
O644   Zn648   1.956   .     S
O645   Zn647   1.998   .     S
O646   Zn648   1.985   .     S
C649   O694    1.288   .     A
C649   C651    1.402   .     S
C649   O801    1.279   1_455 S
C650   C652    1.481   .     S
C650   C658    1.398   .     A
C650   C668    1.421   .     A
C651   C923    1.335   1_455 S
C651   H839    1.086   .     S
C652   O696    1.292   .     A
C652   O803    1.310   1_455 S
C653   C654    1.403   .     S
C654   O697    1.289   .     A
C654   O752    1.279   .     S
C655   O699    1.295   .     A
C655   C657    1.451   .     S
C655   O754    1.294   .     S
C656   H687    1.085   .     S
C656   C670    1.392   .     A
C656   C188    1.372   1_556 S
C657   C673    1.419   .     A
C657   C674    1.395   .     A
C658   C659    1.389   .     A
C658   H796    1.079   1_455 S
C659   H690    1.083   .     S
C659   C175    1.395   1_556 S
C660   C668    1.406   .     A
C660   C175    1.417   1_556 S
C660   C183    1.444   1_556 S
C661   H689    1.068   .     S
C662   C673    1.477   .     S
C662   C663    1.405   .     A
C662   C667    1.405   .     A
C663   C664    1.396   .     A
C663   H678    1.083   .     S
C664   H679    1.076   .     S
C664   C665    1.398   .     A
C665   C666    1.396   .     A
C665   H680    1.081   .     S
C666   C667    1.397   .     A
C666   H843    1.082   .     S
C667   H682    1.083   .     S
C668   C672    1.397   .     A
C669   C673    1.420   .     A
C670   C671    1.379   .     A
C670   C183    1.431   1_556 S
C671   H686    1.079   .     S
C671   C672    1.365   .     A
C672   H676    1.061   .     S
C674   H729    1.084   .     S
H675   C782    1.084   1_455 S
H683   C815    1.088   .     S
H684   N691    1.029   .     S
H685   N692    1.026   .     S
H688   C712    1.079   .     S
N691   N692    1.280   .     D
N691   Zn702   2.023   .     S
N692   Zn701   2.023   .     S
O693   Zn701   1.956   .     S
O693   C703    1.279   .     S
O694   Zn702   1.977   .     S
O695   Zn701   1.985   .     S
O695   C706    1.310   .     S
O696   Zn702   1.998   .     S
O697   Zn701   1.977   .     S
O698   Zn702   1.956   .     S
O698   C762    1.279   1_455 S
O699   Zn701   1.998   .     S
O700   Zn702   1.985   .     S
O700   C763    1.294   1_455 S
C703   O748    1.288   .     A
C703   C705    1.402   .     S
C704   C706    1.481   .     S
C704   C712    1.398   .     A
C704   C722    1.421   .     A
C705   C815    1.335   .     S
C705   H893    1.086   .     S
C706   O750    1.292   .     A
C707   C708    1.403   .     S
C708   O751    1.289   .     A
C708   O806    1.279   .     S
C709   O753    1.295   .     A
C709   C711    1.451   .     S
C709   O808    1.294   .     S
C710   H741    1.085   .     S
C710   C724    1.392   .     A
C710   C242    1.372   1_556 S
C711   C727    1.419   .     A
C711   C728    1.395   .     A
C712   C713    1.389   .     A
C713   H744    1.083   .     S
C713   C229    1.395   1_556 S
C714   C722    1.406   .     A
C714   C229    1.417   1_556 S
C714   C237    1.444   1_556 S
C715   H743    1.068   .     S
C716   C727    1.477   .     S
C716   C717    1.405   .     A
C716   C721    1.405   .     A
C717   C718    1.396   .     A
C717   H732    1.083   .     S
C718   H733    1.076   .     S
C718   C719    1.398   .     A
C719   C720    1.396   .     A
C719   H734    1.081   .     S
C720   C721    1.397   .     A
C720   H897    1.082   .     S
C721   H736    1.083   .     S
C722   C726    1.397   .     A
C723   C727    1.420   .     A
C724   C725    1.379   .     A
C724   C237    1.431   1_556 S
C725   H740    1.079   .     S
C725   C726    1.365   .     A
C726   H730    1.061   .     S
C728   H783    1.084   .     S
H737   C869    1.088   .     S
H738   N745    1.029   .     S
H739   N746    1.026   .     S
H742   C766    1.079   .     S
N745   N746    1.280   .     D
N745   Zn756   2.023   .     S
N746   Zn755   2.023   .     S
O747   Zn755   1.956   .     S
O747   C757    1.279   .     S
O748   Zn756   1.977   .     S
O749   Zn755   1.985   .     S
O749   C760    1.310   .     S
O750   Zn756   1.998   .     S
O751   Zn755   1.977   .     S
O752   Zn756   1.956   .     S
O753   Zn755   1.998   .     S
O754   Zn756   1.985   .     S
C757   O802    1.288   .     A
C757   C759    1.402   .     S
C758   C760    1.481   .     S
C758   C766    1.398   .     A
C758   C776    1.421   .     A
C759   C869    1.335   .     S
C759   H947    1.086   .     S
C760   O804    1.292   .     A
C761   C762    1.403   .     S
C761   C489    1.335   1_655 S
C762   O805    1.289   .     A
C762   O698    1.279   1_655 S
C763   O807    1.295   .     A
C763   C765    1.451   .     S
C763   O700    1.294   1_655 S
C764   H795    1.085   .     S
C764   C778    1.392   .     A
C764   C296    1.372   1_556 S
C765   C781    1.419   .     A
C765   C782    1.395   .     A
C766   C767    1.389   .     A
C767   H798    1.083   .     S
C767   C283    1.395   1_556 S
C768   C776    1.406   .     A
C768   C283    1.417   1_556 S
C768   C291    1.444   1_556 S
C769   H797    1.068   .     S
C770   C781    1.477   .     S
C770   C771    1.405   .     A
C770   C775    1.405   .     A
C771   C772    1.396   .     A
C771   H786    1.083   .     S
C772   H787    1.076   .     S
C772   C773    1.398   .     A
C773   C774    1.396   .     A
C773   H788    1.081   .     S
C774   C775    1.397   .     A
C774   H951    1.082   .     S
C775   H790    1.083   .     S
C776   C780    1.397   .     A
C777   C781    1.420   .     A
C778   C779    1.379   .     A
C778   C291    1.431   1_556 S
C779   H794    1.079   .     S
C779   C780    1.365   .     A
C780   H784    1.061   .     S
C782   H675    1.084   1_655 S
H791   C923    1.088   .     S
H792   N799    1.029   .     S
H793   N800    1.026   .     S
H796   C658    1.079   1_655 S
N799   N800    1.280   .     D
N799   Zn810   2.023   .     S
N800   Zn809   2.023   .     S
O801   Zn809   1.956   .     S
O801   C649    1.279   1_655 S
O802   Zn810   1.977   .     S
O803   Zn809   1.985   .     S
O803   C652    1.310   1_655 S
O804   Zn810   1.998   .     S
O805   Zn809   1.977   .     S
O806   Zn810   1.956   .     S
O807   Zn809   1.998   .     S
O808   Zn810   1.985   .     S
C811   O856    1.288   .     A
C811   C813    1.402   .     S
C811   O963    1.279   1_455 S
C812   C814    1.481   .     S
C812   C820    1.398   .     A
C812   C830    1.421   .     A
C813   C599    1.335   1_465 S
C813   H515    1.086   1_565 S
C814   O858    1.292   .     A
C814   O965    1.310   1_455 S
C815   C816    1.403   .     S
C816   O859    1.289   .     A
C816   O914    1.279   .     S
C817   O861    1.295   .     A
C817   C819    1.451   .     S
C817   O916    1.294   .     S
C818   H849    1.085   .     S
C818   C832    1.392   .     A
C818   C350    1.372   1_556 S
C819   C835    1.419   .     A
C819   C836    1.395   .     A
C820   C821    1.389   .     A
C820   H958    1.079   1_455 S
C821   H852    1.083   .     S
C821   C337    1.395   1_556 S
C822   C830    1.406   .     A
C822   C337    1.417   1_556 S
C822   C345    1.444   1_556 S
C823   H851    1.068   .     S
C824   C835    1.477   .     S
C824   C825    1.405   .     A
C824   C829    1.405   .     A
C825   C826    1.396   .     A
C825   H840    1.083   .     S
C826   H841    1.076   .     S
C826   C827    1.398   .     A
C827   C828    1.396   .     A
C827   H842    1.081   .     S
C828   C829    1.397   .     A
C828   H519    1.082   1_565 S
C829   H844    1.083   .     S
C830   C834    1.397   .     A
C831   C835    1.420   .     A
C832   C833    1.379   .     A
C832   C345    1.431   1_556 S
C833   H848    1.079   .     S
C833   C834    1.365   .     A
C834   H838    1.061   .     S
C836   H891    1.084   .     S
H837   C944    1.084   1_455 S
H845   C491    1.088   1_565 S
H846   N853    1.029   .     S
H847   N854    1.026   .     S
H850   C874    1.079   .     S
N853   N854    1.280   .     D
N853   Zn864   2.023   .     S
N854   Zn863   2.023   .     S
O855   Zn863   1.956   .     S
O855   C865    1.279   .     S
O856   Zn864   1.977   .     S
O857   Zn863   1.985   .     S
O857   C868    1.310   .     S
O858   Zn864   1.998   .     S
O859   Zn863   1.977   .     S
O860   Zn864   1.956   .     S
O860   C924    1.279   1_455 S
O861   Zn863   1.998   .     S
O862   Zn864   1.985   .     S
O862   C925    1.294   1_455 S
C865   O910    1.288   .     A
C865   C867    1.402   .     S
C866   C868    1.481   .     S
C866   C874    1.398   .     A
C866   C884    1.421   .     A
C867   C491    1.335   1_565 S
C867   H569    1.086   1_565 S
C868   O912    1.292   .     A
C869   C870    1.403   .     S
C870   O913    1.289   .     A
C870   O968    1.279   .     S
C871   O915    1.295   .     A
C871   C873    1.451   .     S
C871   O970    1.294   .     S
C872   H903    1.085   .     S
C872   C886    1.392   .     A
C872   C404    1.372   1_556 S
C873   C889    1.419   .     A
C873   C890    1.395   .     A
C874   C875    1.389   .     A
C875   H906    1.083   .     S
C875   C391    1.395   1_556 S
C876   C884    1.406   .     A
C876   C391    1.417   1_556 S
C876   C399    1.444   1_556 S
C877   H905    1.068   .     S
C878   C889    1.477   .     S
C878   C879    1.405   .     A
C878   C883    1.405   .     A
C879   C880    1.396   .     A
C879   H894    1.083   .     S
C880   H895    1.076   .     S
C880   C881    1.398   .     A
C881   C882    1.396   .     A
C881   H896    1.081   .     S
C882   C883    1.397   .     A
C882   H573    1.082   1_565 S
C883   H898    1.083   .     S
C884   C888    1.397   .     A
C885   C889    1.420   .     A
C886   C887    1.379   .     A
C886   C399    1.431   1_556 S
C887   H902    1.079   .     S
C887   C888    1.365   .     A
C888   H892    1.061   .     S
C890   H945    1.084   .     S
H899   C545    1.088   1_565 S
H900   N907    1.029   .     S
H901   N908    1.026   .     S
H904   C928    1.079   .     S
N907   N908    1.280   .     D
N907   Zn918   2.023   .     S
N908   Zn917   2.023   .     S
O909   Zn917   1.956   .     S
O909   C919    1.279   .     S
O910   Zn918   1.977   .     S
O911   Zn917   1.985   .     S
O911   C922    1.310   .     S
O912   Zn918   1.998   .     S
O913   Zn917   1.977   .     S
O914   Zn918   1.956   .     S
O915   Zn917   1.998   .     S
O916   Zn918   1.985   .     S
C919   O964    1.288   .     A
C919   C921    1.402   .     S
C920   C922    1.481   .     S
C920   C928    1.398   .     A
C920   C938    1.421   .     A
C921   C545    1.335   1_565 S
C921   H623    1.086   1_565 S
C922   O966    1.292   .     A
C923   C924    1.403   .     S
C923   C651    1.335   1_655 S
C924   O967    1.289   .     A
C924   O860    1.279   1_655 S
C925   O969    1.295   .     A
C925   C927    1.451   .     S
C925   O862    1.294   1_655 S
C926   H957    1.085   .     S
C926   C940    1.392   .     A
C926   C458    1.372   1_556 S
C927   C943    1.419   .     A
C927   C944    1.395   .     A
C928   C929    1.389   .     A
C929   H960    1.083   .     S
C929   C445    1.395   1_556 S
C930   C938    1.406   .     A
C930   C445    1.417   1_556 S
C930   C453    1.444   1_556 S
C931   H959    1.068   .     S
C932   C943    1.477   .     S
C932   C933    1.405   .     A
C932   C937    1.405   .     A
C933   C934    1.396   .     A
C933   H948    1.083   .     S
C934   H949    1.076   .     S
C934   C935    1.398   .     A
C935   C936    1.396   .     A
C935   H950    1.081   .     S
C936   C937    1.397   .     A
C936   H627    1.082   1_565 S
C937   H952    1.083   .     S
C938   C942    1.397   .     A
C939   C943    1.420   .     A
C940   C941    1.379   .     A
C940   C453    1.431   1_556 S
C941   H956    1.079   .     S
C941   C942    1.365   .     A
C942   H946    1.061   .     S
C944   H837    1.084   1_655 S
H953   C599    1.088   1_565 S
H954   N961    1.029   .     S
H955   N962    1.026   .     S
H958   C820    1.079   1_655 S
N961   N962    1.280   .     D
N961   Zn972   2.023   .     S
N962   Zn971   2.023   .     S
O963   Zn971   1.956   .     S
O963   C811    1.279   1_655 S
O964   Zn972   1.977   .     S
O965   Zn971   1.985   .     S
O965   C814    1.310   1_655 S
O966   Zn972   1.998   .     S
O967   Zn971   1.977   .     S
O968   Zn972   1.956   .     S
O969   Zn971   1.998   .     S
O970   Zn972   1.985   .     S
