data_str_m3_o1_o5_pcu_sym.28
_audit_creation_date              2020-01-03
_audit_creation_method            'Materials Studio'
_symmetry_space_group_name_H-M    'P1'
_symmetry_Int_Tables_number       1
_symmetry_cell_setting            triclinic
loop_
_symmetry_equiv_pos_as_xyz
  x,y,z
_cell_length_a                    32.0011
_cell_length_b                    30.1117
_cell_length_c                    26.6846
_cell_angle_alpha                 89.8002
_cell_angle_beta                  92.9586
_cell_angle_gamma                 89.4892
loop_
_atom_site_label
_atom_site_type_symbol
_atom_site_fract_x
_atom_site_fract_y
_atom_site_fract_z
_atom_site_U_iso_or_equiv
_atom_site_adp_type
_atom_site_occupancy
C1     C     0.08695   0.16673   0.16675   0.00000  Uiso   1.00
C2     C     0.01988   0.19319   0.13166   0.00000  Uiso   1.00
C3     C     0.29063   0.16682   0.16675   0.00000  Uiso   1.00
C4     C     0.04270   0.16651   0.16659   0.00000  Uiso   1.00
C5     C     0.19089   0.02336   0.20153   0.00000  Uiso   1.00
C6     C     0.14244   0.30997   0.13180   0.00000  Uiso   1.00
C7     C     0.14323   0.02440   0.13098   0.00000  Uiso   1.00
C8     C     0.19010   0.30894   0.20235   0.00000  Uiso   1.00
C9     C     0.04486   0.06805   0.22077   0.00000  Uiso   1.00
C10    C     0.28848   0.26528   0.11256   0.00000  Uiso   1.00
C11    C     0.29040   0.14087   0.28052   0.00000  Uiso   1.00
C12    C     0.24639   0.16660   0.16658   0.00000  Uiso   1.00
C13    C     0.04294   0.19247   0.05281   0.00000  Uiso   1.00
C14    C     0.21977   0.04651   0.23911   0.00000  Uiso   1.00
C15    C     0.11356   0.28682   0.09423   0.00000  Uiso   1.00
C16    C     0.12084   0.04952   0.08806   0.00000  Uiso   1.00
C17    C     0.21249   0.28381   0.24527   0.00000  Uiso   1.00
C18    C     0.16650   0.16672   0.07309   0.00000  Uiso   1.00
C19    C     0.16683   0.16662   0.26025   0.00000  Uiso   1.00
C20    C     0.16660   0.16674   0.02185   0.00000  Uiso   1.00
C21    C     0.16673   0.16659   0.31149   0.00000  Uiso   1.00
C22    C     0.02332   0.13847   0.20023   0.00000  Uiso   1.00
C23    C     0.31002   0.19486   0.13311   0.00000  Uiso   1.00
C24    C     0.31345   0.14014   0.20167   0.00000  Uiso   1.00
H25    H     0.01393   0.05379   0.22842   0.00000  Uiso   1.00
H26    H     0.06159   0.16155   0.06034   0.00000  Uiso   1.00
H27    H     0.01142   0.18439   0.03616   0.00000  Uiso   1.00
H28    H     0.05931   0.21223   0.02479   0.00000  Uiso   1.00
H29    H     0.25241   0.03470   0.23523   0.00000  Uiso   1.00
H30    H     0.22118   0.08203   0.23363   0.00000  Uiso   1.00
H31    H     0.20988   0.04040   0.27779   0.00000  Uiso   1.00
H32    H     0.11215   0.25131   0.09970   0.00000  Uiso   1.00
H33    H     0.08093   0.29864   0.09810   0.00000  Uiso   1.00
H34    H     0.12346   0.29293   0.05554   0.00000  Uiso   1.00
H35    H     0.09532   0.03119   0.06819   0.00000  Uiso   1.00
H36    H     0.05162   0.06308   0.18061   0.00000  Uiso   1.00
H37    H     0.10523   0.07958   0.10103   0.00000  Uiso   1.00
H38    H     0.14366   0.05786   0.05965   0.00000  Uiso   1.00
H39    H     0.18968   0.27547   0.27368   0.00000  Uiso   1.00
H40    H     0.22811   0.25375   0.23230   0.00000  Uiso   1.00
H41    H     0.23802   0.30214   0.26514   0.00000  Uiso   1.00
H42    H     0.06894   0.04917   0.24364   0.00000  Uiso   1.00
H43    H     0.31939   0.27955   0.10482   0.00000  Uiso   1.00
H44    H     0.26436   0.28415   0.08974   0.00000  Uiso   1.00
H45    H     0.28178   0.27026   0.15274   0.00000  Uiso   1.00
H46    H     0.27400   0.12112   0.30854   0.00000  Uiso   1.00
H47    H     0.27177   0.17180   0.27299   0.00000  Uiso   1.00
H48    H     0.32192   0.14893   0.29719   0.00000  Uiso   1.00
N49    N     0.16667   0.28573   0.16667   0.00000  Uiso   1.00
N50    N     0.16667   0.04760   0.16667   0.00000  Uiso   1.00
O51    O     0.10559   0.20487   0.16666   0.00000  Uiso   1.00
O52    O     0.28635   0.22016   0.09844   0.00000  Uiso   1.00
O53    O     0.29353   0.11526   0.23676   0.00000  Uiso   1.00
O54    O     0.03981   0.21807   0.09657   0.00000  Uiso   1.00
O55    O     0.22774   0.12846   0.16667   0.00000  Uiso   1.00
O56    O     0.22774   0.20487   0.16667   0.00000  Uiso   1.00
O57    O     0.10559   0.12846   0.16666   0.00000  Uiso   1.00
O58    O     0.16667   0.20488   0.09511   0.00000  Uiso   1.00
O59    O     0.16666   0.12845   0.23822   0.00000  Uiso   1.00
O60    O     0.16666   0.20488   0.23822   0.00000  Uiso   1.00
O61    O     0.16667   0.12845   0.09511   0.00000  Uiso   1.00
O62    O     0.04698   0.11317   0.23489   0.00000  Uiso   1.00
Zn63   Zn    0.16667   0.21771   0.16667   0.00000  Uiso   1.00
Zn64   Zn    0.16667   0.11563   0.16667   0.00000  Uiso   1.00
C65    C     0.42028   0.16673   0.16675   0.00000  Uiso   1.00
C66    C     0.35321   0.19319   0.13166   0.00000  Uiso   1.00
C67    C     0.62396   0.16682   0.16675   0.00000  Uiso   1.00
C68    C     0.37604   0.16651   0.16659   0.00000  Uiso   1.00
C69    C     0.52423   0.02336   0.20153   0.00000  Uiso   1.00
C70    C     0.47577   0.30997   0.13180   0.00000  Uiso   1.00
C71    C     0.47656   0.02440   0.13098   0.00000  Uiso   1.00
C72    C     0.52344   0.30894   0.20235   0.00000  Uiso   1.00
C73    C     0.37819   0.06805   0.22077   0.00000  Uiso   1.00
C74    C     0.62181   0.26528   0.11256   0.00000  Uiso   1.00
C75    C     0.62373   0.14087   0.28052   0.00000  Uiso   1.00
C76    C     0.57972   0.16660   0.16658   0.00000  Uiso   1.00
C77    C     0.37627   0.19247   0.05281   0.00000  Uiso   1.00
C78    C     0.55311   0.04651   0.23911   0.00000  Uiso   1.00
C79    C     0.44689   0.28682   0.09423   0.00000  Uiso   1.00
C80    C     0.45418   0.04952   0.08806   0.00000  Uiso   1.00
C81    C     0.54583   0.28381   0.24527   0.00000  Uiso   1.00
C82    C     0.49983   0.16672   0.07309   0.00000  Uiso   1.00
C83    C     0.50017   0.16662   0.26025   0.00000  Uiso   1.00
C84    C     0.49994   0.16674   0.02185   0.00000  Uiso   1.00
C85    C     0.50006   0.16659   0.31149   0.00000  Uiso   1.00
C86    C     0.35665   0.13847   0.20023   0.00000  Uiso   1.00
C87    C     0.64335   0.19486   0.13311   0.00000  Uiso   1.00
C88    C     0.64679   0.14014   0.20167   0.00000  Uiso   1.00
H89    H     0.34726   0.05379   0.22842   0.00000  Uiso   1.00
H90    H     0.39492   0.16155   0.06034   0.00000  Uiso   1.00
H91    H     0.34475   0.18439   0.03616   0.00000  Uiso   1.00
H92    H     0.39265   0.21223   0.02479   0.00000  Uiso   1.00
H93    H     0.58574   0.03470   0.23523   0.00000  Uiso   1.00
H94    H     0.55451   0.08203   0.23363   0.00000  Uiso   1.00
H95    H     0.54321   0.04040   0.27779   0.00000  Uiso   1.00
H96    H     0.44549   0.25131   0.09970   0.00000  Uiso   1.00
H97    H     0.41426   0.29864   0.09810   0.00000  Uiso   1.00
H98    H     0.45679   0.29293   0.05554   0.00000  Uiso   1.00
H99    H     0.42866   0.03119   0.06819   0.00000  Uiso   1.00
H100   H     0.38495   0.06308   0.18061   0.00000  Uiso   1.00
H101   H     0.43856   0.07958   0.10103   0.00000  Uiso   1.00
H102   H     0.47699   0.05786   0.05965   0.00000  Uiso   1.00
H103   H     0.52302   0.27547   0.27368   0.00000  Uiso   1.00
H104   H     0.56144   0.25375   0.23230   0.00000  Uiso   1.00
H105   H     0.57135   0.30214   0.26514   0.00000  Uiso   1.00
H106   H     0.40227   0.04917   0.24364   0.00000  Uiso   1.00
H107   H     0.65272   0.27955   0.10482   0.00000  Uiso   1.00
H108   H     0.59769   0.28415   0.08974   0.00000  Uiso   1.00
H109   H     0.61512   0.27026   0.15274   0.00000  Uiso   1.00
H110   H     0.60734   0.12112   0.30854   0.00000  Uiso   1.00
H111   H     0.60510   0.17180   0.27299   0.00000  Uiso   1.00
H112   H     0.65525   0.14893   0.29719   0.00000  Uiso   1.00
N113   N     0.50000   0.28573   0.16667   0.00000  Uiso   1.00
N114   N     0.50000   0.04760   0.16667   0.00000  Uiso   1.00
O115   O     0.43892   0.20487   0.16666   0.00000  Uiso   1.00
O116   O     0.61968   0.22016   0.09844   0.00000  Uiso   1.00
O117   O     0.62686   0.11526   0.23676   0.00000  Uiso   1.00
O118   O     0.37314   0.21807   0.09657   0.00000  Uiso   1.00
O119   O     0.56108   0.12846   0.16667   0.00000  Uiso   1.00
O120   O     0.56108   0.20487   0.16667   0.00000  Uiso   1.00
O121   O     0.43892   0.12846   0.16666   0.00000  Uiso   1.00
O122   O     0.50000   0.20488   0.09511   0.00000  Uiso   1.00
O123   O     0.50000   0.12845   0.23822   0.00000  Uiso   1.00
O124   O     0.50000   0.20488   0.23822   0.00000  Uiso   1.00
O125   O     0.50000   0.12845   0.09511   0.00000  Uiso   1.00
O126   O     0.38032   0.11317   0.23489   0.00000  Uiso   1.00
Zn127  Zn    0.50000   0.21771   0.16667   0.00000  Uiso   1.00
Zn128  Zn    0.50000   0.11563   0.16667   0.00000  Uiso   1.00
C129   C     0.75361   0.16673   0.16675   0.00000  Uiso   1.00
C130   C     0.68655   0.19319   0.13166   0.00000  Uiso   1.00
C131   C     0.95730   0.16682   0.16675   0.00000  Uiso   1.00
C132   C     0.70937   0.16651   0.16659   0.00000  Uiso   1.00
C133   C     0.85756   0.02336   0.20153   0.00000  Uiso   1.00
C134   C     0.80911   0.30997   0.13180   0.00000  Uiso   1.00
C135   C     0.80990   0.02440   0.13098   0.00000  Uiso   1.00
C136   C     0.85677   0.30894   0.20235   0.00000  Uiso   1.00
C137   C     0.71152   0.06805   0.22077   0.00000  Uiso   1.00
C138   C     0.95515   0.26528   0.11256   0.00000  Uiso   1.00
C139   C     0.95707   0.14087   0.28052   0.00000  Uiso   1.00
C140   C     0.91305   0.16660   0.16658   0.00000  Uiso   1.00
C141   C     0.70960   0.19247   0.05281   0.00000  Uiso   1.00
C142   C     0.88644   0.04651   0.23911   0.00000  Uiso   1.00
C143   C     0.78023   0.28682   0.09423   0.00000  Uiso   1.00
C144   C     0.78751   0.04952   0.08806   0.00000  Uiso   1.00
C145   C     0.87916   0.28381   0.24527   0.00000  Uiso   1.00
C146   C     0.83317   0.16672   0.07309   0.00000  Uiso   1.00
C147   C     0.83350   0.16662   0.26025   0.00000  Uiso   1.00
C148   C     0.83327   0.16674   0.02185   0.00000  Uiso   1.00
C149   C     0.83340   0.16659   0.31149   0.00000  Uiso   1.00
C150   C     0.68998   0.13847   0.20023   0.00000  Uiso   1.00
C151   C     0.97668   0.19486   0.13311   0.00000  Uiso   1.00
C152   C     0.98012   0.14014   0.20167   0.00000  Uiso   1.00
H153   H     0.68060   0.05379   0.22842   0.00000  Uiso   1.00
H154   H     0.72825   0.16155   0.06034   0.00000  Uiso   1.00
H155   H     0.67809   0.18439   0.03616   0.00000  Uiso   1.00
H156   H     0.72598   0.21223   0.02479   0.00000  Uiso   1.00
H157   H     0.91907   0.03470   0.23523   0.00000  Uiso   1.00
H158   H     0.88785   0.08203   0.23363   0.00000  Uiso   1.00
H159   H     0.87654   0.04040   0.27779   0.00000  Uiso   1.00
H160   H     0.77882   0.25131   0.09970   0.00000  Uiso   1.00
H161   H     0.74759   0.29864   0.09810   0.00000  Uiso   1.00
H162   H     0.79013   0.29293   0.05554   0.00000  Uiso   1.00
H163   H     0.76199   0.03119   0.06819   0.00000  Uiso   1.00
H164   H     0.71828   0.06308   0.18061   0.00000  Uiso   1.00
H165   H     0.77189   0.07958   0.10103   0.00000  Uiso   1.00
H166   H     0.81032   0.05786   0.05965   0.00000  Uiso   1.00
H167   H     0.85635   0.27547   0.27368   0.00000  Uiso   1.00
H168   H     0.89477   0.25375   0.23230   0.00000  Uiso   1.00
H169   H     0.90468   0.30214   0.26514   0.00000  Uiso   1.00
H170   H     0.73560   0.04917   0.24364   0.00000  Uiso   1.00
H171   H     0.98605   0.27955   0.10482   0.00000  Uiso   1.00
H172   H     0.93102   0.28415   0.08974   0.00000  Uiso   1.00
H173   H     0.94845   0.27026   0.15274   0.00000  Uiso   1.00
H174   H     0.94067   0.12112   0.30854   0.00000  Uiso   1.00
H175   H     0.93844   0.17180   0.27299   0.00000  Uiso   1.00
H176   H     0.98859   0.14893   0.29719   0.00000  Uiso   1.00
N177   N     0.83333   0.28573   0.16667   0.00000  Uiso   1.00
N178   N     0.83333   0.04760   0.16667   0.00000  Uiso   1.00
O179   O     0.77226   0.20487   0.16666   0.00000  Uiso   1.00
O180   O     0.95301   0.22016   0.09844   0.00000  Uiso   1.00
O181   O     0.96019   0.11526   0.23676   0.00000  Uiso   1.00
O182   O     0.70647   0.21807   0.09657   0.00000  Uiso   1.00
O183   O     0.89441   0.12846   0.16667   0.00000  Uiso   1.00
O184   O     0.89441   0.20487   0.16667   0.00000  Uiso   1.00
O185   O     0.77226   0.12846   0.16666   0.00000  Uiso   1.00
O186   O     0.83334   0.20488   0.09511   0.00000  Uiso   1.00
O187   O     0.83333   0.12845   0.23822   0.00000  Uiso   1.00
O188   O     0.83333   0.20488   0.23822   0.00000  Uiso   1.00
O189   O     0.83334   0.12845   0.09511   0.00000  Uiso   1.00
O190   O     0.71365   0.11317   0.23489   0.00000  Uiso   1.00
Zn191  Zn    0.83333   0.21771   0.16667   0.00000  Uiso   1.00
Zn192  Zn    0.83333   0.11563   0.16667   0.00000  Uiso   1.00
C193   C     0.08695   0.50006   0.16675   0.00000  Uiso   1.00
C194   C     0.01988   0.52652   0.13166   0.00000  Uiso   1.00
C195   C     0.29063   0.50016   0.16675   0.00000  Uiso   1.00
C196   C     0.04270   0.49984   0.16659   0.00000  Uiso   1.00
C197   C     0.19089   0.35669   0.20153   0.00000  Uiso   1.00
C198   C     0.14244   0.64331   0.13180   0.00000  Uiso   1.00
C199   C     0.14323   0.35773   0.13098   0.00000  Uiso   1.00
C200   C     0.19010   0.64227   0.20235   0.00000  Uiso   1.00
C201   C     0.04486   0.40138   0.22077   0.00000  Uiso   1.00
C202   C     0.28848   0.59862   0.11256   0.00000  Uiso   1.00
C203   C     0.29040   0.47420   0.28052   0.00000  Uiso   1.00
C204   C     0.24639   0.49994   0.16658   0.00000  Uiso   1.00
C205   C     0.04294   0.52580   0.05281   0.00000  Uiso   1.00
C206   C     0.21977   0.37984   0.23911   0.00000  Uiso   1.00
C207   C     0.11356   0.62016   0.09423   0.00000  Uiso   1.00
C208   C     0.12084   0.38286   0.08806   0.00000  Uiso   1.00
C209   C     0.21249   0.61714   0.24527   0.00000  Uiso   1.00
C210   C     0.16650   0.50005   0.07309   0.00000  Uiso   1.00
C211   C     0.16683   0.49995   0.26025   0.00000  Uiso   1.00
C212   C     0.16660   0.50007   0.02185   0.00000  Uiso   1.00
C213   C     0.16673   0.49993   0.31149   0.00000  Uiso   1.00
C214   C     0.02332   0.47181   0.20023   0.00000  Uiso   1.00
C215   C     0.31002   0.52819   0.13311   0.00000  Uiso   1.00
C216   C     0.31345   0.47348   0.20167   0.00000  Uiso   1.00
H217   H     0.01393   0.38712   0.22842   0.00000  Uiso   1.00
H218   H     0.06159   0.49488   0.06034   0.00000  Uiso   1.00
H219   H     0.01142   0.51772   0.03616   0.00000  Uiso   1.00
H220   H     0.05931   0.54556   0.02479   0.00000  Uiso   1.00
H221   H     0.25241   0.36803   0.23523   0.00000  Uiso   1.00
H222   H     0.22118   0.41536   0.23363   0.00000  Uiso   1.00
H223   H     0.20988   0.37373   0.27779   0.00000  Uiso   1.00
H224   H     0.11215   0.58464   0.09970   0.00000  Uiso   1.00
H225   H     0.08093   0.63197   0.09810   0.00000  Uiso   1.00
H226   H     0.12346   0.62626   0.05554   0.00000  Uiso   1.00
H227   H     0.09532   0.36452   0.06819   0.00000  Uiso   1.00
H228   H     0.05162   0.39641   0.18061   0.00000  Uiso   1.00
H229   H     0.10523   0.41291   0.10103   0.00000  Uiso   1.00
H230   H     0.14366   0.39120   0.05965   0.00000  Uiso   1.00
H231   H     0.18968   0.60880   0.27368   0.00000  Uiso   1.00
H232   H     0.22811   0.58709   0.23230   0.00000  Uiso   1.00
H233   H     0.23802   0.63548   0.26514   0.00000  Uiso   1.00
H234   H     0.06894   0.38250   0.24364   0.00000  Uiso   1.00
H235   H     0.31939   0.61288   0.10482   0.00000  Uiso   1.00
H236   H     0.26436   0.61749   0.08974   0.00000  Uiso   1.00
H237   H     0.28178   0.60359   0.15274   0.00000  Uiso   1.00
H238   H     0.27400   0.45445   0.30854   0.00000  Uiso   1.00
H239   H     0.27177   0.50514   0.27299   0.00000  Uiso   1.00
H240   H     0.32192   0.48226   0.29719   0.00000  Uiso   1.00
N241   N     0.16667   0.61907   0.16667   0.00000  Uiso   1.00
N242   N     0.16667   0.38093   0.16667   0.00000  Uiso   1.00
O243   O     0.10559   0.53821   0.16666   0.00000  Uiso   1.00
O244   O     0.28635   0.55350   0.09844   0.00000  Uiso   1.00
O245   O     0.29353   0.44860   0.23676   0.00000  Uiso   1.00
O246   O     0.03981   0.55141   0.09657   0.00000  Uiso   1.00
O247   O     0.22774   0.46179   0.16667   0.00000  Uiso   1.00
O248   O     0.22774   0.53821   0.16667   0.00000  Uiso   1.00
O249   O     0.10559   0.46179   0.16666   0.00000  Uiso   1.00
O250   O     0.16667   0.53821   0.09511   0.00000  Uiso   1.00
O251   O     0.16666   0.46179   0.23822   0.00000  Uiso   1.00
O252   O     0.16666   0.53821   0.23822   0.00000  Uiso   1.00
O253   O     0.16667   0.46179   0.09511   0.00000  Uiso   1.00
O254   O     0.04698   0.44650   0.23489   0.00000  Uiso   1.00
Zn255  Zn    0.16667   0.55104   0.16667   0.00000  Uiso   1.00
Zn256  Zn    0.16667   0.44896   0.16667   0.00000  Uiso   1.00
C257   C     0.42028   0.50006   0.16675   0.00000  Uiso   1.00
C258   C     0.35321   0.52652   0.13166   0.00000  Uiso   1.00
C259   C     0.62396   0.50016   0.16675   0.00000  Uiso   1.00
C260   C     0.37604   0.49984   0.16659   0.00000  Uiso   1.00
C261   C     0.52423   0.35669   0.20153   0.00000  Uiso   1.00
C262   C     0.47577   0.64331   0.13180   0.00000  Uiso   1.00
C263   C     0.47656   0.35773   0.13098   0.00000  Uiso   1.00
C264   C     0.52344   0.64227   0.20235   0.00000  Uiso   1.00
C265   C     0.37819   0.40138   0.22077   0.00000  Uiso   1.00
C266   C     0.62181   0.59862   0.11256   0.00000  Uiso   1.00
C267   C     0.62373   0.47420   0.28052   0.00000  Uiso   1.00
C268   C     0.57972   0.49994   0.16658   0.00000  Uiso   1.00
C269   C     0.37627   0.52580   0.05281   0.00000  Uiso   1.00
C270   C     0.55311   0.37984   0.23911   0.00000  Uiso   1.00
C271   C     0.44689   0.62016   0.09423   0.00000  Uiso   1.00
C272   C     0.45418   0.38286   0.08806   0.00000  Uiso   1.00
C273   C     0.54583   0.61714   0.24527   0.00000  Uiso   1.00
C274   C     0.49983   0.50005   0.07309   0.00000  Uiso   1.00
C275   C     0.50017   0.49995   0.26025   0.00000  Uiso   1.00
C276   C     0.49994   0.50007   0.02185   0.00000  Uiso   1.00
C277   C     0.50006   0.49993   0.31149   0.00000  Uiso   1.00
C278   C     0.35665   0.47181   0.20023   0.00000  Uiso   1.00
C279   C     0.64335   0.52819   0.13311   0.00000  Uiso   1.00
C280   C     0.64679   0.47348   0.20167   0.00000  Uiso   1.00
H281   H     0.34726   0.38712   0.22842   0.00000  Uiso   1.00
H282   H     0.39492   0.49488   0.06034   0.00000  Uiso   1.00
H283   H     0.34475   0.51772   0.03616   0.00000  Uiso   1.00
H284   H     0.39265   0.54556   0.02479   0.00000  Uiso   1.00
H285   H     0.58574   0.36803   0.23523   0.00000  Uiso   1.00
H286   H     0.55451   0.41536   0.23363   0.00000  Uiso   1.00
H287   H     0.54321   0.37373   0.27779   0.00000  Uiso   1.00
H288   H     0.44549   0.58464   0.09970   0.00000  Uiso   1.00
H289   H     0.41426   0.63197   0.09810   0.00000  Uiso   1.00
H290   H     0.45679   0.62626   0.05554   0.00000  Uiso   1.00
H291   H     0.42866   0.36452   0.06819   0.00000  Uiso   1.00
H292   H     0.38495   0.39641   0.18061   0.00000  Uiso   1.00
H293   H     0.43856   0.41291   0.10103   0.00000  Uiso   1.00
H294   H     0.47699   0.39120   0.05965   0.00000  Uiso   1.00
H295   H     0.52302   0.60880   0.27368   0.00000  Uiso   1.00
H296   H     0.56144   0.58709   0.23230   0.00000  Uiso   1.00
H297   H     0.57135   0.63548   0.26514   0.00000  Uiso   1.00
H298   H     0.40227   0.38250   0.24364   0.00000  Uiso   1.00
H299   H     0.65272   0.61288   0.10482   0.00000  Uiso   1.00
H300   H     0.59769   0.61749   0.08974   0.00000  Uiso   1.00
H301   H     0.61512   0.60359   0.15274   0.00000  Uiso   1.00
H302   H     0.60734   0.45445   0.30854   0.00000  Uiso   1.00
H303   H     0.60510   0.50514   0.27299   0.00000  Uiso   1.00
H304   H     0.65525   0.48226   0.29719   0.00000  Uiso   1.00
N305   N     0.50000   0.61907   0.16667   0.00000  Uiso   1.00
N306   N     0.50000   0.38093   0.16667   0.00000  Uiso   1.00
O307   O     0.43892   0.53821   0.16666   0.00000  Uiso   1.00
O308   O     0.61968   0.55350   0.09844   0.00000  Uiso   1.00
O309   O     0.62686   0.44860   0.23676   0.00000  Uiso   1.00
O310   O     0.37314   0.55141   0.09657   0.00000  Uiso   1.00
O311   O     0.56108   0.46179   0.16667   0.00000  Uiso   1.00
O312   O     0.56108   0.53821   0.16667   0.00000  Uiso   1.00
O313   O     0.43892   0.46179   0.16666   0.00000  Uiso   1.00
O314   O     0.50000   0.53821   0.09511   0.00000  Uiso   1.00
O315   O     0.50000   0.46179   0.23822   0.00000  Uiso   1.00
O316   O     0.50000   0.53821   0.23822   0.00000  Uiso   1.00
O317   O     0.50000   0.46179   0.09511   0.00000  Uiso   1.00
O318   O     0.38032   0.44650   0.23489   0.00000  Uiso   1.00
Zn319  Zn    0.50000   0.55104   0.16667   0.00000  Uiso   1.00
Zn320  Zn    0.50000   0.44896   0.16667   0.00000  Uiso   1.00
C321   C     0.75361   0.50006   0.16675   0.00000  Uiso   1.00
C322   C     0.68655   0.52652   0.13166   0.00000  Uiso   1.00
C323   C     0.95730   0.50016   0.16675   0.00000  Uiso   1.00
C324   C     0.70937   0.49984   0.16659   0.00000  Uiso   1.00
C325   C     0.85756   0.35669   0.20153   0.00000  Uiso   1.00
C326   C     0.80911   0.64331   0.13180   0.00000  Uiso   1.00
C327   C     0.80990   0.35773   0.13098   0.00000  Uiso   1.00
C328   C     0.85677   0.64227   0.20235   0.00000  Uiso   1.00
C329   C     0.71152   0.40138   0.22077   0.00000  Uiso   1.00
C330   C     0.95515   0.59862   0.11256   0.00000  Uiso   1.00
C331   C     0.95707   0.47420   0.28052   0.00000  Uiso   1.00
C332   C     0.91305   0.49994   0.16658   0.00000  Uiso   1.00
C333   C     0.70960   0.52580   0.05281   0.00000  Uiso   1.00
C334   C     0.88644   0.37984   0.23911   0.00000  Uiso   1.00
C335   C     0.78023   0.62016   0.09423   0.00000  Uiso   1.00
C336   C     0.78751   0.38286   0.08806   0.00000  Uiso   1.00
C337   C     0.87916   0.61714   0.24527   0.00000  Uiso   1.00
C338   C     0.83317   0.50005   0.07309   0.00000  Uiso   1.00
C339   C     0.83350   0.49995   0.26025   0.00000  Uiso   1.00
C340   C     0.83327   0.50007   0.02185   0.00000  Uiso   1.00
C341   C     0.83340   0.49993   0.31149   0.00000  Uiso   1.00
C342   C     0.68998   0.47181   0.20023   0.00000  Uiso   1.00
C343   C     0.97668   0.52819   0.13311   0.00000  Uiso   1.00
C344   C     0.98012   0.47348   0.20167   0.00000  Uiso   1.00
H345   H     0.68060   0.38712   0.22842   0.00000  Uiso   1.00
H346   H     0.72825   0.49488   0.06034   0.00000  Uiso   1.00
H347   H     0.67809   0.51772   0.03616   0.00000  Uiso   1.00
H348   H     0.72598   0.54556   0.02479   0.00000  Uiso   1.00
H349   H     0.91907   0.36803   0.23523   0.00000  Uiso   1.00
H350   H     0.88785   0.41536   0.23363   0.00000  Uiso   1.00
H351   H     0.87654   0.37373   0.27779   0.00000  Uiso   1.00
H352   H     0.77882   0.58464   0.09970   0.00000  Uiso   1.00
H353   H     0.74759   0.63197   0.09810   0.00000  Uiso   1.00
H354   H     0.79013   0.62626   0.05554   0.00000  Uiso   1.00
H355   H     0.76199   0.36452   0.06819   0.00000  Uiso   1.00
H356   H     0.71828   0.39641   0.18061   0.00000  Uiso   1.00
H357   H     0.77189   0.41291   0.10103   0.00000  Uiso   1.00
H358   H     0.81032   0.39120   0.05965   0.00000  Uiso   1.00
H359   H     0.85635   0.60880   0.27368   0.00000  Uiso   1.00
H360   H     0.89477   0.58709   0.23230   0.00000  Uiso   1.00
H361   H     0.90468   0.63548   0.26514   0.00000  Uiso   1.00
H362   H     0.73560   0.38250   0.24364   0.00000  Uiso   1.00
H363   H     0.98605   0.61288   0.10482   0.00000  Uiso   1.00
H364   H     0.93102   0.61749   0.08974   0.00000  Uiso   1.00
H365   H     0.94845   0.60359   0.15274   0.00000  Uiso   1.00
H366   H     0.94067   0.45445   0.30854   0.00000  Uiso   1.00
H367   H     0.93844   0.50514   0.27299   0.00000  Uiso   1.00
H368   H     0.98859   0.48226   0.29719   0.00000  Uiso   1.00
N369   N     0.83333   0.61907   0.16667   0.00000  Uiso   1.00
N370   N     0.83333   0.38093   0.16667   0.00000  Uiso   1.00
O371   O     0.77226   0.53821   0.16666   0.00000  Uiso   1.00
O372   O     0.95301   0.55350   0.09844   0.00000  Uiso   1.00
O373   O     0.96019   0.44860   0.23676   0.00000  Uiso   1.00
O374   O     0.70647   0.55141   0.09657   0.00000  Uiso   1.00
O375   O     0.89441   0.46179   0.16667   0.00000  Uiso   1.00
O376   O     0.89441   0.53821   0.16667   0.00000  Uiso   1.00
O377   O     0.77226   0.46179   0.16666   0.00000  Uiso   1.00
O378   O     0.83334   0.53821   0.09511   0.00000  Uiso   1.00
O379   O     0.83333   0.46179   0.23822   0.00000  Uiso   1.00
O380   O     0.83333   0.53821   0.23822   0.00000  Uiso   1.00
O381   O     0.83334   0.46179   0.09511   0.00000  Uiso   1.00
O382   O     0.71365   0.44650   0.23489   0.00000  Uiso   1.00
Zn383  Zn    0.83333   0.55104   0.16667   0.00000  Uiso   1.00
Zn384  Zn    0.83333   0.44896   0.16667   0.00000  Uiso   1.00
C385   C     0.08695   0.83340   0.16675   0.00000  Uiso   1.00
C386   C     0.01988   0.85986   0.13166   0.00000  Uiso   1.00
C387   C     0.29063   0.83349   0.16675   0.00000  Uiso   1.00
C388   C     0.04270   0.83318   0.16659   0.00000  Uiso   1.00
C389   C     0.19089   0.69003   0.20153   0.00000  Uiso   1.00
C390   C     0.14244   0.97664   0.13180   0.00000  Uiso   1.00
C391   C     0.14323   0.69106   0.13098   0.00000  Uiso   1.00
C392   C     0.19010   0.97560   0.20235   0.00000  Uiso   1.00
C393   C     0.04486   0.73472   0.22077   0.00000  Uiso   1.00
C394   C     0.28848   0.93195   0.11256   0.00000  Uiso   1.00
C395   C     0.29040   0.80753   0.28052   0.00000  Uiso   1.00
C396   C     0.24639   0.83327   0.16658   0.00000  Uiso   1.00
C397   C     0.04294   0.85914   0.05281   0.00000  Uiso   1.00
C398   C     0.21977   0.71318   0.23911   0.00000  Uiso   1.00
C399   C     0.11356   0.95349   0.09423   0.00000  Uiso   1.00
C400   C     0.12084   0.71619   0.08806   0.00000  Uiso   1.00
C401   C     0.21249   0.95048   0.24527   0.00000  Uiso   1.00
C402   C     0.16650   0.83338   0.07309   0.00000  Uiso   1.00
C403   C     0.16683   0.83328   0.26025   0.00000  Uiso   1.00
C404   C     0.16660   0.83341   0.02185   0.00000  Uiso   1.00
C405   C     0.16673   0.83326   0.31149   0.00000  Uiso   1.00
C406   C     0.02332   0.80514   0.20023   0.00000  Uiso   1.00
C407   C     0.31002   0.86153   0.13311   0.00000  Uiso   1.00
C408   C     0.31345   0.80681   0.20167   0.00000  Uiso   1.00
H409   H     0.01393   0.72046   0.22842   0.00000  Uiso   1.00
H410   H     0.06159   0.82822   0.06034   0.00000  Uiso   1.00
H411   H     0.01142   0.85106   0.03616   0.00000  Uiso   1.00
H412   H     0.05931   0.87890   0.02479   0.00000  Uiso   1.00
H413   H     0.25241   0.70136   0.23523   0.00000  Uiso   1.00
H414   H     0.22118   0.74869   0.23363   0.00000  Uiso   1.00
H415   H     0.20988   0.70707   0.27779   0.00000  Uiso   1.00
H416   H     0.11215   0.91797   0.09970   0.00000  Uiso   1.00
H417   H     0.08093   0.96530   0.09810   0.00000  Uiso   1.00
H418   H     0.12346   0.95960   0.05554   0.00000  Uiso   1.00
H419   H     0.09532   0.69786   0.06819   0.00000  Uiso   1.00
H420   H     0.05162   0.72975   0.18061   0.00000  Uiso   1.00
H421   H     0.10523   0.74625   0.10103   0.00000  Uiso   1.00
H422   H     0.14366   0.72453   0.05965   0.00000  Uiso   1.00
H423   H     0.18968   0.94214   0.27368   0.00000  Uiso   1.00
H424   H     0.22811   0.92042   0.23230   0.00000  Uiso   1.00
H425   H     0.23802   0.96881   0.26514   0.00000  Uiso   1.00
H426   H     0.06894   0.71584   0.24364   0.00000  Uiso   1.00
H427   H     0.31939   0.94622   0.10482   0.00000  Uiso   1.00
H428   H     0.26436   0.95082   0.08974   0.00000  Uiso   1.00
H429   H     0.28178   0.93692   0.15274   0.00000  Uiso   1.00
H430   H     0.27400   0.78778   0.30854   0.00000  Uiso   1.00
H431   H     0.27177   0.83847   0.27299   0.00000  Uiso   1.00
H432   H     0.32192   0.81559   0.29719   0.00000  Uiso   1.00
N433   N     0.16667   0.95240   0.16667   0.00000  Uiso   1.00
N434   N     0.16667   0.71427   0.16667   0.00000  Uiso   1.00
O435   O     0.10559   0.87154   0.16666   0.00000  Uiso   1.00
O436   O     0.28635   0.88683   0.09844   0.00000  Uiso   1.00
O437   O     0.29353   0.78193   0.23676   0.00000  Uiso   1.00
O438   O     0.03981   0.88474   0.09657   0.00000  Uiso   1.00
O439   O     0.22774   0.79513   0.16667   0.00000  Uiso   1.00
O440   O     0.22774   0.87154   0.16667   0.00000  Uiso   1.00
O441   O     0.10559   0.79513   0.16666   0.00000  Uiso   1.00
O442   O     0.16667   0.87155   0.09511   0.00000  Uiso   1.00
O443   O     0.16666   0.79512   0.23822   0.00000  Uiso   1.00
O444   O     0.16666   0.87155   0.23822   0.00000  Uiso   1.00
O445   O     0.16667   0.79512   0.09511   0.00000  Uiso   1.00
O446   O     0.04698   0.77983   0.23489   0.00000  Uiso   1.00
Zn447  Zn    0.16667   0.88437   0.16667   0.00000  Uiso   1.00
Zn448  Zn    0.16667   0.78229   0.16667   0.00000  Uiso   1.00
C449   C     0.42028   0.83340   0.16675   0.00000  Uiso   1.00
C450   C     0.35321   0.85986   0.13166   0.00000  Uiso   1.00
C451   C     0.62396   0.83349   0.16675   0.00000  Uiso   1.00
C452   C     0.37604   0.83318   0.16659   0.00000  Uiso   1.00
C453   C     0.52423   0.69003   0.20153   0.00000  Uiso   1.00
C454   C     0.47577   0.97664   0.13180   0.00000  Uiso   1.00
C455   C     0.47656   0.69106   0.13098   0.00000  Uiso   1.00
C456   C     0.52344   0.97560   0.20235   0.00000  Uiso   1.00
C457   C     0.37819   0.73472   0.22077   0.00000  Uiso   1.00
C458   C     0.62181   0.93195   0.11256   0.00000  Uiso   1.00
C459   C     0.62373   0.80753   0.28052   0.00000  Uiso   1.00
C460   C     0.57972   0.83327   0.16658   0.00000  Uiso   1.00
C461   C     0.37627   0.85914   0.05281   0.00000  Uiso   1.00
C462   C     0.55311   0.71318   0.23911   0.00000  Uiso   1.00
C463   C     0.44689   0.95349   0.09423   0.00000  Uiso   1.00
C464   C     0.45418   0.71619   0.08806   0.00000  Uiso   1.00
C465   C     0.54583   0.95048   0.24527   0.00000  Uiso   1.00
C466   C     0.49983   0.83338   0.07309   0.00000  Uiso   1.00
C467   C     0.50017   0.83328   0.26025   0.00000  Uiso   1.00
C468   C     0.49994   0.83341   0.02185   0.00000  Uiso   1.00
C469   C     0.50006   0.83326   0.31149   0.00000  Uiso   1.00
C470   C     0.35665   0.80514   0.20023   0.00000  Uiso   1.00
C471   C     0.64335   0.86153   0.13311   0.00000  Uiso   1.00
C472   C     0.64679   0.80681   0.20167   0.00000  Uiso   1.00
H473   H     0.34726   0.72046   0.22842   0.00000  Uiso   1.00
H474   H     0.39492   0.82822   0.06034   0.00000  Uiso   1.00
H475   H     0.34475   0.85106   0.03616   0.00000  Uiso   1.00
H476   H     0.39265   0.87890   0.02479   0.00000  Uiso   1.00
H477   H     0.58574   0.70136   0.23523   0.00000  Uiso   1.00
H478   H     0.55451   0.74869   0.23363   0.00000  Uiso   1.00
H479   H     0.54321   0.70707   0.27779   0.00000  Uiso   1.00
H480   H     0.44549   0.91797   0.09970   0.00000  Uiso   1.00
H481   H     0.41426   0.96530   0.09810   0.00000  Uiso   1.00
H482   H     0.45679   0.95960   0.05554   0.00000  Uiso   1.00
H483   H     0.42866   0.69786   0.06819   0.00000  Uiso   1.00
H484   H     0.38495   0.72975   0.18061   0.00000  Uiso   1.00
H485   H     0.43856   0.74625   0.10103   0.00000  Uiso   1.00
H486   H     0.47699   0.72453   0.05965   0.00000  Uiso   1.00
H487   H     0.52302   0.94214   0.27368   0.00000  Uiso   1.00
H488   H     0.56144   0.92042   0.23230   0.00000  Uiso   1.00
H489   H     0.57135   0.96881   0.26514   0.00000  Uiso   1.00
H490   H     0.40227   0.71584   0.24364   0.00000  Uiso   1.00
H491   H     0.65272   0.94622   0.10482   0.00000  Uiso   1.00
H492   H     0.59769   0.95082   0.08974   0.00000  Uiso   1.00
H493   H     0.61512   0.93692   0.15274   0.00000  Uiso   1.00
H494   H     0.60734   0.78778   0.30854   0.00000  Uiso   1.00
H495   H     0.60510   0.83847   0.27299   0.00000  Uiso   1.00
H496   H     0.65525   0.81559   0.29719   0.00000  Uiso   1.00
N497   N     0.50000   0.95240   0.16667   0.00000  Uiso   1.00
N498   N     0.50000   0.71427   0.16667   0.00000  Uiso   1.00
O499   O     0.43892   0.87154   0.16666   0.00000  Uiso   1.00
O500   O     0.61968   0.88683   0.09844   0.00000  Uiso   1.00
O501   O     0.62686   0.78193   0.23676   0.00000  Uiso   1.00
O502   O     0.37314   0.88474   0.09657   0.00000  Uiso   1.00
O503   O     0.56108   0.79513   0.16667   0.00000  Uiso   1.00
O504   O     0.56108   0.87154   0.16667   0.00000  Uiso   1.00
O505   O     0.43892   0.79513   0.16666   0.00000  Uiso   1.00
O506   O     0.50000   0.87155   0.09511   0.00000  Uiso   1.00
O507   O     0.50000   0.79512   0.23822   0.00000  Uiso   1.00
O508   O     0.50000   0.87155   0.23822   0.00000  Uiso   1.00
O509   O     0.50000   0.79512   0.09511   0.00000  Uiso   1.00
O510   O     0.38032   0.77983   0.23489   0.00000  Uiso   1.00
Zn511  Zn    0.50000   0.88437   0.16667   0.00000  Uiso   1.00
Zn512  Zn    0.50000   0.78229   0.16667   0.00000  Uiso   1.00
C513   C     0.75361   0.83340   0.16675   0.00000  Uiso   1.00
C514   C     0.68655   0.85986   0.13166   0.00000  Uiso   1.00
C515   C     0.95730   0.83349   0.16675   0.00000  Uiso   1.00
C516   C     0.70937   0.83318   0.16659   0.00000  Uiso   1.00
C517   C     0.85756   0.69003   0.20153   0.00000  Uiso   1.00
C518   C     0.80911   0.97664   0.13180   0.00000  Uiso   1.00
C519   C     0.80990   0.69106   0.13098   0.00000  Uiso   1.00
C520   C     0.85677   0.97560   0.20235   0.00000  Uiso   1.00
C521   C     0.71152   0.73472   0.22077   0.00000  Uiso   1.00
C522   C     0.95515   0.93195   0.11256   0.00000  Uiso   1.00
C523   C     0.95707   0.80753   0.28052   0.00000  Uiso   1.00
C524   C     0.91305   0.83327   0.16658   0.00000  Uiso   1.00
C525   C     0.70960   0.85914   0.05281   0.00000  Uiso   1.00
C526   C     0.88644   0.71318   0.23911   0.00000  Uiso   1.00
C527   C     0.78023   0.95349   0.09423   0.00000  Uiso   1.00
C528   C     0.78751   0.71619   0.08806   0.00000  Uiso   1.00
C529   C     0.87916   0.95048   0.24527   0.00000  Uiso   1.00
C530   C     0.83317   0.83338   0.07309   0.00000  Uiso   1.00
C531   C     0.83350   0.83328   0.26025   0.00000  Uiso   1.00
C532   C     0.83327   0.83341   0.02185   0.00000  Uiso   1.00
C533   C     0.83340   0.83326   0.31149   0.00000  Uiso   1.00
C534   C     0.68998   0.80514   0.20023   0.00000  Uiso   1.00
C535   C     0.97668   0.86153   0.13311   0.00000  Uiso   1.00
C536   C     0.98012   0.80681   0.20167   0.00000  Uiso   1.00
H537   H     0.68060   0.72046   0.22842   0.00000  Uiso   1.00
H538   H     0.72825   0.82822   0.06034   0.00000  Uiso   1.00
H539   H     0.67809   0.85106   0.03616   0.00000  Uiso   1.00
H540   H     0.72598   0.87890   0.02479   0.00000  Uiso   1.00
H541   H     0.91907   0.70136   0.23523   0.00000  Uiso   1.00
H542   H     0.88785   0.74869   0.23363   0.00000  Uiso   1.00
H543   H     0.87654   0.70707   0.27779   0.00000  Uiso   1.00
H544   H     0.77882   0.91797   0.09970   0.00000  Uiso   1.00
H545   H     0.74759   0.96530   0.09810   0.00000  Uiso   1.00
H546   H     0.79013   0.95960   0.05554   0.00000  Uiso   1.00
H547   H     0.76199   0.69786   0.06819   0.00000  Uiso   1.00
H548   H     0.71828   0.72975   0.18061   0.00000  Uiso   1.00
H549   H     0.77189   0.74625   0.10103   0.00000  Uiso   1.00
H550   H     0.81032   0.72453   0.05965   0.00000  Uiso   1.00
H551   H     0.85635   0.94214   0.27368   0.00000  Uiso   1.00
H552   H     0.89477   0.92042   0.23230   0.00000  Uiso   1.00
H553   H     0.90468   0.96881   0.26514   0.00000  Uiso   1.00
H554   H     0.73560   0.71584   0.24364   0.00000  Uiso   1.00
H555   H     0.98605   0.94622   0.10482   0.00000  Uiso   1.00
H556   H     0.93102   0.95082   0.08974   0.00000  Uiso   1.00
H557   H     0.94845   0.93692   0.15274   0.00000  Uiso   1.00
H558   H     0.94067   0.78778   0.30854   0.00000  Uiso   1.00
H559   H     0.93844   0.83847   0.27299   0.00000  Uiso   1.00
H560   H     0.98859   0.81559   0.29719   0.00000  Uiso   1.00
N561   N     0.83333   0.95240   0.16667   0.00000  Uiso   1.00
N562   N     0.83333   0.71427   0.16667   0.00000  Uiso   1.00
O563   O     0.77226   0.87154   0.16666   0.00000  Uiso   1.00
O564   O     0.95301   0.88683   0.09844   0.00000  Uiso   1.00
O565   O     0.96019   0.78193   0.23676   0.00000  Uiso   1.00
O566   O     0.70647   0.88474   0.09657   0.00000  Uiso   1.00
O567   O     0.89441   0.79513   0.16667   0.00000  Uiso   1.00
O568   O     0.89441   0.87154   0.16667   0.00000  Uiso   1.00
O569   O     0.77226   0.79513   0.16666   0.00000  Uiso   1.00
O570   O     0.83334   0.87155   0.09511   0.00000  Uiso   1.00
O571   O     0.83333   0.79512   0.23822   0.00000  Uiso   1.00
O572   O     0.83333   0.87155   0.23822   0.00000  Uiso   1.00
O573   O     0.83334   0.79512   0.09511   0.00000  Uiso   1.00
O574   O     0.71365   0.77983   0.23489   0.00000  Uiso   1.00
Zn575  Zn    0.83333   0.88437   0.16667   0.00000  Uiso   1.00
Zn576  Zn    0.83333   0.78229   0.16667   0.00000  Uiso   1.00
C577   C     0.08695   0.16673   0.50008   0.00000  Uiso   1.00
C578   C     0.01988   0.19319   0.46500   0.00000  Uiso   1.00
C579   C     0.29063   0.16682   0.50008   0.00000  Uiso   1.00
C580   C     0.04270   0.16651   0.49992   0.00000  Uiso   1.00
C581   C     0.19089   0.02336   0.53487   0.00000  Uiso   1.00
C582   C     0.14244   0.30997   0.46513   0.00000  Uiso   1.00
C583   C     0.14323   0.02440   0.46432   0.00000  Uiso   1.00
C584   C     0.19010   0.30894   0.53568   0.00000  Uiso   1.00
C585   C     0.04486   0.06805   0.55410   0.00000  Uiso   1.00
C586   C     0.28848   0.26528   0.44589   0.00000  Uiso   1.00
C587   C     0.29040   0.14087   0.61386   0.00000  Uiso   1.00
C588   C     0.24639   0.16660   0.49992   0.00000  Uiso   1.00
C589   C     0.04294   0.19247   0.38615   0.00000  Uiso   1.00
C590   C     0.21977   0.04651   0.57244   0.00000  Uiso   1.00
C591   C     0.11356   0.28682   0.42756   0.00000  Uiso   1.00
C592   C     0.12084   0.04952   0.42139   0.00000  Uiso   1.00
C593   C     0.21249   0.28381   0.57861   0.00000  Uiso   1.00
C594   C     0.16650   0.16672   0.40642   0.00000  Uiso   1.00
C595   C     0.16683   0.16662   0.59358   0.00000  Uiso   1.00
C596   C     0.16660   0.16674   0.35518   0.00000  Uiso   1.00
C597   C     0.16673   0.16659   0.64482   0.00000  Uiso   1.00
C598   C     0.02332   0.13847   0.53356   0.00000  Uiso   1.00
C599   C     0.31002   0.19486   0.46644   0.00000  Uiso   1.00
C600   C     0.31345   0.14014   0.53500   0.00000  Uiso   1.00
H601   H     0.01393   0.05379   0.56176   0.00000  Uiso   1.00
H602   H     0.06159   0.16155   0.39368   0.00000  Uiso   1.00
H603   H     0.01142   0.18439   0.36949   0.00000  Uiso   1.00
H604   H     0.05931   0.21223   0.35813   0.00000  Uiso   1.00
H605   H     0.25241   0.03470   0.56856   0.00000  Uiso   1.00
H606   H     0.22118   0.08203   0.56696   0.00000  Uiso   1.00
H607   H     0.20988   0.04040   0.61113   0.00000  Uiso   1.00
H608   H     0.11215   0.25131   0.43304   0.00000  Uiso   1.00
H609   H     0.08093   0.29864   0.43144   0.00000  Uiso   1.00
H610   H     0.12346   0.29293   0.38887   0.00000  Uiso   1.00
H611   H     0.09532   0.03119   0.40152   0.00000  Uiso   1.00
H612   H     0.05162   0.06308   0.51394   0.00000  Uiso   1.00
H613   H     0.10523   0.07958   0.43437   0.00000  Uiso   1.00
H614   H     0.14366   0.05786   0.39299   0.00000  Uiso   1.00
H615   H     0.18968   0.27547   0.60701   0.00000  Uiso   1.00
H616   H     0.22811   0.25375   0.56563   0.00000  Uiso   1.00
H617   H     0.23802   0.30214   0.59847   0.00000  Uiso   1.00
H618   H     0.06894   0.04917   0.57697   0.00000  Uiso   1.00
H619   H     0.31939   0.27955   0.43816   0.00000  Uiso   1.00
H620   H     0.26436   0.28415   0.42308   0.00000  Uiso   1.00
H621   H     0.28178   0.27026   0.48607   0.00000  Uiso   1.00
H622   H     0.27400   0.12112   0.64187   0.00000  Uiso   1.00
H623   H     0.27177   0.17180   0.60632   0.00000  Uiso   1.00
H624   H     0.32192   0.14893   0.63052   0.00000  Uiso   1.00
N625   N     0.16667   0.28573   0.50000   0.00000  Uiso   1.00
N626   N     0.16667   0.04760   0.50000   0.00000  Uiso   1.00
O627   O     0.10559   0.20487   0.50000   0.00000  Uiso   1.00
O628   O     0.28635   0.22016   0.43178   0.00000  Uiso   1.00
O629   O     0.29353   0.11526   0.57010   0.00000  Uiso   1.00
O630   O     0.03981   0.21807   0.42991   0.00000  Uiso   1.00
O631   O     0.22774   0.12846   0.50000   0.00000  Uiso   1.00
O632   O     0.22774   0.20487   0.50000   0.00000  Uiso   1.00
O633   O     0.10559   0.12846   0.50000   0.00000  Uiso   1.00
O634   O     0.16667   0.20488   0.42845   0.00000  Uiso   1.00
O635   O     0.16666   0.12845   0.57155   0.00000  Uiso   1.00
O636   O     0.16666   0.20488   0.57155   0.00000  Uiso   1.00
O637   O     0.16667   0.12845   0.42845   0.00000  Uiso   1.00
O638   O     0.04698   0.11317   0.56822   0.00000  Uiso   1.00
Zn639  Zn    0.16667   0.21771   0.50000   0.00000  Uiso   1.00
Zn640  Zn    0.16667   0.11563   0.50000   0.00000  Uiso   1.00
C641   C     0.42028   0.16673   0.50008   0.00000  Uiso   1.00
C642   C     0.35321   0.19319   0.46500   0.00000  Uiso   1.00
C643   C     0.62396   0.16682   0.50008   0.00000  Uiso   1.00
C644   C     0.37604   0.16651   0.49992   0.00000  Uiso   1.00
C645   C     0.52423   0.02336   0.53487   0.00000  Uiso   1.00
C646   C     0.47577   0.30997   0.46513   0.00000  Uiso   1.00
C647   C     0.47656   0.02440   0.46432   0.00000  Uiso   1.00
C648   C     0.52344   0.30894   0.53568   0.00000  Uiso   1.00
C649   C     0.37819   0.06805   0.55410   0.00000  Uiso   1.00
C650   C     0.62181   0.26528   0.44589   0.00000  Uiso   1.00
C651   C     0.62373   0.14087   0.61386   0.00000  Uiso   1.00
C652   C     0.57972   0.16660   0.49992   0.00000  Uiso   1.00
C653   C     0.37627   0.19247   0.38615   0.00000  Uiso   1.00
C654   C     0.55311   0.04651   0.57244   0.00000  Uiso   1.00
C655   C     0.44689   0.28682   0.42756   0.00000  Uiso   1.00
C656   C     0.45418   0.04952   0.42139   0.00000  Uiso   1.00
C657   C     0.54583   0.28381   0.57861   0.00000  Uiso   1.00
C658   C     0.49983   0.16672   0.40642   0.00000  Uiso   1.00
C659   C     0.50017   0.16662   0.59358   0.00000  Uiso   1.00
C660   C     0.49994   0.16674   0.35518   0.00000  Uiso   1.00
C661   C     0.50006   0.16659   0.64482   0.00000  Uiso   1.00
C662   C     0.35665   0.13847   0.53356   0.00000  Uiso   1.00
C663   C     0.64335   0.19486   0.46644   0.00000  Uiso   1.00
C664   C     0.64679   0.14014   0.53500   0.00000  Uiso   1.00
H665   H     0.34726   0.05379   0.56176   0.00000  Uiso   1.00
H666   H     0.39492   0.16155   0.39368   0.00000  Uiso   1.00
H667   H     0.34475   0.18439   0.36949   0.00000  Uiso   1.00
H668   H     0.39265   0.21223   0.35813   0.00000  Uiso   1.00
H669   H     0.58574   0.03470   0.56856   0.00000  Uiso   1.00
H670   H     0.55451   0.08203   0.56696   0.00000  Uiso   1.00
H671   H     0.54321   0.04040   0.61113   0.00000  Uiso   1.00
H672   H     0.44549   0.25131   0.43304   0.00000  Uiso   1.00
H673   H     0.41426   0.29864   0.43144   0.00000  Uiso   1.00
H674   H     0.45679   0.29293   0.38887   0.00000  Uiso   1.00
H675   H     0.42866   0.03119   0.40152   0.00000  Uiso   1.00
H676   H     0.38495   0.06308   0.51394   0.00000  Uiso   1.00
H677   H     0.43856   0.07958   0.43437   0.00000  Uiso   1.00
H678   H     0.47699   0.05786   0.39299   0.00000  Uiso   1.00
H679   H     0.52302   0.27547   0.60701   0.00000  Uiso   1.00
H680   H     0.56144   0.25375   0.56563   0.00000  Uiso   1.00
H681   H     0.57135   0.30214   0.59847   0.00000  Uiso   1.00
H682   H     0.40227   0.04917   0.57697   0.00000  Uiso   1.00
H683   H     0.65272   0.27955   0.43816   0.00000  Uiso   1.00
H684   H     0.59769   0.28415   0.42308   0.00000  Uiso   1.00
H685   H     0.61512   0.27026   0.48607   0.00000  Uiso   1.00
H686   H     0.60734   0.12112   0.64187   0.00000  Uiso   1.00
H687   H     0.60510   0.17180   0.60632   0.00000  Uiso   1.00
H688   H     0.65525   0.14893   0.63052   0.00000  Uiso   1.00
N689   N     0.50000   0.28573   0.50000   0.00000  Uiso   1.00
N690   N     0.50000   0.04760   0.50000   0.00000  Uiso   1.00
O691   O     0.43892   0.20487   0.50000   0.00000  Uiso   1.00
O692   O     0.61968   0.22016   0.43178   0.00000  Uiso   1.00
O693   O     0.62686   0.11526   0.57010   0.00000  Uiso   1.00
O694   O     0.37314   0.21807   0.42991   0.00000  Uiso   1.00
O695   O     0.56108   0.12846   0.50000   0.00000  Uiso   1.00
O696   O     0.56108   0.20487   0.50000   0.00000  Uiso   1.00
O697   O     0.43892   0.12846   0.50000   0.00000  Uiso   1.00
O698   O     0.50000   0.20488   0.42845   0.00000  Uiso   1.00
O699   O     0.50000   0.12845   0.57155   0.00000  Uiso   1.00
O700   O     0.50000   0.20488   0.57155   0.00000  Uiso   1.00
O701   O     0.50000   0.12845   0.42845   0.00000  Uiso   1.00
O702   O     0.38032   0.11317   0.56822   0.00000  Uiso   1.00
Zn703  Zn    0.50000   0.21771   0.50000   0.00000  Uiso   1.00
Zn704  Zn    0.50000   0.11563   0.50000   0.00000  Uiso   1.00
C705   C     0.75361   0.16673   0.50008   0.00000  Uiso   1.00
C706   C     0.68655   0.19319   0.46500   0.00000  Uiso   1.00
C707   C     0.95730   0.16682   0.50008   0.00000  Uiso   1.00
C708   C     0.70937   0.16651   0.49992   0.00000  Uiso   1.00
C709   C     0.85756   0.02336   0.53487   0.00000  Uiso   1.00
C710   C     0.80911   0.30997   0.46513   0.00000  Uiso   1.00
C711   C     0.80990   0.02440   0.46432   0.00000  Uiso   1.00
C712   C     0.85677   0.30894   0.53568   0.00000  Uiso   1.00
C713   C     0.71152   0.06805   0.55410   0.00000  Uiso   1.00
C714   C     0.95515   0.26528   0.44589   0.00000  Uiso   1.00
C715   C     0.95707   0.14087   0.61386   0.00000  Uiso   1.00
C716   C     0.91305   0.16660   0.49992   0.00000  Uiso   1.00
C717   C     0.70960   0.19247   0.38615   0.00000  Uiso   1.00
C718   C     0.88644   0.04651   0.57244   0.00000  Uiso   1.00
C719   C     0.78023   0.28682   0.42756   0.00000  Uiso   1.00
C720   C     0.78751   0.04952   0.42139   0.00000  Uiso   1.00
C721   C     0.87916   0.28381   0.57861   0.00000  Uiso   1.00
C722   C     0.83317   0.16672   0.40642   0.00000  Uiso   1.00
C723   C     0.83350   0.16662   0.59358   0.00000  Uiso   1.00
C724   C     0.83327   0.16674   0.35518   0.00000  Uiso   1.00
C725   C     0.83340   0.16659   0.64482   0.00000  Uiso   1.00
C726   C     0.68998   0.13847   0.53356   0.00000  Uiso   1.00
C727   C     0.97668   0.19486   0.46644   0.00000  Uiso   1.00
C728   C     0.98012   0.14014   0.53500   0.00000  Uiso   1.00
H729   H     0.68060   0.05379   0.56176   0.00000  Uiso   1.00
H730   H     0.72825   0.16155   0.39368   0.00000  Uiso   1.00
H731   H     0.67809   0.18439   0.36949   0.00000  Uiso   1.00
H732   H     0.72598   0.21223   0.35813   0.00000  Uiso   1.00
H733   H     0.91907   0.03470   0.56856   0.00000  Uiso   1.00
H734   H     0.88785   0.08203   0.56696   0.00000  Uiso   1.00
H735   H     0.87654   0.04040   0.61113   0.00000  Uiso   1.00
H736   H     0.77882   0.25131   0.43304   0.00000  Uiso   1.00
H737   H     0.74759   0.29864   0.43144   0.00000  Uiso   1.00
H738   H     0.79013   0.29293   0.38887   0.00000  Uiso   1.00
H739   H     0.76199   0.03119   0.40152   0.00000  Uiso   1.00
H740   H     0.71828   0.06308   0.51394   0.00000  Uiso   1.00
H741   H     0.77189   0.07958   0.43437   0.00000  Uiso   1.00
H742   H     0.81032   0.05786   0.39299   0.00000  Uiso   1.00
H743   H     0.85635   0.27547   0.60701   0.00000  Uiso   1.00
H744   H     0.89477   0.25375   0.56563   0.00000  Uiso   1.00
H745   H     0.90468   0.30214   0.59847   0.00000  Uiso   1.00
H746   H     0.73560   0.04917   0.57697   0.00000  Uiso   1.00
H747   H     0.98605   0.27955   0.43816   0.00000  Uiso   1.00
H748   H     0.93102   0.28415   0.42308   0.00000  Uiso   1.00
H749   H     0.94845   0.27026   0.48607   0.00000  Uiso   1.00
H750   H     0.94067   0.12112   0.64187   0.00000  Uiso   1.00
H751   H     0.93844   0.17180   0.60632   0.00000  Uiso   1.00
H752   H     0.98859   0.14893   0.63052   0.00000  Uiso   1.00
N753   N     0.83333   0.28573   0.50000   0.00000  Uiso   1.00
N754   N     0.83333   0.04760   0.50000   0.00000  Uiso   1.00
O755   O     0.77226   0.20487   0.50000   0.00000  Uiso   1.00
O756   O     0.95301   0.22016   0.43178   0.00000  Uiso   1.00
O757   O     0.96019   0.11526   0.57010   0.00000  Uiso   1.00
O758   O     0.70647   0.21807   0.42991   0.00000  Uiso   1.00
O759   O     0.89441   0.12846   0.50000   0.00000  Uiso   1.00
O760   O     0.89441   0.20487   0.50000   0.00000  Uiso   1.00
O761   O     0.77226   0.12846   0.50000   0.00000  Uiso   1.00
O762   O     0.83334   0.20488   0.42845   0.00000  Uiso   1.00
O763   O     0.83333   0.12845   0.57155   0.00000  Uiso   1.00
O764   O     0.83333   0.20488   0.57155   0.00000  Uiso   1.00
O765   O     0.83334   0.12845   0.42845   0.00000  Uiso   1.00
O766   O     0.71365   0.11317   0.56822   0.00000  Uiso   1.00
Zn767  Zn    0.83333   0.21771   0.50000   0.00000  Uiso   1.00
Zn768  Zn    0.83333   0.11563   0.50000   0.00000  Uiso   1.00
C769   C     0.08695   0.50006   0.50008   0.00000  Uiso   1.00
C770   C     0.01988   0.52652   0.46500   0.00000  Uiso   1.00
C771   C     0.29063   0.50016   0.50008   0.00000  Uiso   1.00
C772   C     0.04270   0.49984   0.49992   0.00000  Uiso   1.00
C773   C     0.19089   0.35669   0.53487   0.00000  Uiso   1.00
C774   C     0.14244   0.64331   0.46513   0.00000  Uiso   1.00
C775   C     0.14323   0.35773   0.46432   0.00000  Uiso   1.00
C776   C     0.19010   0.64227   0.53568   0.00000  Uiso   1.00
C777   C     0.04486   0.40138   0.55410   0.00000  Uiso   1.00
C778   C     0.28848   0.59862   0.44589   0.00000  Uiso   1.00
C779   C     0.29040   0.47420   0.61386   0.00000  Uiso   1.00
C780   C     0.24639   0.49994   0.49992   0.00000  Uiso   1.00
C781   C     0.04294   0.52580   0.38615   0.00000  Uiso   1.00
C782   C     0.21977   0.37984   0.57244   0.00000  Uiso   1.00
C783   C     0.11356   0.62016   0.42756   0.00000  Uiso   1.00
C784   C     0.12084   0.38286   0.42139   0.00000  Uiso   1.00
C785   C     0.21249   0.61714   0.57861   0.00000  Uiso   1.00
C786   C     0.16650   0.50005   0.40642   0.00000  Uiso   1.00
C787   C     0.16683   0.49995   0.59358   0.00000  Uiso   1.00
C788   C     0.16660   0.50007   0.35518   0.00000  Uiso   1.00
C789   C     0.16673   0.49993   0.64482   0.00000  Uiso   1.00
C790   C     0.02332   0.47181   0.53356   0.00000  Uiso   1.00
C791   C     0.31002   0.52819   0.46644   0.00000  Uiso   1.00
C792   C     0.31345   0.47348   0.53500   0.00000  Uiso   1.00
H793   H     0.01393   0.38712   0.56176   0.00000  Uiso   1.00
H794   H     0.06159   0.49488   0.39368   0.00000  Uiso   1.00
H795   H     0.01142   0.51772   0.36949   0.00000  Uiso   1.00
H796   H     0.05931   0.54556   0.35813   0.00000  Uiso   1.00
H797   H     0.25241   0.36803   0.56856   0.00000  Uiso   1.00
H798   H     0.22118   0.41536   0.56696   0.00000  Uiso   1.00
H799   H     0.20988   0.37373   0.61113   0.00000  Uiso   1.00
H800   H     0.11215   0.58464   0.43304   0.00000  Uiso   1.00
H801   H     0.08093   0.63197   0.43144   0.00000  Uiso   1.00
H802   H     0.12346   0.62626   0.38887   0.00000  Uiso   1.00
H803   H     0.09532   0.36452   0.40152   0.00000  Uiso   1.00
H804   H     0.05162   0.39641   0.51394   0.00000  Uiso   1.00
H805   H     0.10523   0.41291   0.43437   0.00000  Uiso   1.00
H806   H     0.14366   0.39120   0.39299   0.00000  Uiso   1.00
H807   H     0.18968   0.60880   0.60701   0.00000  Uiso   1.00
H808   H     0.22811   0.58709   0.56563   0.00000  Uiso   1.00
H809   H     0.23802   0.63548   0.59847   0.00000  Uiso   1.00
H810   H     0.06894   0.38250   0.57697   0.00000  Uiso   1.00
H811   H     0.31939   0.61288   0.43816   0.00000  Uiso   1.00
H812   H     0.26436   0.61749   0.42308   0.00000  Uiso   1.00
H813   H     0.28178   0.60359   0.48607   0.00000  Uiso   1.00
H814   H     0.27400   0.45445   0.64187   0.00000  Uiso   1.00
H815   H     0.27177   0.50514   0.60632   0.00000  Uiso   1.00
H816   H     0.32192   0.48226   0.63052   0.00000  Uiso   1.00
N817   N     0.16667   0.61907   0.50000   0.00000  Uiso   1.00
N818   N     0.16667   0.38093   0.50000   0.00000  Uiso   1.00
O819   O     0.10559   0.53821   0.50000   0.00000  Uiso   1.00
O820   O     0.28635   0.55350   0.43178   0.00000  Uiso   1.00
O821   O     0.29353   0.44860   0.57010   0.00000  Uiso   1.00
O822   O     0.03981   0.55141   0.42991   0.00000  Uiso   1.00
O823   O     0.22774   0.46179   0.50000   0.00000  Uiso   1.00
O824   O     0.22774   0.53821   0.50000   0.00000  Uiso   1.00
O825   O     0.10559   0.46179   0.50000   0.00000  Uiso   1.00
O826   O     0.16667   0.53821   0.42845   0.00000  Uiso   1.00
O827   O     0.16666   0.46179   0.57155   0.00000  Uiso   1.00
O828   O     0.16666   0.53821   0.57155   0.00000  Uiso   1.00
O829   O     0.16667   0.46179   0.42845   0.00000  Uiso   1.00
O830   O     0.04698   0.44650   0.56822   0.00000  Uiso   1.00
Zn831  Zn    0.16667   0.55104   0.50000   0.00000  Uiso   1.00
Zn832  Zn    0.16667   0.44896   0.50000   0.00000  Uiso   1.00
C833   C     0.42028   0.50006   0.50008   0.00000  Uiso   1.00
C834   C     0.35321   0.52652   0.46500   0.00000  Uiso   1.00
C835   C     0.62396   0.50016   0.50008   0.00000  Uiso   1.00
C836   C     0.37604   0.49984   0.49992   0.00000  Uiso   1.00
C837   C     0.52423   0.35669   0.53487   0.00000  Uiso   1.00
C838   C     0.47577   0.64331   0.46513   0.00000  Uiso   1.00
C839   C     0.47656   0.35773   0.46432   0.00000  Uiso   1.00
C840   C     0.52344   0.64227   0.53568   0.00000  Uiso   1.00
C841   C     0.37819   0.40138   0.55410   0.00000  Uiso   1.00
C842   C     0.62181   0.59862   0.44589   0.00000  Uiso   1.00
C843   C     0.62373   0.47420   0.61386   0.00000  Uiso   1.00
C844   C     0.57972   0.49994   0.49992   0.00000  Uiso   1.00
C845   C     0.37627   0.52580   0.38615   0.00000  Uiso   1.00
C846   C     0.55311   0.37984   0.57244   0.00000  Uiso   1.00
C847   C     0.44689   0.62016   0.42756   0.00000  Uiso   1.00
C848   C     0.45418   0.38286   0.42139   0.00000  Uiso   1.00
C849   C     0.54583   0.61714   0.57861   0.00000  Uiso   1.00
C850   C     0.49983   0.50005   0.40642   0.00000  Uiso   1.00
C851   C     0.50017   0.49995   0.59358   0.00000  Uiso   1.00
C852   C     0.49994   0.50007   0.35518   0.00000  Uiso   1.00
C853   C     0.50006   0.49993   0.64482   0.00000  Uiso   1.00
C854   C     0.35665   0.47181   0.53356   0.00000  Uiso   1.00
C855   C     0.64335   0.52819   0.46644   0.00000  Uiso   1.00
C856   C     0.64679   0.47348   0.53500   0.00000  Uiso   1.00
H857   H     0.34726   0.38712   0.56176   0.00000  Uiso   1.00
H858   H     0.39492   0.49488   0.39368   0.00000  Uiso   1.00
H859   H     0.34475   0.51772   0.36949   0.00000  Uiso   1.00
H860   H     0.39265   0.54556   0.35813   0.00000  Uiso   1.00
H861   H     0.58574   0.36803   0.56856   0.00000  Uiso   1.00
H862   H     0.55451   0.41536   0.56696   0.00000  Uiso   1.00
H863   H     0.54321   0.37373   0.61113   0.00000  Uiso   1.00
H864   H     0.44549   0.58464   0.43304   0.00000  Uiso   1.00
H865   H     0.41426   0.63197   0.43144   0.00000  Uiso   1.00
H866   H     0.45679   0.62626   0.38887   0.00000  Uiso   1.00
H867   H     0.42866   0.36452   0.40152   0.00000  Uiso   1.00
H868   H     0.38495   0.39641   0.51394   0.00000  Uiso   1.00
H869   H     0.43856   0.41291   0.43437   0.00000  Uiso   1.00
H870   H     0.47699   0.39120   0.39299   0.00000  Uiso   1.00
H871   H     0.52302   0.60880   0.60701   0.00000  Uiso   1.00
H872   H     0.56144   0.58709   0.56563   0.00000  Uiso   1.00
H873   H     0.57135   0.63548   0.59847   0.00000  Uiso   1.00
H874   H     0.40227   0.38250   0.57697   0.00000  Uiso   1.00
H875   H     0.65272   0.61288   0.43816   0.00000  Uiso   1.00
H876   H     0.59769   0.61749   0.42308   0.00000  Uiso   1.00
H877   H     0.61512   0.60359   0.48607   0.00000  Uiso   1.00
H878   H     0.60734   0.45445   0.64187   0.00000  Uiso   1.00
H879   H     0.60510   0.50514   0.60632   0.00000  Uiso   1.00
H880   H     0.65525   0.48226   0.63052   0.00000  Uiso   1.00
N881   N     0.50000   0.61907   0.50000   0.00000  Uiso   1.00
N882   N     0.50000   0.38093   0.50000   0.00000  Uiso   1.00
O883   O     0.43892   0.53821   0.50000   0.00000  Uiso   1.00
O884   O     0.61968   0.55350   0.43178   0.00000  Uiso   1.00
O885   O     0.62686   0.44860   0.57010   0.00000  Uiso   1.00
O886   O     0.37314   0.55141   0.42991   0.00000  Uiso   1.00
O887   O     0.56108   0.46179   0.50000   0.00000  Uiso   1.00
O888   O     0.56108   0.53821   0.50000   0.00000  Uiso   1.00
O889   O     0.43892   0.46179   0.50000   0.00000  Uiso   1.00
O890   O     0.50000   0.53821   0.42845   0.00000  Uiso   1.00
O891   O     0.50000   0.46179   0.57155   0.00000  Uiso   1.00
O892   O     0.50000   0.53821   0.57155   0.00000  Uiso   1.00
O893   O     0.50000   0.46179   0.42845   0.00000  Uiso   1.00
O894   O     0.38032   0.44650   0.56822   0.00000  Uiso   1.00
Zn895  Zn    0.50000   0.55104   0.50000   0.00000  Uiso   1.00
Zn896  Zn    0.50000   0.44896   0.50000   0.00000  Uiso   1.00
C897   C     0.75361   0.50006   0.50008   0.00000  Uiso   1.00
C898   C     0.68655   0.52652   0.46500   0.00000  Uiso   1.00
C899   C     0.95730   0.50016   0.50008   0.00000  Uiso   1.00
C900   C     0.70937   0.49984   0.49992   0.00000  Uiso   1.00
C901   C     0.85756   0.35669   0.53487   0.00000  Uiso   1.00
C902   C     0.80911   0.64331   0.46513   0.00000  Uiso   1.00
C903   C     0.80990   0.35773   0.46432   0.00000  Uiso   1.00
C904   C     0.85677   0.64227   0.53568   0.00000  Uiso   1.00
C905   C     0.71152   0.40138   0.55410   0.00000  Uiso   1.00
C906   C     0.95515   0.59862   0.44589   0.00000  Uiso   1.00
C907   C     0.95707   0.47420   0.61386   0.00000  Uiso   1.00
C908   C     0.91305   0.49994   0.49992   0.00000  Uiso   1.00
C909   C     0.70960   0.52580   0.38615   0.00000  Uiso   1.00
C910   C     0.88644   0.37984   0.57244   0.00000  Uiso   1.00
C911   C     0.78023   0.62016   0.42756   0.00000  Uiso   1.00
C912   C     0.78751   0.38286   0.42139   0.00000  Uiso   1.00
C913   C     0.87916   0.61714   0.57861   0.00000  Uiso   1.00
C914   C     0.83317   0.50005   0.40642   0.00000  Uiso   1.00
C915   C     0.83350   0.49995   0.59358   0.00000  Uiso   1.00
C916   C     0.83327   0.50007   0.35518   0.00000  Uiso   1.00
C917   C     0.83340   0.49993   0.64482   0.00000  Uiso   1.00
C918   C     0.68998   0.47181   0.53356   0.00000  Uiso   1.00
C919   C     0.97668   0.52819   0.46644   0.00000  Uiso   1.00
C920   C     0.98012   0.47348   0.53500   0.00000  Uiso   1.00
H921   H     0.68060   0.38712   0.56176   0.00000  Uiso   1.00
H922   H     0.72825   0.49488   0.39368   0.00000  Uiso   1.00
H923   H     0.67809   0.51772   0.36949   0.00000  Uiso   1.00
H924   H     0.72598   0.54556   0.35813   0.00000  Uiso   1.00
H925   H     0.91907   0.36803   0.56856   0.00000  Uiso   1.00
H926   H     0.88785   0.41536   0.56696   0.00000  Uiso   1.00
H927   H     0.87654   0.37373   0.61113   0.00000  Uiso   1.00
H928   H     0.77882   0.58464   0.43304   0.00000  Uiso   1.00
H929   H     0.74759   0.63197   0.43144   0.00000  Uiso   1.00
H930   H     0.79013   0.62626   0.38887   0.00000  Uiso   1.00
H931   H     0.76199   0.36452   0.40152   0.00000  Uiso   1.00
H932   H     0.71828   0.39641   0.51394   0.00000  Uiso   1.00
H933   H     0.77189   0.41291   0.43437   0.00000  Uiso   1.00
H934   H     0.81032   0.39120   0.39299   0.00000  Uiso   1.00
H935   H     0.85635   0.60880   0.60701   0.00000  Uiso   1.00
H936   H     0.89477   0.58709   0.56563   0.00000  Uiso   1.00
H937   H     0.90468   0.63548   0.59847   0.00000  Uiso   1.00
H938   H     0.73560   0.38250   0.57697   0.00000  Uiso   1.00
H939   H     0.98605   0.61288   0.43816   0.00000  Uiso   1.00
H940   H     0.93102   0.61749   0.42308   0.00000  Uiso   1.00
H941   H     0.94845   0.60359   0.48607   0.00000  Uiso   1.00
H942   H     0.94067   0.45445   0.64187   0.00000  Uiso   1.00
H943   H     0.93844   0.50514   0.60632   0.00000  Uiso   1.00
H944   H     0.98859   0.48226   0.63052   0.00000  Uiso   1.00
N945   N     0.83333   0.61907   0.50000   0.00000  Uiso   1.00
N946   N     0.83333   0.38093   0.50000   0.00000  Uiso   1.00
O947   O     0.77226   0.53821   0.50000   0.00000  Uiso   1.00
O948   O     0.95301   0.55350   0.43178   0.00000  Uiso   1.00
O949   O     0.96019   0.44860   0.57010   0.00000  Uiso   1.00
O950   O     0.70647   0.55141   0.42991   0.00000  Uiso   1.00
O951   O     0.89441   0.46179   0.50000   0.00000  Uiso   1.00
O952   O     0.89441   0.53821   0.50000   0.00000  Uiso   1.00
O953   O     0.77226   0.46179   0.50000   0.00000  Uiso   1.00
O954   O     0.83334   0.53821   0.42845   0.00000  Uiso   1.00
O955   O     0.83333   0.46179   0.57155   0.00000  Uiso   1.00
O956   O     0.83333   0.53821   0.57155   0.00000  Uiso   1.00
O957   O     0.83334   0.46179   0.42845   0.00000  Uiso   1.00
O958   O     0.71365   0.44650   0.56822   0.00000  Uiso   1.00
Zn959  Zn    0.83333   0.55104   0.50000   0.00000  Uiso   1.00
Zn960  Zn    0.83333   0.44896   0.50000   0.00000  Uiso   1.00
C961   C     0.08695   0.83340   0.50008   0.00000  Uiso   1.00
C962   C     0.01988   0.85986   0.46500   0.00000  Uiso   1.00
C963   C     0.29063   0.83349   0.50008   0.00000  Uiso   1.00
C964   C     0.04270   0.83318   0.49992   0.00000  Uiso   1.00
C965   C     0.19089   0.69003   0.53487   0.00000  Uiso   1.00
C966   C     0.14244   0.97664   0.46513   0.00000  Uiso   1.00
C967   C     0.14323   0.69106   0.46432   0.00000  Uiso   1.00
C968   C     0.19010   0.97560   0.53568   0.00000  Uiso   1.00
C969   C     0.04486   0.73472   0.55410   0.00000  Uiso   1.00
C970   C     0.28848   0.93195   0.44589   0.00000  Uiso   1.00
C971   C     0.29040   0.80753   0.61386   0.00000  Uiso   1.00
C972   C     0.24639   0.83327   0.49992   0.00000  Uiso   1.00
C973   C     0.04294   0.85914   0.38615   0.00000  Uiso   1.00
C974   C     0.21977   0.71318   0.57244   0.00000  Uiso   1.00
C975   C     0.11356   0.95349   0.42756   0.00000  Uiso   1.00
C976   C     0.12084   0.71619   0.42139   0.00000  Uiso   1.00
C977   C     0.21249   0.95048   0.57861   0.00000  Uiso   1.00
C978   C     0.16650   0.83338   0.40642   0.00000  Uiso   1.00
C979   C     0.16683   0.83328   0.59358   0.00000  Uiso   1.00
C980   C     0.16660   0.83341   0.35518   0.00000  Uiso   1.00
C981   C     0.16673   0.83326   0.64482   0.00000  Uiso   1.00
C982   C     0.02332   0.80514   0.53356   0.00000  Uiso   1.00
C983   C     0.31002   0.86153   0.46644   0.00000  Uiso   1.00
C984   C     0.31345   0.80681   0.53500   0.00000  Uiso   1.00
H985   H     0.01393   0.72046   0.56176   0.00000  Uiso   1.00
H986   H     0.06159   0.82822   0.39368   0.00000  Uiso   1.00
H987   H     0.01142   0.85106   0.36949   0.00000  Uiso   1.00
H988   H     0.05931   0.87890   0.35813   0.00000  Uiso   1.00
H989   H     0.25241   0.70136   0.56856   0.00000  Uiso   1.00
H990   H     0.22118   0.74869   0.56696   0.00000  Uiso   1.00
H991   H     0.20988   0.70707   0.61113   0.00000  Uiso   1.00
H992   H     0.11215   0.91797   0.43304   0.00000  Uiso   1.00
H993   H     0.08093   0.96530   0.43144   0.00000  Uiso   1.00
H994   H     0.12346   0.95960   0.38887   0.00000  Uiso   1.00
H995   H     0.09532   0.69786   0.40152   0.00000  Uiso   1.00
H996   H     0.05162   0.72975   0.51394   0.00000  Uiso   1.00
H997   H     0.10523   0.74625   0.43437   0.00000  Uiso   1.00
H998   H     0.14366   0.72453   0.39299   0.00000  Uiso   1.00
H999   H     0.18968   0.94214   0.60701   0.00000  Uiso   1.00
H1000  H     0.22811   0.92042   0.56563   0.00000  Uiso   1.00
H1001  H     0.23802   0.96881   0.59847   0.00000  Uiso   1.00
H1002  H     0.06894   0.71584   0.57697   0.00000  Uiso   1.00
H1003  H     0.31939   0.94622   0.43816   0.00000  Uiso   1.00
H1004  H     0.26436   0.95082   0.42308   0.00000  Uiso   1.00
H1005  H     0.28178   0.93692   0.48607   0.00000  Uiso   1.00
H1006  H     0.27400   0.78778   0.64187   0.00000  Uiso   1.00
H1007  H     0.27177   0.83847   0.60632   0.00000  Uiso   1.00
H1008  H     0.32192   0.81559   0.63052   0.00000  Uiso   1.00
N1009  N     0.16667   0.95240   0.50000   0.00000  Uiso   1.00
N1010  N     0.16667   0.71427   0.50000   0.00000  Uiso   1.00
O1011  O     0.10559   0.87154   0.50000   0.00000  Uiso   1.00
O1012  O     0.28635   0.88683   0.43178   0.00000  Uiso   1.00
O1013  O     0.29353   0.78193   0.57010   0.00000  Uiso   1.00
O1014  O     0.03981   0.88474   0.42991   0.00000  Uiso   1.00
O1015  O     0.22774   0.79513   0.50000   0.00000  Uiso   1.00
O1016  O     0.22774   0.87154   0.50000   0.00000  Uiso   1.00
O1017  O     0.10559   0.79513   0.50000   0.00000  Uiso   1.00
O1018  O     0.16667   0.87155   0.42845   0.00000  Uiso   1.00
O1019  O     0.16666   0.79512   0.57155   0.00000  Uiso   1.00
O1020  O     0.16666   0.87155   0.57155   0.00000  Uiso   1.00
O1021  O     0.16667   0.79512   0.42845   0.00000  Uiso   1.00
O1022  O     0.04698   0.77983   0.56822   0.00000  Uiso   1.00
Zn1023 Zn    0.16667   0.88437   0.50000   0.00000  Uiso   1.00
Zn1024 Zn    0.16667   0.78229   0.50000   0.00000  Uiso   1.00
C1025  C     0.42028   0.83340   0.50008   0.00000  Uiso   1.00
C1026  C     0.35321   0.85986   0.46500   0.00000  Uiso   1.00
C1027  C     0.62396   0.83349   0.50008   0.00000  Uiso   1.00
C1028  C     0.37604   0.83318   0.49992   0.00000  Uiso   1.00
C1029  C     0.52423   0.69003   0.53487   0.00000  Uiso   1.00
C1030  C     0.47577   0.97664   0.46513   0.00000  Uiso   1.00
C1031  C     0.47656   0.69106   0.46432   0.00000  Uiso   1.00
C1032  C     0.52344   0.97560   0.53568   0.00000  Uiso   1.00
C1033  C     0.37819   0.73472   0.55410   0.00000  Uiso   1.00
C1034  C     0.62181   0.93195   0.44589   0.00000  Uiso   1.00
C1035  C     0.62373   0.80753   0.61386   0.00000  Uiso   1.00
C1036  C     0.57972   0.83327   0.49992   0.00000  Uiso   1.00
C1037  C     0.37627   0.85914   0.38615   0.00000  Uiso   1.00
C1038  C     0.55311   0.71318   0.57244   0.00000  Uiso   1.00
C1039  C     0.44689   0.95349   0.42756   0.00000  Uiso   1.00
C1040  C     0.45418   0.71619   0.42139   0.00000  Uiso   1.00
C1041  C     0.54583   0.95048   0.57861   0.00000  Uiso   1.00
C1042  C     0.49983   0.83338   0.40642   0.00000  Uiso   1.00
C1043  C     0.50017   0.83328   0.59358   0.00000  Uiso   1.00
C1044  C     0.49994   0.83341   0.35518   0.00000  Uiso   1.00
C1045  C     0.50006   0.83326   0.64482   0.00000  Uiso   1.00
C1046  C     0.35665   0.80514   0.53356   0.00000  Uiso   1.00
C1047  C     0.64335   0.86153   0.46644   0.00000  Uiso   1.00
C1048  C     0.64679   0.80681   0.53500   0.00000  Uiso   1.00
H1049  H     0.34726   0.72046   0.56176   0.00000  Uiso   1.00
H1050  H     0.39492   0.82822   0.39368   0.00000  Uiso   1.00
H1051  H     0.34475   0.85106   0.36949   0.00000  Uiso   1.00
H1052  H     0.39265   0.87890   0.35813   0.00000  Uiso   1.00
H1053  H     0.58574   0.70136   0.56856   0.00000  Uiso   1.00
H1054  H     0.55451   0.74869   0.56696   0.00000  Uiso   1.00
H1055  H     0.54321   0.70707   0.61113   0.00000  Uiso   1.00
H1056  H     0.44549   0.91797   0.43304   0.00000  Uiso   1.00
H1057  H     0.41426   0.96530   0.43144   0.00000  Uiso   1.00
H1058  H     0.45679   0.95960   0.38887   0.00000  Uiso   1.00
H1059  H     0.42866   0.69786   0.40152   0.00000  Uiso   1.00
H1060  H     0.38495   0.72975   0.51394   0.00000  Uiso   1.00
H1061  H     0.43856   0.74625   0.43437   0.00000  Uiso   1.00
H1062  H     0.47699   0.72453   0.39299   0.00000  Uiso   1.00
H1063  H     0.52302   0.94214   0.60701   0.00000  Uiso   1.00
H1064  H     0.56144   0.92042   0.56563   0.00000  Uiso   1.00
H1065  H     0.57135   0.96881   0.59847   0.00000  Uiso   1.00
H1066  H     0.40227   0.71584   0.57697   0.00000  Uiso   1.00
H1067  H     0.65272   0.94622   0.43816   0.00000  Uiso   1.00
H1068  H     0.59769   0.95082   0.42308   0.00000  Uiso   1.00
H1069  H     0.61512   0.93692   0.48607   0.00000  Uiso   1.00
H1070  H     0.60734   0.78778   0.64187   0.00000  Uiso   1.00
H1071  H     0.60510   0.83847   0.60632   0.00000  Uiso   1.00
H1072  H     0.65525   0.81559   0.63052   0.00000  Uiso   1.00
N1073  N     0.50000   0.95240   0.50000   0.00000  Uiso   1.00
N1074  N     0.50000   0.71427   0.50000   0.00000  Uiso   1.00
O1075  O     0.43892   0.87154   0.50000   0.00000  Uiso   1.00
O1076  O     0.61968   0.88683   0.43178   0.00000  Uiso   1.00
O1077  O     0.62686   0.78193   0.57010   0.00000  Uiso   1.00
O1078  O     0.37314   0.88474   0.42991   0.00000  Uiso   1.00
O1079  O     0.56108   0.79513   0.50000   0.00000  Uiso   1.00
O1080  O     0.56108   0.87154   0.50000   0.00000  Uiso   1.00
O1081  O     0.43892   0.79513   0.50000   0.00000  Uiso   1.00
O1082  O     0.50000   0.87155   0.42845   0.00000  Uiso   1.00
O1083  O     0.50000   0.79512   0.57155   0.00000  Uiso   1.00
O1084  O     0.50000   0.87155   0.57155   0.00000  Uiso   1.00
O1085  O     0.50000   0.79512   0.42845   0.00000  Uiso   1.00
O1086  O     0.38032   0.77983   0.56822   0.00000  Uiso   1.00
Zn1087 Zn    0.50000   0.88437   0.50000   0.00000  Uiso   1.00
Zn1088 Zn    0.50000   0.78229   0.50000   0.00000  Uiso   1.00
C1089  C     0.75361   0.83340   0.50008   0.00000  Uiso   1.00
C1090  C     0.68655   0.85986   0.46500   0.00000  Uiso   1.00
C1091  C     0.95730   0.83349   0.50008   0.00000  Uiso   1.00
C1092  C     0.70937   0.83318   0.49992   0.00000  Uiso   1.00
C1093  C     0.85756   0.69003   0.53487   0.00000  Uiso   1.00
C1094  C     0.80911   0.97664   0.46513   0.00000  Uiso   1.00
C1095  C     0.80990   0.69106   0.46432   0.00000  Uiso   1.00
C1096  C     0.85677   0.97560   0.53568   0.00000  Uiso   1.00
C1097  C     0.71152   0.73472   0.55410   0.00000  Uiso   1.00
C1098  C     0.95515   0.93195   0.44589   0.00000  Uiso   1.00
C1099  C     0.95707   0.80753   0.61386   0.00000  Uiso   1.00
C1100  C     0.91305   0.83327   0.49992   0.00000  Uiso   1.00
C1101  C     0.70960   0.85914   0.38615   0.00000  Uiso   1.00
C1102  C     0.88644   0.71318   0.57244   0.00000  Uiso   1.00
C1103  C     0.78023   0.95349   0.42756   0.00000  Uiso   1.00
C1104  C     0.78751   0.71619   0.42139   0.00000  Uiso   1.00
C1105  C     0.87916   0.95048   0.57861   0.00000  Uiso   1.00
C1106  C     0.83317   0.83338   0.40642   0.00000  Uiso   1.00
C1107  C     0.83350   0.83328   0.59358   0.00000  Uiso   1.00
C1108  C     0.83327   0.83341   0.35518   0.00000  Uiso   1.00
C1109  C     0.83340   0.83326   0.64482   0.00000  Uiso   1.00
C1110  C     0.68998   0.80514   0.53356   0.00000  Uiso   1.00
C1111  C     0.97668   0.86153   0.46644   0.00000  Uiso   1.00
C1112  C     0.98012   0.80681   0.53500   0.00000  Uiso   1.00
H1113  H     0.68060   0.72046   0.56176   0.00000  Uiso   1.00
H1114  H     0.72825   0.82822   0.39368   0.00000  Uiso   1.00
H1115  H     0.67809   0.85106   0.36949   0.00000  Uiso   1.00
H1116  H     0.72598   0.87890   0.35813   0.00000  Uiso   1.00
H1117  H     0.91907   0.70136   0.56856   0.00000  Uiso   1.00
H1118  H     0.88785   0.74869   0.56696   0.00000  Uiso   1.00
H1119  H     0.87654   0.70707   0.61113   0.00000  Uiso   1.00
H1120  H     0.77882   0.91797   0.43304   0.00000  Uiso   1.00
H1121  H     0.74759   0.96530   0.43144   0.00000  Uiso   1.00
H1122  H     0.79013   0.95960   0.38887   0.00000  Uiso   1.00
H1123  H     0.76199   0.69786   0.40152   0.00000  Uiso   1.00
H1124  H     0.71828   0.72975   0.51394   0.00000  Uiso   1.00
H1125  H     0.77189   0.74625   0.43437   0.00000  Uiso   1.00
H1126  H     0.81032   0.72453   0.39299   0.00000  Uiso   1.00
H1127  H     0.85635   0.94214   0.60701   0.00000  Uiso   1.00
H1128  H     0.89477   0.92042   0.56563   0.00000  Uiso   1.00
H1129  H     0.90468   0.96881   0.59847   0.00000  Uiso   1.00
H1130  H     0.73560   0.71584   0.57697   0.00000  Uiso   1.00
H1131  H     0.98605   0.94622   0.43816   0.00000  Uiso   1.00
H1132  H     0.93102   0.95082   0.42308   0.00000  Uiso   1.00
H1133  H     0.94845   0.93692   0.48607   0.00000  Uiso   1.00
H1134  H     0.94067   0.78778   0.64187   0.00000  Uiso   1.00
H1135  H     0.93844   0.83847   0.60632   0.00000  Uiso   1.00
H1136  H     0.98859   0.81559   0.63052   0.00000  Uiso   1.00
N1137  N     0.83333   0.95240   0.50000   0.00000  Uiso   1.00
N1138  N     0.83333   0.71427   0.50000   0.00000  Uiso   1.00
O1139  O     0.77226   0.87154   0.50000   0.00000  Uiso   1.00
O1140  O     0.95301   0.88683   0.43178   0.00000  Uiso   1.00
O1141  O     0.96019   0.78193   0.57010   0.00000  Uiso   1.00
O1142  O     0.70647   0.88474   0.42991   0.00000  Uiso   1.00
O1143  O     0.89441   0.79513   0.50000   0.00000  Uiso   1.00
O1144  O     0.89441   0.87154   0.50000   0.00000  Uiso   1.00
O1145  O     0.77226   0.79513   0.50000   0.00000  Uiso   1.00
O1146  O     0.83334   0.87155   0.42845   0.00000  Uiso   1.00
O1147  O     0.83333   0.79512   0.57155   0.00000  Uiso   1.00
O1148  O     0.83333   0.87155   0.57155   0.00000  Uiso   1.00
O1149  O     0.83334   0.79512   0.42845   0.00000  Uiso   1.00
O1150  O     0.71365   0.77983   0.56822   0.00000  Uiso   1.00
Zn1151 Zn    0.83333   0.88437   0.50000   0.00000  Uiso   1.00
Zn1152 Zn    0.83333   0.78229   0.50000   0.00000  Uiso   1.00
C1153  C     0.08695   0.16673   0.83342   0.00000  Uiso   1.00
C1154  C     0.01988   0.19319   0.79833   0.00000  Uiso   1.00
C1155  C     0.29063   0.16682   0.83341   0.00000  Uiso   1.00
C1156  C     0.04270   0.16651   0.83325   0.00000  Uiso   1.00
C1157  C     0.19089   0.02336   0.86820   0.00000  Uiso   1.00
C1158  C     0.14244   0.30997   0.79847   0.00000  Uiso   1.00
C1159  C     0.14323   0.02440   0.79765   0.00000  Uiso   1.00
C1160  C     0.19010   0.30894   0.86902   0.00000  Uiso   1.00
C1161  C     0.04486   0.06805   0.88743   0.00000  Uiso   1.00
C1162  C     0.28848   0.26528   0.77923   0.00000  Uiso   1.00
C1163  C     0.29040   0.14087   0.94719   0.00000  Uiso   1.00
C1164  C     0.24639   0.16660   0.83325   0.00000  Uiso   1.00
C1165  C     0.04294   0.19247   0.71948   0.00000  Uiso   1.00
C1166  C     0.21977   0.04651   0.90577   0.00000  Uiso   1.00
C1167  C     0.11356   0.28682   0.76089   0.00000  Uiso   1.00
C1168  C     0.12084   0.04952   0.75472   0.00000  Uiso   1.00
C1169  C     0.21249   0.28381   0.91194   0.00000  Uiso   1.00
C1170  C     0.16650   0.16672   0.73976   0.00000  Uiso   1.00
C1171  C     0.16683   0.16662   0.92691   0.00000  Uiso   1.00
C1172  C     0.16660   0.16674   0.68851   0.00000  Uiso   1.00
C1173  C     0.16673   0.16659   0.97815   0.00000  Uiso   1.00
C1174  C     0.02332   0.13847   0.86689   0.00000  Uiso   1.00
C1175  C     0.31002   0.19486   0.79977   0.00000  Uiso   1.00
C1176  C     0.31345   0.14014   0.86834   0.00000  Uiso   1.00
H1177  H     0.01393   0.05379   0.89509   0.00000  Uiso   1.00
H1178  H     0.06159   0.16155   0.72701   0.00000  Uiso   1.00
H1179  H     0.01142   0.18439   0.70282   0.00000  Uiso   1.00
H1180  H     0.05931   0.21223   0.69146   0.00000  Uiso   1.00
H1181  H     0.25241   0.03470   0.90189   0.00000  Uiso   1.00
H1182  H     0.22118   0.08203   0.90030   0.00000  Uiso   1.00
H1183  H     0.20988   0.04040   0.94446   0.00000  Uiso   1.00
H1184  H     0.11215   0.25131   0.76637   0.00000  Uiso   1.00
H1185  H     0.08093   0.29864   0.76477   0.00000  Uiso   1.00
H1186  H     0.12346   0.29293   0.72221   0.00000  Uiso   1.00
H1187  H     0.09532   0.03119   0.73485   0.00000  Uiso   1.00
H1188  H     0.05162   0.06308   0.84727   0.00000  Uiso   1.00
H1189  H     0.10523   0.07958   0.76770   0.00000  Uiso   1.00
H1190  H     0.14366   0.05786   0.72632   0.00000  Uiso   1.00
H1191  H     0.18968   0.27547   0.94035   0.00000  Uiso   1.00
H1192  H     0.22811   0.25375   0.89896   0.00000  Uiso   1.00
H1193  H     0.23802   0.30214   0.93181   0.00000  Uiso   1.00
H1194  H     0.06894   0.04917   0.91030   0.00000  Uiso   1.00
H1195  H     0.31939   0.27955   0.77149   0.00000  Uiso   1.00
H1196  H     0.26436   0.28415   0.75641   0.00000  Uiso   1.00
H1197  H     0.28178   0.27026   0.81940   0.00000  Uiso   1.00
H1198  H     0.27400   0.12112   0.97520   0.00000  Uiso   1.00
H1199  H     0.27177   0.17180   0.93966   0.00000  Uiso   1.00
H1200  H     0.32192   0.14893   0.96385   0.00000  Uiso   1.00
N1201  N     0.16667   0.28573   0.83333   0.00000  Uiso   1.00
N1202  N     0.16667   0.04760   0.83333   0.00000  Uiso   1.00
O1203  O     0.10559   0.20487   0.83333   0.00000  Uiso   1.00
O1204  O     0.28635   0.22016   0.76511   0.00000  Uiso   1.00
O1205  O     0.29353   0.11526   0.90343   0.00000  Uiso   1.00
O1206  O     0.03981   0.21807   0.76324   0.00000  Uiso   1.00
O1207  O     0.22774   0.12846   0.83334   0.00000  Uiso   1.00
O1208  O     0.22774   0.20487   0.83334   0.00000  Uiso   1.00
O1209  O     0.10559   0.12846   0.83333   0.00000  Uiso   1.00
O1210  O     0.16667   0.20488   0.76178   0.00000  Uiso   1.00
O1211  O     0.16666   0.12845   0.90489   0.00000  Uiso   1.00
O1212  O     0.16666   0.20488   0.90489   0.00000  Uiso   1.00
O1213  O     0.16667   0.12845   0.76178   0.00000  Uiso   1.00
O1214  O     0.04698   0.11317   0.90156   0.00000  Uiso   1.00
Zn1215 Zn    0.16667   0.21771   0.83333   0.00000  Uiso   1.00
Zn1216 Zn    0.16667   0.11563   0.83333   0.00000  Uiso   1.00
C1217  C     0.42028   0.16673   0.83342   0.00000  Uiso   1.00
C1218  C     0.35321   0.19319   0.79833   0.00000  Uiso   1.00
C1219  C     0.62396   0.16682   0.83341   0.00000  Uiso   1.00
C1220  C     0.37604   0.16651   0.83325   0.00000  Uiso   1.00
C1221  C     0.52423   0.02336   0.86820   0.00000  Uiso   1.00
C1222  C     0.47577   0.30997   0.79847   0.00000  Uiso   1.00
C1223  C     0.47656   0.02440   0.79765   0.00000  Uiso   1.00
C1224  C     0.52344   0.30894   0.86902   0.00000  Uiso   1.00
C1225  C     0.37819   0.06805   0.88743   0.00000  Uiso   1.00
C1226  C     0.62181   0.26528   0.77923   0.00000  Uiso   1.00
C1227  C     0.62373   0.14087   0.94719   0.00000  Uiso   1.00
C1228  C     0.57972   0.16660   0.83325   0.00000  Uiso   1.00
C1229  C     0.37627   0.19247   0.71948   0.00000  Uiso   1.00
C1230  C     0.55311   0.04651   0.90577   0.00000  Uiso   1.00
C1231  C     0.44689   0.28682   0.76089   0.00000  Uiso   1.00
C1232  C     0.45418   0.04952   0.75472   0.00000  Uiso   1.00
C1233  C     0.54583   0.28381   0.91194   0.00000  Uiso   1.00
C1234  C     0.49983   0.16672   0.73976   0.00000  Uiso   1.00
C1235  C     0.50017   0.16662   0.92691   0.00000  Uiso   1.00
C1236  C     0.49994   0.16674   0.68851   0.00000  Uiso   1.00
C1237  C     0.50006   0.16659   0.97815   0.00000  Uiso   1.00
C1238  C     0.35665   0.13847   0.86689   0.00000  Uiso   1.00
C1239  C     0.64335   0.19486   0.79977   0.00000  Uiso   1.00
C1240  C     0.64679   0.14014   0.86834   0.00000  Uiso   1.00
H1241  H     0.34726   0.05379   0.89509   0.00000  Uiso   1.00
H1242  H     0.39492   0.16155   0.72701   0.00000  Uiso   1.00
H1243  H     0.34475   0.18439   0.70282   0.00000  Uiso   1.00
H1244  H     0.39265   0.21223   0.69146   0.00000  Uiso   1.00
H1245  H     0.58574   0.03470   0.90189   0.00000  Uiso   1.00
H1246  H     0.55451   0.08203   0.90030   0.00000  Uiso   1.00
H1247  H     0.54321   0.04040   0.94446   0.00000  Uiso   1.00
H1248  H     0.44549   0.25131   0.76637   0.00000  Uiso   1.00
H1249  H     0.41426   0.29864   0.76477   0.00000  Uiso   1.00
H1250  H     0.45679   0.29293   0.72221   0.00000  Uiso   1.00
H1251  H     0.42866   0.03119   0.73485   0.00000  Uiso   1.00
H1252  H     0.38495   0.06308   0.84727   0.00000  Uiso   1.00
H1253  H     0.43856   0.07958   0.76770   0.00000  Uiso   1.00
H1254  H     0.47699   0.05786   0.72632   0.00000  Uiso   1.00
H1255  H     0.52302   0.27547   0.94035   0.00000  Uiso   1.00
H1256  H     0.56144   0.25375   0.89896   0.00000  Uiso   1.00
H1257  H     0.57135   0.30214   0.93181   0.00000  Uiso   1.00
H1258  H     0.40227   0.04917   0.91030   0.00000  Uiso   1.00
H1259  H     0.65272   0.27955   0.77149   0.00000  Uiso   1.00
H1260  H     0.59769   0.28415   0.75641   0.00000  Uiso   1.00
H1261  H     0.61512   0.27026   0.81940   0.00000  Uiso   1.00
H1262  H     0.60734   0.12112   0.97520   0.00000  Uiso   1.00
H1263  H     0.60510   0.17180   0.93966   0.00000  Uiso   1.00
H1264  H     0.65525   0.14893   0.96385   0.00000  Uiso   1.00
N1265  N     0.50000   0.28573   0.83333   0.00000  Uiso   1.00
N1266  N     0.50000   0.04760   0.83333   0.00000  Uiso   1.00
O1267  O     0.43892   0.20487   0.83333   0.00000  Uiso   1.00
O1268  O     0.61968   0.22016   0.76511   0.00000  Uiso   1.00
O1269  O     0.62686   0.11526   0.90343   0.00000  Uiso   1.00
O1270  O     0.37314   0.21807   0.76324   0.00000  Uiso   1.00
O1271  O     0.56108   0.12846   0.83334   0.00000  Uiso   1.00
O1272  O     0.56108   0.20487   0.83334   0.00000  Uiso   1.00
O1273  O     0.43892   0.12846   0.83333   0.00000  Uiso   1.00
O1274  O     0.50000   0.20488   0.76178   0.00000  Uiso   1.00
O1275  O     0.50000   0.12845   0.90489   0.00000  Uiso   1.00
O1276  O     0.50000   0.20488   0.90489   0.00000  Uiso   1.00
O1277  O     0.50000   0.12845   0.76178   0.00000  Uiso   1.00
O1278  O     0.38032   0.11317   0.90156   0.00000  Uiso   1.00
Zn1279 Zn    0.50000   0.21771   0.83333   0.00000  Uiso   1.00
Zn1280 Zn    0.50000   0.11563   0.83333   0.00000  Uiso   1.00
C1281  C     0.75361   0.16673   0.83342   0.00000  Uiso   1.00
C1282  C     0.68655   0.19319   0.79833   0.00000  Uiso   1.00
C1283  C     0.95730   0.16682   0.83341   0.00000  Uiso   1.00
C1284  C     0.70937   0.16651   0.83325   0.00000  Uiso   1.00
C1285  C     0.85756   0.02336   0.86820   0.00000  Uiso   1.00
C1286  C     0.80911   0.30997   0.79847   0.00000  Uiso   1.00
C1287  C     0.80990   0.02440   0.79765   0.00000  Uiso   1.00
C1288  C     0.85677   0.30894   0.86902   0.00000  Uiso   1.00
C1289  C     0.71152   0.06805   0.88743   0.00000  Uiso   1.00
C1290  C     0.95515   0.26528   0.77923   0.00000  Uiso   1.00
C1291  C     0.95707   0.14087   0.94719   0.00000  Uiso   1.00
C1292  C     0.91305   0.16660   0.83325   0.00000  Uiso   1.00
C1293  C     0.70960   0.19247   0.71948   0.00000  Uiso   1.00
C1294  C     0.88644   0.04651   0.90577   0.00000  Uiso   1.00
C1295  C     0.78023   0.28682   0.76089   0.00000  Uiso   1.00
C1296  C     0.78751   0.04952   0.75472   0.00000  Uiso   1.00
C1297  C     0.87916   0.28381   0.91194   0.00000  Uiso   1.00
C1298  C     0.83317   0.16672   0.73976   0.00000  Uiso   1.00
C1299  C     0.83350   0.16662   0.92691   0.00000  Uiso   1.00
C1300  C     0.83327   0.16674   0.68851   0.00000  Uiso   1.00
C1301  C     0.83340   0.16659   0.97815   0.00000  Uiso   1.00
C1302  C     0.68998   0.13847   0.86689   0.00000  Uiso   1.00
C1303  C     0.97668   0.19486   0.79977   0.00000  Uiso   1.00
C1304  C     0.98012   0.14014   0.86834   0.00000  Uiso   1.00
H1305  H     0.68060   0.05379   0.89509   0.00000  Uiso   1.00
H1306  H     0.72825   0.16155   0.72701   0.00000  Uiso   1.00
H1307  H     0.67809   0.18439   0.70282   0.00000  Uiso   1.00
H1308  H     0.72598   0.21223   0.69146   0.00000  Uiso   1.00
H1309  H     0.91907   0.03470   0.90189   0.00000  Uiso   1.00
H1310  H     0.88785   0.08203   0.90030   0.00000  Uiso   1.00
H1311  H     0.87654   0.04040   0.94446   0.00000  Uiso   1.00
H1312  H     0.77882   0.25131   0.76637   0.00000  Uiso   1.00
H1313  H     0.74759   0.29864   0.76477   0.00000  Uiso   1.00
H1314  H     0.79013   0.29293   0.72221   0.00000  Uiso   1.00
H1315  H     0.76199   0.03119   0.73485   0.00000  Uiso   1.00
H1316  H     0.71828   0.06308   0.84727   0.00000  Uiso   1.00
H1317  H     0.77189   0.07958   0.76770   0.00000  Uiso   1.00
H1318  H     0.81032   0.05786   0.72632   0.00000  Uiso   1.00
H1319  H     0.85635   0.27547   0.94035   0.00000  Uiso   1.00
H1320  H     0.89477   0.25375   0.89896   0.00000  Uiso   1.00
H1321  H     0.90468   0.30214   0.93181   0.00000  Uiso   1.00
H1322  H     0.73560   0.04917   0.91030   0.00000  Uiso   1.00
H1323  H     0.98605   0.27955   0.77149   0.00000  Uiso   1.00
H1324  H     0.93102   0.28415   0.75641   0.00000  Uiso   1.00
H1325  H     0.94845   0.27026   0.81940   0.00000  Uiso   1.00
H1326  H     0.94067   0.12112   0.97520   0.00000  Uiso   1.00
H1327  H     0.93844   0.17180   0.93966   0.00000  Uiso   1.00
H1328  H     0.98859   0.14893   0.96385   0.00000  Uiso   1.00
N1329  N     0.83333   0.28573   0.83333   0.00000  Uiso   1.00
N1330  N     0.83333   0.04760   0.83333   0.00000  Uiso   1.00
O1331  O     0.77226   0.20487   0.83333   0.00000  Uiso   1.00
O1332  O     0.95301   0.22016   0.76511   0.00000  Uiso   1.00
O1333  O     0.96019   0.11526   0.90343   0.00000  Uiso   1.00
O1334  O     0.70647   0.21807   0.76324   0.00000  Uiso   1.00
O1335  O     0.89441   0.12846   0.83334   0.00000  Uiso   1.00
O1336  O     0.89441   0.20487   0.83334   0.00000  Uiso   1.00
O1337  O     0.77226   0.12846   0.83333   0.00000  Uiso   1.00
O1338  O     0.83334   0.20488   0.76178   0.00000  Uiso   1.00
O1339  O     0.83333   0.12845   0.90489   0.00000  Uiso   1.00
O1340  O     0.83333   0.20488   0.90489   0.00000  Uiso   1.00
O1341  O     0.83334   0.12845   0.76178   0.00000  Uiso   1.00
O1342  O     0.71365   0.11317   0.90156   0.00000  Uiso   1.00
Zn1343 Zn    0.83333   0.21771   0.83333   0.00000  Uiso   1.00
Zn1344 Zn    0.83333   0.11563   0.83333   0.00000  Uiso   1.00
C1345  C     0.08695   0.50006   0.83342   0.00000  Uiso   1.00
C1346  C     0.01988   0.52652   0.79833   0.00000  Uiso   1.00
C1347  C     0.29063   0.50016   0.83341   0.00000  Uiso   1.00
C1348  C     0.04270   0.49984   0.83325   0.00000  Uiso   1.00
C1349  C     0.19089   0.35669   0.86820   0.00000  Uiso   1.00
C1350  C     0.14244   0.64331   0.79847   0.00000  Uiso   1.00
C1351  C     0.14323   0.35773   0.79765   0.00000  Uiso   1.00
C1352  C     0.19010   0.64227   0.86902   0.00000  Uiso   1.00
C1353  C     0.04486   0.40138   0.88743   0.00000  Uiso   1.00
C1354  C     0.28848   0.59862   0.77923   0.00000  Uiso   1.00
C1355  C     0.29040   0.47420   0.94719   0.00000  Uiso   1.00
C1356  C     0.24639   0.49994   0.83325   0.00000  Uiso   1.00
C1357  C     0.04294   0.52580   0.71948   0.00000  Uiso   1.00
C1358  C     0.21977   0.37984   0.90577   0.00000  Uiso   1.00
C1359  C     0.11356   0.62016   0.76089   0.00000  Uiso   1.00
C1360  C     0.12084   0.38286   0.75472   0.00000  Uiso   1.00
C1361  C     0.21249   0.61714   0.91194   0.00000  Uiso   1.00
C1362  C     0.16650   0.50005   0.73976   0.00000  Uiso   1.00
C1363  C     0.16683   0.49995   0.92691   0.00000  Uiso   1.00
C1364  C     0.16660   0.50007   0.68851   0.00000  Uiso   1.00
C1365  C     0.16673   0.49993   0.97815   0.00000  Uiso   1.00
C1366  C     0.02332   0.47181   0.86689   0.00000  Uiso   1.00
C1367  C     0.31002   0.52819   0.79977   0.00000  Uiso   1.00
C1368  C     0.31345   0.47348   0.86834   0.00000  Uiso   1.00
H1369  H     0.01393   0.38712   0.89509   0.00000  Uiso   1.00
H1370  H     0.06159   0.49488   0.72701   0.00000  Uiso   1.00
H1371  H     0.01142   0.51772   0.70282   0.00000  Uiso   1.00
H1372  H     0.05931   0.54556   0.69146   0.00000  Uiso   1.00
H1373  H     0.25241   0.36803   0.90189   0.00000  Uiso   1.00
H1374  H     0.22118   0.41536   0.90030   0.00000  Uiso   1.00
H1375  H     0.20988   0.37373   0.94446   0.00000  Uiso   1.00
H1376  H     0.11215   0.58464   0.76637   0.00000  Uiso   1.00
H1377  H     0.08093   0.63197   0.76477   0.00000  Uiso   1.00
H1378  H     0.12346   0.62626   0.72221   0.00000  Uiso   1.00
H1379  H     0.09532   0.36452   0.73485   0.00000  Uiso   1.00
H1380  H     0.05162   0.39641   0.84727   0.00000  Uiso   1.00
H1381  H     0.10523   0.41291   0.76770   0.00000  Uiso   1.00
H1382  H     0.14366   0.39120   0.72632   0.00000  Uiso   1.00
H1383  H     0.18968   0.60880   0.94035   0.00000  Uiso   1.00
H1384  H     0.22811   0.58709   0.89896   0.00000  Uiso   1.00
H1385  H     0.23802   0.63548   0.93181   0.00000  Uiso   1.00
H1386  H     0.06894   0.38250   0.91030   0.00000  Uiso   1.00
H1387  H     0.31939   0.61288   0.77149   0.00000  Uiso   1.00
H1388  H     0.26436   0.61749   0.75641   0.00000  Uiso   1.00
H1389  H     0.28178   0.60359   0.81940   0.00000  Uiso   1.00
H1390  H     0.27400   0.45445   0.97520   0.00000  Uiso   1.00
H1391  H     0.27177   0.50514   0.93966   0.00000  Uiso   1.00
H1392  H     0.32192   0.48226   0.96385   0.00000  Uiso   1.00
N1393  N     0.16667   0.61907   0.83333   0.00000  Uiso   1.00
N1394  N     0.16667   0.38093   0.83333   0.00000  Uiso   1.00
O1395  O     0.10559   0.53821   0.83333   0.00000  Uiso   1.00
O1396  O     0.28635   0.55350   0.76511   0.00000  Uiso   1.00
O1397  O     0.29353   0.44860   0.90343   0.00000  Uiso   1.00
O1398  O     0.03981   0.55141   0.76324   0.00000  Uiso   1.00
O1399  O     0.22774   0.46179   0.83334   0.00000  Uiso   1.00
O1400  O     0.22774   0.53821   0.83334   0.00000  Uiso   1.00
O1401  O     0.10559   0.46179   0.83333   0.00000  Uiso   1.00
O1402  O     0.16667   0.53821   0.76178   0.00000  Uiso   1.00
O1403  O     0.16666   0.46179   0.90489   0.00000  Uiso   1.00
O1404  O     0.16666   0.53821   0.90489   0.00000  Uiso   1.00
O1405  O     0.16667   0.46179   0.76178   0.00000  Uiso   1.00
O1406  O     0.04698   0.44650   0.90156   0.00000  Uiso   1.00
Zn1407 Zn    0.16667   0.55104   0.83333   0.00000  Uiso   1.00
Zn1408 Zn    0.16667   0.44896   0.83333   0.00000  Uiso   1.00
C1409  C     0.42028   0.50006   0.83342   0.00000  Uiso   1.00
C1410  C     0.35321   0.52652   0.79833   0.00000  Uiso   1.00
C1411  C     0.62396   0.50016   0.83341   0.00000  Uiso   1.00
C1412  C     0.37604   0.49984   0.83325   0.00000  Uiso   1.00
C1413  C     0.52423   0.35669   0.86820   0.00000  Uiso   1.00
C1414  C     0.47577   0.64331   0.79847   0.00000  Uiso   1.00
C1415  C     0.47656   0.35773   0.79765   0.00000  Uiso   1.00
C1416  C     0.52344   0.64227   0.86902   0.00000  Uiso   1.00
C1417  C     0.37819   0.40138   0.88743   0.00000  Uiso   1.00
C1418  C     0.62181   0.59862   0.77923   0.00000  Uiso   1.00
C1419  C     0.62373   0.47420   0.94719   0.00000  Uiso   1.00
C1420  C     0.57972   0.49994   0.83325   0.00000  Uiso   1.00
C1421  C     0.37627   0.52580   0.71948   0.00000  Uiso   1.00
C1422  C     0.55311   0.37984   0.90577   0.00000  Uiso   1.00
C1423  C     0.44689   0.62016   0.76089   0.00000  Uiso   1.00
C1424  C     0.45418   0.38286   0.75472   0.00000  Uiso   1.00
C1425  C     0.54583   0.61714   0.91194   0.00000  Uiso   1.00
C1426  C     0.49983   0.50005   0.73976   0.00000  Uiso   1.00
C1427  C     0.50017   0.49995   0.92691   0.00000  Uiso   1.00
C1428  C     0.49994   0.50007   0.68851   0.00000  Uiso   1.00
C1429  C     0.50006   0.49993   0.97815   0.00000  Uiso   1.00
C1430  C     0.35665   0.47181   0.86689   0.00000  Uiso   1.00
C1431  C     0.64335   0.52819   0.79977   0.00000  Uiso   1.00
C1432  C     0.64679   0.47348   0.86834   0.00000  Uiso   1.00
H1433  H     0.34726   0.38712   0.89509   0.00000  Uiso   1.00
H1434  H     0.39492   0.49488   0.72701   0.00000  Uiso   1.00
H1435  H     0.34475   0.51772   0.70282   0.00000  Uiso   1.00
H1436  H     0.39265   0.54556   0.69146   0.00000  Uiso   1.00
H1437  H     0.58574   0.36803   0.90189   0.00000  Uiso   1.00
H1438  H     0.55451   0.41536   0.90030   0.00000  Uiso   1.00
H1439  H     0.54321   0.37373   0.94446   0.00000  Uiso   1.00
H1440  H     0.44549   0.58464   0.76637   0.00000  Uiso   1.00
H1441  H     0.41426   0.63197   0.76477   0.00000  Uiso   1.00
H1442  H     0.45679   0.62626   0.72221   0.00000  Uiso   1.00
H1443  H     0.42866   0.36452   0.73485   0.00000  Uiso   1.00
H1444  H     0.38495   0.39641   0.84727   0.00000  Uiso   1.00
H1445  H     0.43856   0.41291   0.76770   0.00000  Uiso   1.00
H1446  H     0.47699   0.39120   0.72632   0.00000  Uiso   1.00
H1447  H     0.52302   0.60880   0.94035   0.00000  Uiso   1.00
H1448  H     0.56144   0.58709   0.89896   0.00000  Uiso   1.00
H1449  H     0.57135   0.63548   0.93181   0.00000  Uiso   1.00
H1450  H     0.40227   0.38250   0.91030   0.00000  Uiso   1.00
H1451  H     0.65272   0.61288   0.77149   0.00000  Uiso   1.00
H1452  H     0.59769   0.61749   0.75641   0.00000  Uiso   1.00
H1453  H     0.61512   0.60359   0.81940   0.00000  Uiso   1.00
H1454  H     0.60734   0.45445   0.97520   0.00000  Uiso   1.00
H1455  H     0.60510   0.50514   0.93966   0.00000  Uiso   1.00
H1456  H     0.65525   0.48226   0.96385   0.00000  Uiso   1.00
N1457  N     0.50000   0.61907   0.83333   0.00000  Uiso   1.00
N1458  N     0.50000   0.38093   0.83333   0.00000  Uiso   1.00
O1459  O     0.43892   0.53821   0.83333   0.00000  Uiso   1.00
O1460  O     0.61968   0.55350   0.76511   0.00000  Uiso   1.00
O1461  O     0.62686   0.44860   0.90343   0.00000  Uiso   1.00
O1462  O     0.37314   0.55141   0.76324   0.00000  Uiso   1.00
O1463  O     0.56108   0.46179   0.83334   0.00000  Uiso   1.00
O1464  O     0.56108   0.53821   0.83334   0.00000  Uiso   1.00
O1465  O     0.43892   0.46179   0.83333   0.00000  Uiso   1.00
O1466  O     0.50000   0.53821   0.76178   0.00000  Uiso   1.00
O1467  O     0.50000   0.46179   0.90489   0.00000  Uiso   1.00
O1468  O     0.50000   0.53821   0.90489   0.00000  Uiso   1.00
O1469  O     0.50000   0.46179   0.76178   0.00000  Uiso   1.00
O1470  O     0.38032   0.44650   0.90156   0.00000  Uiso   1.00
Zn1471 Zn    0.50000   0.55104   0.83333   0.00000  Uiso   1.00
Zn1472 Zn    0.50000   0.44896   0.83333   0.00000  Uiso   1.00
C1473  C     0.75361   0.50006   0.83342   0.00000  Uiso   1.00
C1474  C     0.68655   0.52652   0.79833   0.00000  Uiso   1.00
C1475  C     0.95730   0.50016   0.83341   0.00000  Uiso   1.00
C1476  C     0.70937   0.49984   0.83325   0.00000  Uiso   1.00
C1477  C     0.85756   0.35669   0.86820   0.00000  Uiso   1.00
C1478  C     0.80911   0.64331   0.79847   0.00000  Uiso   1.00
C1479  C     0.80990   0.35773   0.79765   0.00000  Uiso   1.00
C1480  C     0.85677   0.64227   0.86902   0.00000  Uiso   1.00
C1481  C     0.71152   0.40138   0.88743   0.00000  Uiso   1.00
C1482  C     0.95515   0.59862   0.77923   0.00000  Uiso   1.00
C1483  C     0.95707   0.47420   0.94719   0.00000  Uiso   1.00
C1484  C     0.91305   0.49994   0.83325   0.00000  Uiso   1.00
C1485  C     0.70960   0.52580   0.71948   0.00000  Uiso   1.00
C1486  C     0.88644   0.37984   0.90577   0.00000  Uiso   1.00
C1487  C     0.78023   0.62016   0.76089   0.00000  Uiso   1.00
C1488  C     0.78751   0.38286   0.75472   0.00000  Uiso   1.00
C1489  C     0.87916   0.61714   0.91194   0.00000  Uiso   1.00
C1490  C     0.83317   0.50005   0.73976   0.00000  Uiso   1.00
C1491  C     0.83350   0.49995   0.92691   0.00000  Uiso   1.00
C1492  C     0.83327   0.50007   0.68851   0.00000  Uiso   1.00
C1493  C     0.83340   0.49993   0.97815   0.00000  Uiso   1.00
C1494  C     0.68998   0.47181   0.86689   0.00000  Uiso   1.00
C1495  C     0.97668   0.52819   0.79977   0.00000  Uiso   1.00
C1496  C     0.98012   0.47348   0.86834   0.00000  Uiso   1.00
H1497  H     0.68060   0.38712   0.89509   0.00000  Uiso   1.00
H1498  H     0.72825   0.49488   0.72701   0.00000  Uiso   1.00
H1499  H     0.67809   0.51772   0.70282   0.00000  Uiso   1.00
H1500  H     0.72598   0.54556   0.69146   0.00000  Uiso   1.00
H1501  H     0.91907   0.36803   0.90189   0.00000  Uiso   1.00
H1502  H     0.88785   0.41536   0.90030   0.00000  Uiso   1.00
H1503  H     0.87654   0.37373   0.94446   0.00000  Uiso   1.00
H1504  H     0.77882   0.58464   0.76637   0.00000  Uiso   1.00
H1505  H     0.74759   0.63197   0.76477   0.00000  Uiso   1.00
H1506  H     0.79013   0.62626   0.72221   0.00000  Uiso   1.00
H1507  H     0.76199   0.36452   0.73485   0.00000  Uiso   1.00
H1508  H     0.71828   0.39641   0.84727   0.00000  Uiso   1.00
H1509  H     0.77189   0.41291   0.76770   0.00000  Uiso   1.00
H1510  H     0.81032   0.39120   0.72632   0.00000  Uiso   1.00
H1511  H     0.85635   0.60880   0.94035   0.00000  Uiso   1.00
H1512  H     0.89477   0.58709   0.89896   0.00000  Uiso   1.00
H1513  H     0.90468   0.63548   0.93181   0.00000  Uiso   1.00
H1514  H     0.73560   0.38250   0.91030   0.00000  Uiso   1.00
H1515  H     0.98605   0.61288   0.77149   0.00000  Uiso   1.00
H1516  H     0.93102   0.61749   0.75641   0.00000  Uiso   1.00
H1517  H     0.94845   0.60359   0.81940   0.00000  Uiso   1.00
H1518  H     0.94067   0.45445   0.97520   0.00000  Uiso   1.00
H1519  H     0.93844   0.50514   0.93966   0.00000  Uiso   1.00
H1520  H     0.98859   0.48226   0.96385   0.00000  Uiso   1.00
N1521  N     0.83333   0.61907   0.83333   0.00000  Uiso   1.00
N1522  N     0.83333   0.38093   0.83333   0.00000  Uiso   1.00
O1523  O     0.77226   0.53821   0.83333   0.00000  Uiso   1.00
O1524  O     0.95301   0.55350   0.76511   0.00000  Uiso   1.00
O1525  O     0.96019   0.44860   0.90343   0.00000  Uiso   1.00
O1526  O     0.70647   0.55141   0.76324   0.00000  Uiso   1.00
O1527  O     0.89441   0.46179   0.83334   0.00000  Uiso   1.00
O1528  O     0.89441   0.53821   0.83334   0.00000  Uiso   1.00
O1529  O     0.77226   0.46179   0.83333   0.00000  Uiso   1.00
O1530  O     0.83334   0.53821   0.76178   0.00000  Uiso   1.00
O1531  O     0.83333   0.46179   0.90489   0.00000  Uiso   1.00
O1532  O     0.83333   0.53821   0.90489   0.00000  Uiso   1.00
O1533  O     0.83334   0.46179   0.76178   0.00000  Uiso   1.00
O1534  O     0.71365   0.44650   0.90156   0.00000  Uiso   1.00
Zn1535 Zn    0.83333   0.55104   0.83333   0.00000  Uiso   1.00
Zn1536 Zn    0.83333   0.44896   0.83333   0.00000  Uiso   1.00
C1537  C     0.08695   0.83340   0.83342   0.00000  Uiso   1.00
C1538  C     0.01988   0.85986   0.79833   0.00000  Uiso   1.00
C1539  C     0.29063   0.83349   0.83341   0.00000  Uiso   1.00
C1540  C     0.04270   0.83318   0.83325   0.00000  Uiso   1.00
C1541  C     0.19089   0.69003   0.86820   0.00000  Uiso   1.00
C1542  C     0.14244   0.97664   0.79847   0.00000  Uiso   1.00
C1543  C     0.14323   0.69106   0.79765   0.00000  Uiso   1.00
C1544  C     0.19010   0.97560   0.86902   0.00000  Uiso   1.00
C1545  C     0.04486   0.73472   0.88743   0.00000  Uiso   1.00
C1546  C     0.28848   0.93195   0.77923   0.00000  Uiso   1.00
C1547  C     0.29040   0.80753   0.94719   0.00000  Uiso   1.00
C1548  C     0.24639   0.83327   0.83325   0.00000  Uiso   1.00
C1549  C     0.04294   0.85914   0.71948   0.00000  Uiso   1.00
C1550  C     0.21977   0.71318   0.90577   0.00000  Uiso   1.00
C1551  C     0.11356   0.95349   0.76089   0.00000  Uiso   1.00
C1552  C     0.12084   0.71619   0.75472   0.00000  Uiso   1.00
C1553  C     0.21249   0.95048   0.91194   0.00000  Uiso   1.00
C1554  C     0.16650   0.83338   0.73976   0.00000  Uiso   1.00
C1555  C     0.16683   0.83328   0.92691   0.00000  Uiso   1.00
C1556  C     0.16660   0.83341   0.68851   0.00000  Uiso   1.00
C1557  C     0.16673   0.83326   0.97815   0.00000  Uiso   1.00
C1558  C     0.02332   0.80514   0.86689   0.00000  Uiso   1.00
C1559  C     0.31002   0.86153   0.79977   0.00000  Uiso   1.00
C1560  C     0.31345   0.80681   0.86834   0.00000  Uiso   1.00
H1561  H     0.01393   0.72046   0.89509   0.00000  Uiso   1.00
H1562  H     0.06159   0.82822   0.72701   0.00000  Uiso   1.00
H1563  H     0.01142   0.85106   0.70282   0.00000  Uiso   1.00
H1564  H     0.05931   0.87890   0.69146   0.00000  Uiso   1.00
H1565  H     0.25241   0.70136   0.90189   0.00000  Uiso   1.00
H1566  H     0.22118   0.74869   0.90030   0.00000  Uiso   1.00
H1567  H     0.20988   0.70707   0.94446   0.00000  Uiso   1.00
H1568  H     0.11215   0.91797   0.76637   0.00000  Uiso   1.00
H1569  H     0.08093   0.96530   0.76477   0.00000  Uiso   1.00
H1570  H     0.12346   0.95960   0.72221   0.00000  Uiso   1.00
H1571  H     0.09532   0.69786   0.73485   0.00000  Uiso   1.00
H1572  H     0.05162   0.72975   0.84727   0.00000  Uiso   1.00
H1573  H     0.10523   0.74625   0.76770   0.00000  Uiso   1.00
H1574  H     0.14366   0.72453   0.72632   0.00000  Uiso   1.00
H1575  H     0.18968   0.94214   0.94035   0.00000  Uiso   1.00
H1576  H     0.22811   0.92042   0.89896   0.00000  Uiso   1.00
H1577  H     0.23802   0.96881   0.93181   0.00000  Uiso   1.00
H1578  H     0.06894   0.71584   0.91030   0.00000  Uiso   1.00
H1579  H     0.31939   0.94622   0.77149   0.00000  Uiso   1.00
H1580  H     0.26436   0.95082   0.75641   0.00000  Uiso   1.00
H1581  H     0.28178   0.93692   0.81940   0.00000  Uiso   1.00
H1582  H     0.27400   0.78778   0.97520   0.00000  Uiso   1.00
H1583  H     0.27177   0.83847   0.93966   0.00000  Uiso   1.00
H1584  H     0.32192   0.81559   0.96385   0.00000  Uiso   1.00
N1585  N     0.16667   0.95240   0.83333   0.00000  Uiso   1.00
N1586  N     0.16667   0.71427   0.83333   0.00000  Uiso   1.00
O1587  O     0.10559   0.87154   0.83333   0.00000  Uiso   1.00
O1588  O     0.28635   0.88683   0.76511   0.00000  Uiso   1.00
O1589  O     0.29353   0.78193   0.90343   0.00000  Uiso   1.00
O1590  O     0.03981   0.88474   0.76324   0.00000  Uiso   1.00
O1591  O     0.22774   0.79513   0.83334   0.00000  Uiso   1.00
O1592  O     0.22774   0.87154   0.83334   0.00000  Uiso   1.00
O1593  O     0.10559   0.79513   0.83333   0.00000  Uiso   1.00
O1594  O     0.16667   0.87155   0.76178   0.00000  Uiso   1.00
O1595  O     0.16666   0.79512   0.90489   0.00000  Uiso   1.00
O1596  O     0.16666   0.87155   0.90489   0.00000  Uiso   1.00
O1597  O     0.16667   0.79512   0.76178   0.00000  Uiso   1.00
O1598  O     0.04698   0.77983   0.90156   0.00000  Uiso   1.00
Zn1599 Zn    0.16667   0.88437   0.83333   0.00000  Uiso   1.00
Zn1600 Zn    0.16667   0.78229   0.83333   0.00000  Uiso   1.00
C1601  C     0.42028   0.83340   0.83342   0.00000  Uiso   1.00
C1602  C     0.35321   0.85986   0.79833   0.00000  Uiso   1.00
C1603  C     0.62396   0.83349   0.83341   0.00000  Uiso   1.00
C1604  C     0.37604   0.83318   0.83325   0.00000  Uiso   1.00
C1605  C     0.52423   0.69003   0.86820   0.00000  Uiso   1.00
C1606  C     0.47577   0.97664   0.79847   0.00000  Uiso   1.00
C1607  C     0.47656   0.69106   0.79765   0.00000  Uiso   1.00
C1608  C     0.52344   0.97560   0.86902   0.00000  Uiso   1.00
C1609  C     0.37819   0.73472   0.88743   0.00000  Uiso   1.00
C1610  C     0.62181   0.93195   0.77923   0.00000  Uiso   1.00
C1611  C     0.62373   0.80753   0.94719   0.00000  Uiso   1.00
C1612  C     0.57972   0.83327   0.83325   0.00000  Uiso   1.00
C1613  C     0.37627   0.85914   0.71948   0.00000  Uiso   1.00
C1614  C     0.55311   0.71318   0.90577   0.00000  Uiso   1.00
C1615  C     0.44689   0.95349   0.76089   0.00000  Uiso   1.00
C1616  C     0.45418   0.71619   0.75472   0.00000  Uiso   1.00
C1617  C     0.54583   0.95048   0.91194   0.00000  Uiso   1.00
C1618  C     0.49983   0.83338   0.73976   0.00000  Uiso   1.00
C1619  C     0.50017   0.83328   0.92691   0.00000  Uiso   1.00
C1620  C     0.49994   0.83341   0.68851   0.00000  Uiso   1.00
C1621  C     0.50006   0.83326   0.97815   0.00000  Uiso   1.00
C1622  C     0.35665   0.80514   0.86689   0.00000  Uiso   1.00
C1623  C     0.64335   0.86153   0.79977   0.00000  Uiso   1.00
C1624  C     0.64679   0.80681   0.86834   0.00000  Uiso   1.00
H1625  H     0.34726   0.72046   0.89509   0.00000  Uiso   1.00
H1626  H     0.39492   0.82822   0.72701   0.00000  Uiso   1.00
H1627  H     0.34475   0.85106   0.70282   0.00000  Uiso   1.00
H1628  H     0.39265   0.87890   0.69146   0.00000  Uiso   1.00
H1629  H     0.58574   0.70136   0.90189   0.00000  Uiso   1.00
H1630  H     0.55451   0.74869   0.90030   0.00000  Uiso   1.00
H1631  H     0.54321   0.70707   0.94446   0.00000  Uiso   1.00
H1632  H     0.44549   0.91797   0.76637   0.00000  Uiso   1.00
H1633  H     0.41426   0.96530   0.76477   0.00000  Uiso   1.00
H1634  H     0.45679   0.95960   0.72221   0.00000  Uiso   1.00
H1635  H     0.42866   0.69786   0.73485   0.00000  Uiso   1.00
H1636  H     0.38495   0.72975   0.84727   0.00000  Uiso   1.00
H1637  H     0.43856   0.74625   0.76770   0.00000  Uiso   1.00
H1638  H     0.47699   0.72453   0.72632   0.00000  Uiso   1.00
H1639  H     0.52302   0.94214   0.94035   0.00000  Uiso   1.00
H1640  H     0.56144   0.92042   0.89896   0.00000  Uiso   1.00
H1641  H     0.57135   0.96881   0.93181   0.00000  Uiso   1.00
H1642  H     0.40227   0.71584   0.91030   0.00000  Uiso   1.00
H1643  H     0.65272   0.94622   0.77149   0.00000  Uiso   1.00
H1644  H     0.59769   0.95082   0.75641   0.00000  Uiso   1.00
H1645  H     0.61512   0.93692   0.81940   0.00000  Uiso   1.00
H1646  H     0.60734   0.78778   0.97520   0.00000  Uiso   1.00
H1647  H     0.60510   0.83847   0.93966   0.00000  Uiso   1.00
H1648  H     0.65525   0.81559   0.96385   0.00000  Uiso   1.00
N1649  N     0.50000   0.95240   0.83333   0.00000  Uiso   1.00
N1650  N     0.50000   0.71427   0.83333   0.00000  Uiso   1.00
O1651  O     0.43892   0.87154   0.83333   0.00000  Uiso   1.00
O1652  O     0.61968   0.88683   0.76511   0.00000  Uiso   1.00
O1653  O     0.62686   0.78193   0.90343   0.00000  Uiso   1.00
O1654  O     0.37314   0.88474   0.76324   0.00000  Uiso   1.00
O1655  O     0.56108   0.79513   0.83334   0.00000  Uiso   1.00
O1656  O     0.56108   0.87154   0.83334   0.00000  Uiso   1.00
O1657  O     0.43892   0.79513   0.83333   0.00000  Uiso   1.00
O1658  O     0.50000   0.87155   0.76178   0.00000  Uiso   1.00
O1659  O     0.50000   0.79512   0.90489   0.00000  Uiso   1.00
O1660  O     0.50000   0.87155   0.90489   0.00000  Uiso   1.00
O1661  O     0.50000   0.79512   0.76178   0.00000  Uiso   1.00
O1662  O     0.38032   0.77983   0.90156   0.00000  Uiso   1.00
Zn1663 Zn    0.50000   0.88437   0.83333   0.00000  Uiso   1.00
Zn1664 Zn    0.50000   0.78229   0.83333   0.00000  Uiso   1.00
C1665  C     0.75361   0.83340   0.83342   0.00000  Uiso   1.00
C1666  C     0.68655   0.85986   0.79833   0.00000  Uiso   1.00
C1667  C     0.95730   0.83349   0.83341   0.00000  Uiso   1.00
C1668  C     0.70937   0.83318   0.83325   0.00000  Uiso   1.00
C1669  C     0.85756   0.69003   0.86820   0.00000  Uiso   1.00
C1670  C     0.80911   0.97664   0.79847   0.00000  Uiso   1.00
C1671  C     0.80990   0.69106   0.79765   0.00000  Uiso   1.00
C1672  C     0.85677   0.97560   0.86902   0.00000  Uiso   1.00
C1673  C     0.71152   0.73472   0.88743   0.00000  Uiso   1.00
C1674  C     0.95515   0.93195   0.77923   0.00000  Uiso   1.00
C1675  C     0.95707   0.80753   0.94719   0.00000  Uiso   1.00
C1676  C     0.91305   0.83327   0.83325   0.00000  Uiso   1.00
C1677  C     0.70960   0.85914   0.71948   0.00000  Uiso   1.00
C1678  C     0.88644   0.71318   0.90577   0.00000  Uiso   1.00
C1679  C     0.78023   0.95349   0.76089   0.00000  Uiso   1.00
C1680  C     0.78751   0.71619   0.75472   0.00000  Uiso   1.00
C1681  C     0.87916   0.95048   0.91194   0.00000  Uiso   1.00
C1682  C     0.83317   0.83338   0.73976   0.00000  Uiso   1.00
C1683  C     0.83350   0.83328   0.92691   0.00000  Uiso   1.00
C1684  C     0.83327   0.83341   0.68851   0.00000  Uiso   1.00
C1685  C     0.83340   0.83326   0.97815   0.00000  Uiso   1.00
C1686  C     0.68998   0.80514   0.86689   0.00000  Uiso   1.00
C1687  C     0.97668   0.86153   0.79977   0.00000  Uiso   1.00
C1688  C     0.98012   0.80681   0.86834   0.00000  Uiso   1.00
H1689  H     0.68060   0.72046   0.89509   0.00000  Uiso   1.00
H1690  H     0.72825   0.82822   0.72701   0.00000  Uiso   1.00
H1691  H     0.67809   0.85106   0.70282   0.00000  Uiso   1.00
H1692  H     0.72598   0.87890   0.69146   0.00000  Uiso   1.00
H1693  H     0.91907   0.70136   0.90189   0.00000  Uiso   1.00
H1694  H     0.88785   0.74869   0.90030   0.00000  Uiso   1.00
H1695  H     0.87654   0.70707   0.94446   0.00000  Uiso   1.00
H1696  H     0.77882   0.91797   0.76637   0.00000  Uiso   1.00
H1697  H     0.74759   0.96530   0.76477   0.00000  Uiso   1.00
H1698  H     0.79013   0.95960   0.72221   0.00000  Uiso   1.00
H1699  H     0.76199   0.69786   0.73485   0.00000  Uiso   1.00
H1700  H     0.71828   0.72975   0.84727   0.00000  Uiso   1.00
H1701  H     0.77189   0.74625   0.76770   0.00000  Uiso   1.00
H1702  H     0.81032   0.72453   0.72632   0.00000  Uiso   1.00
H1703  H     0.85635   0.94214   0.94035   0.00000  Uiso   1.00
H1704  H     0.89477   0.92042   0.89896   0.00000  Uiso   1.00
H1705  H     0.90468   0.96881   0.93181   0.00000  Uiso   1.00
H1706  H     0.73560   0.71584   0.91030   0.00000  Uiso   1.00
H1707  H     0.98605   0.94622   0.77149   0.00000  Uiso   1.00
H1708  H     0.93102   0.95082   0.75641   0.00000  Uiso   1.00
H1709  H     0.94845   0.93692   0.81940   0.00000  Uiso   1.00
H1710  H     0.94067   0.78778   0.97520   0.00000  Uiso   1.00
H1711  H     0.93844   0.83847   0.93966   0.00000  Uiso   1.00
H1712  H     0.98859   0.81559   0.96385   0.00000  Uiso   1.00
N1713  N     0.83333   0.95240   0.83333   0.00000  Uiso   1.00
N1714  N     0.83333   0.71427   0.83333   0.00000  Uiso   1.00
O1715  O     0.77226   0.87154   0.83333   0.00000  Uiso   1.00
O1716  O     0.95301   0.88683   0.76511   0.00000  Uiso   1.00
O1717  O     0.96019   0.78193   0.90343   0.00000  Uiso   1.00
O1718  O     0.70647   0.88474   0.76324   0.00000  Uiso   1.00
O1719  O     0.89441   0.79513   0.83334   0.00000  Uiso   1.00
O1720  O     0.89441   0.87154   0.83334   0.00000  Uiso   1.00
O1721  O     0.77226   0.79513   0.83333   0.00000  Uiso   1.00
O1722  O     0.83334   0.87155   0.76178   0.00000  Uiso   1.00
O1723  O     0.83333   0.79512   0.90489   0.00000  Uiso   1.00
O1724  O     0.83333   0.87155   0.90489   0.00000  Uiso   1.00
O1725  O     0.83334   0.79512   0.76178   0.00000  Uiso   1.00
O1726  O     0.71365   0.77983   0.90156   0.00000  Uiso   1.00
Zn1727 Zn    0.83333   0.88437   0.83333   0.00000  Uiso   1.00
Zn1728 Zn    0.83333   0.78229   0.83333   0.00000  Uiso   1.00
loop_
_geom_bond_atom_site_label_1
_geom_bond_atom_site_label_2
_geom_bond_distance
_geom_bond_site_symmetry_2
_ccdc_geom_bond_type
C1     O57     1.293   .     A
C1     C4      1.416   .     S
C1     O51     1.299   .     A
C2     C4      1.401   .     A
C2     O54     1.382   .     S
C2     C151    1.385   1_455 S
C3     C12     1.416   .     S
C3     C23     1.402   .     A
C3     C24     1.401   .     A
C4     C22     1.402   .     A
C5     N50     1.382   .     A
C5     C14     1.505   .     S
C5     C392    1.439   1_545 S
C6     C15     1.505   .     S
C6     N49     1.382   .     A
C6     C199    1.439   .     S
C7     C16     1.516   .     S
C7     N50     1.377   .     A
C7     C390    1.439   1_545 S
C8     C17     1.516   .     S
C8     N49     1.377   .     A
C8     C197    1.439   .     S
C9     H25     1.111   .     S
C9     H42     1.109   .     S
C9     O62     1.412   .     S
C9     H36     1.114   .     S
C10    O52     1.412   .     S
C10    H45     1.114   .     S
C10    H44     1.109   .     S
C10    H43     1.111   .     S
C11    H47     1.114   .     S
C11    O53     1.409   .     S
C11    H48     1.110   .     S
C11    H46     1.109   .     S
C12    O56     1.293   .     A
C12    O55     1.299   .     A
C13    H28     1.109   .     S
C13    H26     1.114   .     S
C13    O54     1.409   .     S
C13    H27     1.110   .     S
C14    H31     1.111   .     S
C14    H30     1.081   .     S
C14    H29     1.110   .     S
C15    H34     1.111   .     S
C15    H32     1.081   .     S
C15    H33     1.110   .     S
C16    H37     1.096   .     S
C16    H35     1.104   .     S
C16    H38     1.109   .     S
C17    H41     1.104   .     S
C17    H39     1.109   .     S
C17    H40     1.096   .     S
C18    O61     1.291   .     A
C18    C20     1.368   .     S
C18    O58     1.292   .     A
C19    O60     1.291   .     A
C19    C21     1.368   .     S
C19    O59     1.292   .     A
C20    C1173   1.166   1_554 S
C21    C596    1.166   .     S
C22    O62     1.387   .     S
C22    C152    1.385   1_455 S
C23    O52     1.386   .     S
C23    C66     1.385   .     S
C24    O53     1.382   .     S
C24    C86     1.385   .     S
N49    Zn63    2.048   .     S
N50    Zn64    2.048   .     S
O51    Zn63    1.996   .     S
O55    Zn64    1.996   .     S
O56    Zn63    1.989   .     S
O57    Zn64    1.989   .     S
O58    Zn63    1.949   .     S
O59    Zn64    1.949   .     S
O60    Zn63    1.947   .     S
O61    Zn64    1.947   .     S
C65    O121    1.293   .     A
C65    C68     1.416   .     S
C65    O115    1.299   .     A
C66    C68     1.401   .     A
C66    O118    1.382   .     S
C67    C76     1.416   .     S
C67    C87     1.402   .     A
C67    C88     1.401   .     A
C68    C86     1.402   .     A
C69    N114    1.382   .     A
C69    C78     1.505   .     S
C69    C456    1.439   1_545 S
C70    C79     1.505   .     S
C70    N113    1.382   .     A
C70    C263    1.439   .     S
C71    C80     1.516   .     S
C71    N114    1.377   .     A
C71    C454    1.439   1_545 S
C72    C81     1.516   .     S
C72    N113    1.377   .     A
C72    C261    1.439   .     S
C73    H89     1.111   .     S
C73    H106    1.109   .     S
C73    O126    1.412   .     S
C73    H100    1.114   .     S
C74    O116    1.412   .     S
C74    H109    1.114   .     S
C74    H108    1.109   .     S
C74    H107    1.111   .     S
C75    H111    1.114   .     S
C75    O117    1.409   .     S
C75    H112    1.110   .     S
C75    H110    1.109   .     S
C76    O120    1.293   .     A
C76    O119    1.299   .     A
C77    H92     1.109   .     S
C77    H90     1.114   .     S
C77    O118    1.409   .     S
C77    H91     1.110   .     S
C78    H95     1.111   .     S
C78    H94     1.081   .     S
C78    H93     1.110   .     S
C79    H98     1.111   .     S
C79    H96     1.081   .     S
C79    H97     1.110   .     S
C80    H101    1.096   .     S
C80    H99     1.104   .     S
C80    H102    1.109   .     S
C81    H105    1.104   .     S
C81    H103    1.109   .     S
C81    H104    1.096   .     S
C82    O125    1.291   .     A
C82    C84     1.368   .     S
C82    O122    1.292   .     A
C83    O124    1.291   .     A
C83    C85     1.368   .     S
C83    O123    1.292   .     A
C84    C1237   1.166   1_554 S
C85    C660    1.166   .     S
C86    O126    1.387   .     S
C87    O116    1.386   .     S
C87    C130    1.385   .     S
C88    O117    1.382   .     S
C88    C150    1.385   .     S
N113   Zn127   2.048   .     S
N114   Zn128   2.048   .     S
O115   Zn127   1.996   .     S
O119   Zn128   1.996   .     S
O120   Zn127   1.989   .     S
O121   Zn128   1.989   .     S
O122   Zn127   1.949   .     S
O123   Zn128   1.949   .     S
O124   Zn127   1.947   .     S
O125   Zn128   1.947   .     S
C129   O185    1.293   .     A
C129   C132    1.416   .     S
C129   O179    1.299   .     A
C130   C132    1.401   .     A
C130   O182    1.382   .     S
C131   C140    1.416   .     S
C131   C151    1.402   .     A
C131   C152    1.401   .     A
C132   C150    1.402   .     A
C133   N178    1.382   .     A
C133   C142    1.505   .     S
C133   C520    1.439   1_545 S
C134   C143    1.505   .     S
C134   N177    1.382   .     A
C134   C327    1.439   .     S
C135   C144    1.516   .     S
C135   N178    1.377   .     A
C135   C518    1.439   1_545 S
C136   C145    1.516   .     S
C136   N177    1.377   .     A
C136   C325    1.439   .     S
C137   H153    1.111   .     S
C137   H170    1.109   .     S
C137   O190    1.412   .     S
C137   H164    1.114   .     S
C138   O180    1.412   .     S
C138   H173    1.114   .     S
C138   H172    1.109   .     S
C138   H171    1.111   .     S
C139   H175    1.114   .     S
C139   O181    1.409   .     S
C139   H176    1.110   .     S
C139   H174    1.109   .     S
C140   O184    1.293   .     A
C140   O183    1.299   .     A
C141   H156    1.109   .     S
C141   H154    1.114   .     S
C141   O182    1.409   .     S
C141   H155    1.110   .     S
C142   H159    1.111   .     S
C142   H158    1.081   .     S
C142   H157    1.110   .     S
C143   H162    1.111   .     S
C143   H160    1.081   .     S
C143   H161    1.110   .     S
C144   H165    1.096   .     S
C144   H163    1.104   .     S
C144   H166    1.109   .     S
C145   H169    1.104   .     S
C145   H167    1.109   .     S
C145   H168    1.096   .     S
C146   O189    1.291   .     A
C146   C148    1.368   .     S
C146   O186    1.292   .     A
C147   O188    1.291   .     A
C147   C149    1.368   .     S
C147   O187    1.292   .     A
C148   C1301   1.166   1_554 S
C149   C724    1.166   .     S
C150   O190    1.387   .     S
C151   O180    1.386   .     S
C151   C2      1.385   1_655 S
C152   O181    1.382   .     S
C152   C22     1.385   1_655 S
N177   Zn191   2.048   .     S
N178   Zn192   2.048   .     S
O179   Zn191   1.996   .     S
O183   Zn192   1.996   .     S
O184   Zn191   1.989   .     S
O185   Zn192   1.989   .     S
O186   Zn191   1.949   .     S
O187   Zn192   1.949   .     S
O188   Zn191   1.947   .     S
O189   Zn192   1.947   .     S
C193   O249    1.293   .     A
C193   C196    1.416   .     S
C193   O243    1.299   .     A
C194   C196    1.401   .     A
C194   O246    1.382   .     S
C194   C343    1.385   1_455 S
C195   C204    1.416   .     S
C195   C215    1.402   .     A
C195   C216    1.401   .     A
C196   C214    1.402   .     A
C197   N242    1.382   .     A
C197   C206    1.505   .     S
C198   C207    1.505   .     S
C198   N241    1.382   .     A
C198   C391    1.439   .     S
C199   C208    1.516   .     S
C199   N242    1.377   .     A
C200   C209    1.516   .     S
C200   N241    1.377   .     A
C200   C389    1.439   .     S
C201   H217    1.111   .     S
C201   H234    1.109   .     S
C201   O254    1.412   .     S
C201   H228    1.114   .     S
C202   O244    1.412   .     S
C202   H237    1.114   .     S
C202   H236    1.109   .     S
C202   H235    1.111   .     S
C203   H239    1.114   .     S
C203   O245    1.409   .     S
C203   H240    1.110   .     S
C203   H238    1.109   .     S
C204   O248    1.293   .     A
C204   O247    1.299   .     A
C205   H220    1.109   .     S
C205   H218    1.114   .     S
C205   O246    1.409   .     S
C205   H219    1.110   .     S
C206   H223    1.111   .     S
C206   H222    1.081   .     S
C206   H221    1.110   .     S
C207   H226    1.111   .     S
C207   H224    1.081   .     S
C207   H225    1.110   .     S
C208   H229    1.096   .     S
C208   H227    1.104   .     S
C208   H230    1.109   .     S
C209   H233    1.104   .     S
C209   H231    1.109   .     S
C209   H232    1.096   .     S
C210   O253    1.291   .     A
C210   C212    1.368   .     S
C210   O250    1.292   .     A
C211   O252    1.291   .     A
C211   C213    1.368   .     S
C211   O251    1.292   .     A
C212   C1365   1.166   1_554 S
C213   C788    1.166   .     S
C214   O254    1.387   .     S
C214   C344    1.385   1_455 S
C215   O244    1.386   .     S
C215   C258    1.385   .     S
C216   O245    1.382   .     S
C216   C278    1.385   .     S
N241   Zn255   2.048   .     S
N242   Zn256   2.048   .     S
O243   Zn255   1.996   .     S
O247   Zn256   1.996   .     S
O248   Zn255   1.989   .     S
O249   Zn256   1.989   .     S
O250   Zn255   1.949   .     S
O251   Zn256   1.949   .     S
O252   Zn255   1.947   .     S
O253   Zn256   1.947   .     S
C257   O313    1.293   .     A
C257   C260    1.416   .     S
C257   O307    1.299   .     A
C258   C260    1.401   .     A
C258   O310    1.382   .     S
C259   C268    1.416   .     S
C259   C279    1.402   .     A
C259   C280    1.401   .     A
C260   C278    1.402   .     A
C261   N306    1.382   .     A
C261   C270    1.505   .     S
C262   C271    1.505   .     S
C262   N305    1.382   .     A
C262   C455    1.439   .     S
C263   C272    1.516   .     S
C263   N306    1.377   .     A
C264   C273    1.516   .     S
C264   N305    1.377   .     A
C264   C453    1.439   .     S
C265   H281    1.111   .     S
C265   H298    1.109   .     S
C265   O318    1.412   .     S
C265   H292    1.114   .     S
C266   O308    1.412   .     S
C266   H301    1.114   .     S
C266   H300    1.109   .     S
C266   H299    1.111   .     S
C267   H303    1.114   .     S
C267   O309    1.409   .     S
C267   H304    1.110   .     S
C267   H302    1.109   .     S
C268   O312    1.293   .     A
C268   O311    1.299   .     A
C269   H284    1.109   .     S
C269   H282    1.114   .     S
C269   O310    1.409   .     S
C269   H283    1.110   .     S
C270   H287    1.111   .     S
C270   H286    1.081   .     S
C270   H285    1.110   .     S
C271   H290    1.111   .     S
C271   H288    1.081   .     S
C271   H289    1.110   .     S
C272   H293    1.096   .     S
C272   H291    1.104   .     S
C272   H294    1.109   .     S
C273   H297    1.104   .     S
C273   H295    1.109   .     S
C273   H296    1.096   .     S
C274   O317    1.291   .     A
C274   C276    1.368   .     S
C274   O314    1.292   .     A
C275   O316    1.291   .     A
C275   C277    1.368   .     S
C275   O315    1.292   .     A
C276   C1429   1.166   1_554 S
C277   C852    1.166   .     S
C278   O318    1.387   .     S
C279   O308    1.386   .     S
C279   C322    1.385   .     S
C280   O309    1.382   .     S
C280   C342    1.385   .     S
N305   Zn319   2.048   .     S
N306   Zn320   2.048   .     S
O307   Zn319   1.996   .     S
O311   Zn320   1.996   .     S
O312   Zn319   1.989   .     S
O313   Zn320   1.989   .     S
O314   Zn319   1.949   .     S
O315   Zn320   1.949   .     S
O316   Zn319   1.947   .     S
O317   Zn320   1.947   .     S
C321   O377    1.293   .     A
C321   C324    1.416   .     S
C321   O371    1.299   .     A
C322   C324    1.401   .     A
C322   O374    1.382   .     S
C323   C332    1.416   .     S
C323   C343    1.402   .     A
C323   C344    1.401   .     A
C324   C342    1.402   .     A
C325   N370    1.382   .     A
C325   C334    1.505   .     S
C326   C335    1.505   .     S
C326   N369    1.382   .     A
C326   C519    1.439   .     S
C327   C336    1.516   .     S
C327   N370    1.377   .     A
C328   C337    1.516   .     S
C328   N369    1.377   .     A
C328   C517    1.439   .     S
C329   H345    1.111   .     S
C329   H362    1.109   .     S
C329   O382    1.412   .     S
C329   H356    1.114   .     S
C330   O372    1.412   .     S
C330   H365    1.114   .     S
C330   H364    1.109   .     S
C330   H363    1.111   .     S
C331   H367    1.114   .     S
C331   O373    1.409   .     S
C331   H368    1.110   .     S
C331   H366    1.109   .     S
C332   O376    1.293   .     A
C332   O375    1.299   .     A
C333   H348    1.109   .     S
C333   H346    1.114   .     S
C333   O374    1.409   .     S
C333   H347    1.110   .     S
C334   H351    1.111   .     S
C334   H350    1.081   .     S
C334   H349    1.110   .     S
C335   H354    1.111   .     S
C335   H352    1.081   .     S
C335   H353    1.110   .     S
C336   H357    1.096   .     S
C336   H355    1.104   .     S
C336   H358    1.109   .     S
C337   H361    1.104   .     S
C337   H359    1.109   .     S
C337   H360    1.096   .     S
C338   O381    1.291   .     A
C338   C340    1.368   .     S
C338   O378    1.292   .     A
C339   O380    1.291   .     A
C339   C341    1.368   .     S
C339   O379    1.292   .     A
C340   C1493   1.166   1_554 S
C341   C916    1.166   .     S
C342   O382    1.387   .     S
C343   O372    1.386   .     S
C343   C194    1.385   1_655 S
C344   O373    1.382   .     S
C344   C214    1.385   1_655 S
N369   Zn383   2.048   .     S
N370   Zn384   2.048   .     S
O371   Zn383   1.996   .     S
O375   Zn384   1.996   .     S
O376   Zn383   1.989   .     S
O377   Zn384   1.989   .     S
O378   Zn383   1.949   .     S
O379   Zn384   1.949   .     S
O380   Zn383   1.947   .     S
O381   Zn384   1.947   .     S
C385   O441    1.293   .     A
C385   C388    1.416   .     S
C385   O435    1.299   .     A
C386   C388    1.401   .     A
C386   O438    1.382   .     S
C386   C535    1.385   1_455 S
C387   C396    1.416   .     S
C387   C407    1.402   .     A
C387   C408    1.401   .     A
C388   C406    1.402   .     A
C389   N434    1.382   .     A
C389   C398    1.505   .     S
C390   C399    1.505   .     S
C390   N433    1.382   .     A
C390   C7      1.439   1_565 S
C391   C400    1.516   .     S
C391   N434    1.377   .     A
C392   C401    1.516   .     S
C392   N433    1.377   .     A
C392   C5      1.439   1_565 S
C393   H409    1.111   .     S
C393   H426    1.109   .     S
C393   O446    1.412   .     S
C393   H420    1.114   .     S
C394   O436    1.412   .     S
C394   H429    1.114   .     S
C394   H428    1.109   .     S
C394   H427    1.111   .     S
C395   H431    1.114   .     S
C395   O437    1.409   .     S
C395   H432    1.110   .     S
C395   H430    1.109   .     S
C396   O440    1.293   .     A
C396   O439    1.299   .     A
C397   H412    1.109   .     S
C397   H410    1.114   .     S
C397   O438    1.409   .     S
C397   H411    1.110   .     S
C398   H415    1.111   .     S
C398   H414    1.081   .     S
C398   H413    1.110   .     S
C399   H418    1.111   .     S
C399   H416    1.081   .     S
C399   H417    1.110   .     S
C400   H421    1.096   .     S
C400   H419    1.104   .     S
C400   H422    1.109   .     S
C401   H425    1.104   .     S
C401   H423    1.109   .     S
C401   H424    1.096   .     S
C402   O445    1.291   .     A
C402   C404    1.368   .     S
C402   O442    1.292   .     A
C403   O444    1.291   .     A
C403   C405    1.368   .     S
C403   O443    1.292   .     A
C404   C1557   1.166   1_554 S
C405   C980    1.166   .     S
C406   O446    1.387   .     S
C406   C536    1.385   1_455 S
C407   O436    1.386   .     S
C407   C450    1.385   .     S
C408   O437    1.382   .     S
C408   C470    1.385   .     S
N433   Zn447   2.048   .     S
N434   Zn448   2.048   .     S
O435   Zn447   1.996   .     S
O439   Zn448   1.996   .     S
O440   Zn447   1.989   .     S
O441   Zn448   1.989   .     S
O442   Zn447   1.949   .     S
O443   Zn448   1.949   .     S
O444   Zn447   1.947   .     S
O445   Zn448   1.947   .     S
C449   O505    1.293   .     A
C449   C452    1.416   .     S
C449   O499    1.299   .     A
C450   C452    1.401   .     A
C450   O502    1.382   .     S
C451   C460    1.416   .     S
C451   C471    1.402   .     A
C451   C472    1.401   .     A
C452   C470    1.402   .     A
C453   N498    1.382   .     A
C453   C462    1.505   .     S
C454   C463    1.505   .     S
C454   N497    1.382   .     A
C454   C71     1.439   1_565 S
C455   C464    1.516   .     S
C455   N498    1.377   .     A
C456   C465    1.516   .     S
C456   N497    1.377   .     A
C456   C69     1.439   1_565 S
C457   H473    1.111   .     S
C457   H490    1.109   .     S
C457   O510    1.412   .     S
C457   H484    1.114   .     S
C458   O500    1.412   .     S
C458   H493    1.114   .     S
C458   H492    1.109   .     S
C458   H491    1.111   .     S
C459   H495    1.114   .     S
C459   O501    1.409   .     S
C459   H496    1.110   .     S
C459   H494    1.109   .     S
C460   O504    1.293   .     A
C460   O503    1.299   .     A
C461   H476    1.109   .     S
C461   H474    1.114   .     S
C461   O502    1.409   .     S
C461   H475    1.110   .     S
C462   H479    1.111   .     S
C462   H478    1.081   .     S
C462   H477    1.110   .     S
C463   H482    1.111   .     S
C463   H480    1.081   .     S
C463   H481    1.110   .     S
C464   H485    1.096   .     S
C464   H483    1.104   .     S
C464   H486    1.109   .     S
C465   H489    1.104   .     S
C465   H487    1.109   .     S
C465   H488    1.096   .     S
C466   O509    1.291   .     A
C466   C468    1.368   .     S
C466   O506    1.292   .     A
C467   O508    1.291   .     A
C467   C469    1.368   .     S
C467   O507    1.292   .     A
C468   C1621   1.166   1_554 S
C469   C1044   1.166   .     S
C470   O510    1.387   .     S
C471   O500    1.386   .     S
C471   C514    1.385   .     S
C472   O501    1.382   .     S
C472   C534    1.385   .     S
N497   Zn511   2.048   .     S
N498   Zn512   2.048   .     S
O499   Zn511   1.996   .     S
O503   Zn512   1.996   .     S
O504   Zn511   1.989   .     S
O505   Zn512   1.989   .     S
O506   Zn511   1.949   .     S
O507   Zn512   1.949   .     S
O508   Zn511   1.947   .     S
O509   Zn512   1.947   .     S
C513   O569    1.293   .     A
C513   C516    1.416   .     S
C513   O563    1.299   .     A
C514   C516    1.401   .     A
C514   O566    1.382   .     S
C515   C524    1.416   .     S
C515   C535    1.402   .     A
C515   C536    1.401   .     A
C516   C534    1.402   .     A
C517   N562    1.382   .     A
C517   C526    1.505   .     S
C518   C527    1.505   .     S
C518   N561    1.382   .     A
C518   C135    1.439   1_565 S
C519   C528    1.516   .     S
C519   N562    1.377   .     A
C520   C529    1.516   .     S
C520   N561    1.377   .     A
C520   C133    1.439   1_565 S
C521   H537    1.111   .     S
C521   H554    1.109   .     S
C521   O574    1.412   .     S
C521   H548    1.114   .     S
C522   O564    1.412   .     S
C522   H557    1.114   .     S
C522   H556    1.109   .     S
C522   H555    1.111   .     S
C523   H559    1.114   .     S
C523   O565    1.409   .     S
C523   H560    1.110   .     S
C523   H558    1.109   .     S
C524   O568    1.293   .     A
C524   O567    1.299   .     A
C525   H540    1.109   .     S
C525   H538    1.114   .     S
C525   O566    1.409   .     S
C525   H539    1.110   .     S
C526   H543    1.111   .     S
C526   H542    1.081   .     S
C526   H541    1.110   .     S
C527   H546    1.111   .     S
C527   H544    1.081   .     S
C527   H545    1.110   .     S
C528   H549    1.096   .     S
C528   H547    1.104   .     S
C528   H550    1.109   .     S
C529   H553    1.104   .     S
C529   H551    1.109   .     S
C529   H552    1.096   .     S
C530   O573    1.291   .     A
C530   C532    1.368   .     S
C530   O570    1.292   .     A
C531   O572    1.291   .     A
C531   C533    1.368   .     S
C531   O571    1.292   .     A
C532   C1685   1.166   1_554 S
C533   C1108   1.166   .     S
C534   O574    1.387   .     S
C535   O564    1.386   .     S
C535   C386    1.385   1_655 S
C536   O565    1.382   .     S
C536   C406    1.385   1_655 S
N561   Zn575   2.048   .     S
N562   Zn576   2.048   .     S
O563   Zn575   1.996   .     S
O567   Zn576   1.996   .     S
O568   Zn575   1.989   .     S
O569   Zn576   1.989   .     S
O570   Zn575   1.949   .     S
O571   Zn576   1.949   .     S
O572   Zn575   1.947   .     S
O573   Zn576   1.947   .     S
C577   O633    1.293   .     A
C577   C580    1.416   .     S
C577   O627    1.299   .     A
C578   C580    1.401   .     A
C578   O630    1.382   .     S
C578   C727    1.385   1_455 S
C579   C588    1.416   .     S
C579   C599    1.402   .     A
C579   C600    1.401   .     A
C580   C598    1.402   .     A
C581   N626    1.382   .     A
C581   C590    1.505   .     S
C581   C968    1.439   1_545 S
C582   C591    1.505   .     S
C582   N625    1.382   .     A
C582   C775    1.439   .     S
C583   C592    1.516   .     S
C583   N626    1.377   .     A
C583   C966    1.439   1_545 S
C584   C593    1.516   .     S
C584   N625    1.377   .     A
C584   C773    1.439   .     S
C585   H601    1.111   .     S
C585   H618    1.109   .     S
C585   O638    1.412   .     S
C585   H612    1.114   .     S
C586   O628    1.412   .     S
C586   H621    1.114   .     S
C586   H620    1.109   .     S
C586   H619    1.111   .     S
C587   H623    1.114   .     S
C587   O629    1.409   .     S
C587   H624    1.110   .     S
C587   H622    1.109   .     S
C588   O632    1.293   .     A
C588   O631    1.299   .     A
C589   H604    1.109   .     S
C589   H602    1.114   .     S
C589   O630    1.409   .     S
C589   H603    1.110   .     S
C590   H607    1.111   .     S
C590   H606    1.081   .     S
C590   H605    1.110   .     S
C591   H610    1.111   .     S
C591   H608    1.081   .     S
C591   H609    1.110   .     S
C592   H613    1.096   .     S
C592   H611    1.104   .     S
C592   H614    1.109   .     S
C593   H617    1.104   .     S
C593   H615    1.109   .     S
C593   H616    1.096   .     S
C594   O637    1.291   .     A
C594   C596    1.368   .     S
C594   O634    1.292   .     A
C595   O636    1.291   .     A
C595   C597    1.368   .     S
C595   O635    1.292   .     A
C597   C1172   1.166   .     S
C598   O638    1.387   .     S
C598   C728    1.385   1_455 S
C599   O628    1.386   .     S
C599   C642    1.385   .     S
C600   O629    1.382   .     S
C600   C662    1.385   .     S
N625   Zn639   2.048   .     S
N626   Zn640   2.048   .     S
O627   Zn639   1.996   .     S
O631   Zn640   1.996   .     S
O632   Zn639   1.989   .     S
O633   Zn640   1.989   .     S
O634   Zn639   1.949   .     S
O635   Zn640   1.949   .     S
O636   Zn639   1.947   .     S
O637   Zn640   1.947   .     S
C641   O697    1.293   .     A
C641   C644    1.416   .     S
C641   O691    1.299   .     A
C642   C644    1.401   .     A
C642   O694    1.382   .     S
C643   C652    1.416   .     S
C643   C663    1.402   .     A
C643   C664    1.401   .     A
C644   C662    1.402   .     A
C645   N690    1.382   .     A
C645   C654    1.505   .     S
C645   C1032   1.439   1_545 S
C646   C655    1.505   .     S
C646   N689    1.382   .     A
C646   C839    1.439   .     S
C647   C656    1.516   .     S
C647   N690    1.377   .     A
C647   C1030   1.439   1_545 S
C648   C657    1.516   .     S
C648   N689    1.377   .     A
C648   C837    1.439   .     S
C649   H665    1.111   .     S
C649   H682    1.109   .     S
C649   O702    1.412   .     S
C649   H676    1.114   .     S
C650   O692    1.412   .     S
C650   H685    1.114   .     S
C650   H684    1.109   .     S
C650   H683    1.111   .     S
C651   H687    1.114   .     S
C651   O693    1.409   .     S
C651   H688    1.110   .     S
C651   H686    1.109   .     S
C652   O696    1.293   .     A
C652   O695    1.299   .     A
C653   H668    1.109   .     S
C653   H666    1.114   .     S
C653   O694    1.409   .     S
C653   H667    1.110   .     S
C654   H671    1.111   .     S
C654   H670    1.081   .     S
C654   H669    1.110   .     S
C655   H674    1.111   .     S
C655   H672    1.081   .     S
C655   H673    1.110   .     S
C656   H677    1.096   .     S
C656   H675    1.104   .     S
C656   H678    1.109   .     S
C657   H681    1.104   .     S
C657   H679    1.109   .     S
C657   H680    1.096   .     S
C658   O701    1.291   .     A
C658   C660    1.368   .     S
C658   O698    1.292   .     A
C659   O700    1.291   .     A
C659   C661    1.368   .     S
C659   O699    1.292   .     A
C661   C1236   1.166   .     S
C662   O702    1.387   .     S
C663   O692    1.386   .     S
C663   C706    1.385   .     S
C664   O693    1.382   .     S
C664   C726    1.385   .     S
N689   Zn703   2.048   .     S
N690   Zn704   2.048   .     S
O691   Zn703   1.996   .     S
O695   Zn704   1.996   .     S
O696   Zn703   1.989   .     S
O697   Zn704   1.989   .     S
O698   Zn703   1.949   .     S
O699   Zn704   1.949   .     S
O700   Zn703   1.947   .     S
O701   Zn704   1.947   .     S
C705   O761    1.293   .     A
C705   C708    1.416   .     S
C705   O755    1.299   .     A
C706   C708    1.401   .     A
C706   O758    1.382   .     S
C707   C716    1.416   .     S
C707   C727    1.402   .     A
C707   C728    1.401   .     A
C708   C726    1.402   .     A
C709   N754    1.382   .     A
C709   C718    1.505   .     S
C709   C1096   1.439   1_545 S
C710   C719    1.505   .     S
C710   N753    1.382   .     A
C710   C903    1.439   .     S
C711   C720    1.516   .     S
C711   N754    1.377   .     A
C711   C1094   1.439   1_545 S
C712   C721    1.516   .     S
C712   N753    1.377   .     A
C712   C901    1.439   .     S
C713   H729    1.111   .     S
C713   H746    1.109   .     S
C713   O766    1.412   .     S
C713   H740    1.114   .     S
C714   O756    1.412   .     S
C714   H749    1.114   .     S
C714   H748    1.109   .     S
C714   H747    1.111   .     S
C715   H751    1.114   .     S
C715   O757    1.409   .     S
C715   H752    1.110   .     S
C715   H750    1.109   .     S
C716   O760    1.293   .     A
C716   O759    1.299   .     A
C717   H732    1.109   .     S
C717   H730    1.114   .     S
C717   O758    1.409   .     S
C717   H731    1.110   .     S
C718   H735    1.111   .     S
C718   H734    1.081   .     S
C718   H733    1.110   .     S
C719   H738    1.111   .     S
C719   H736    1.081   .     S
C719   H737    1.110   .     S
C720   H741    1.096   .     S
C720   H739    1.104   .     S
C720   H742    1.109   .     S
C721   H745    1.104   .     S
C721   H743    1.109   .     S
C721   H744    1.096   .     S
C722   O765    1.291   .     A
C722   C724    1.368   .     S
C722   O762    1.292   .     A
C723   O764    1.291   .     A
C723   C725    1.368   .     S
C723   O763    1.292   .     A
C725   C1300   1.166   .     S
C726   O766    1.387   .     S
C727   O756    1.386   .     S
C727   C578    1.385   1_655 S
C728   O757    1.382   .     S
C728   C598    1.385   1_655 S
N753   Zn767   2.048   .     S
N754   Zn768   2.048   .     S
O755   Zn767   1.996   .     S
O759   Zn768   1.996   .     S
O760   Zn767   1.989   .     S
O761   Zn768   1.989   .     S
O762   Zn767   1.949   .     S
O763   Zn768   1.949   .     S
O764   Zn767   1.947   .     S
O765   Zn768   1.947   .     S
C769   O825    1.293   .     A
C769   C772    1.416   .     S
C769   O819    1.299   .     A
C770   C772    1.401   .     A
C770   O822    1.382   .     S
C770   C919    1.385   1_455 S
C771   C780    1.416   .     S
C771   C791    1.402   .     A
C771   C792    1.401   .     A
C772   C790    1.402   .     A
C773   N818    1.382   .     A
C773   C782    1.505   .     S
C774   C783    1.505   .     S
C774   N817    1.382   .     A
C774   C967    1.439   .     S
C775   C784    1.516   .     S
C775   N818    1.377   .     A
C776   C785    1.516   .     S
C776   N817    1.377   .     A
C776   C965    1.439   .     S
C777   H793    1.111   .     S
C777   H810    1.109   .     S
C777   O830    1.412   .     S
C777   H804    1.114   .     S
C778   O820    1.412   .     S
C778   H813    1.114   .     S
C778   H812    1.109   .     S
C778   H811    1.111   .     S
C779   H815    1.114   .     S
C779   O821    1.409   .     S
C779   H816    1.110   .     S
C779   H814    1.109   .     S
C780   O824    1.293   .     A
C780   O823    1.299   .     A
C781   H796    1.109   .     S
C781   H794    1.114   .     S
C781   O822    1.409   .     S
C781   H795    1.110   .     S
C782   H799    1.111   .     S
C782   H798    1.081   .     S
C782   H797    1.110   .     S
C783   H802    1.111   .     S
C783   H800    1.081   .     S
C783   H801    1.110   .     S
C784   H805    1.096   .     S
C784   H803    1.104   .     S
C784   H806    1.109   .     S
C785   H809    1.104   .     S
C785   H807    1.109   .     S
C785   H808    1.096   .     S
C786   O829    1.291   .     A
C786   C788    1.368   .     S
C786   O826    1.292   .     A
C787   O828    1.291   .     A
C787   C789    1.368   .     S
C787   O827    1.292   .     A
C789   C1364   1.166   .     S
C790   O830    1.387   .     S
C790   C920    1.385   1_455 S
C791   O820    1.386   .     S
C791   C834    1.385   .     S
C792   O821    1.382   .     S
C792   C854    1.385   .     S
N817   Zn831   2.048   .     S
N818   Zn832   2.048   .     S
O819   Zn831   1.996   .     S
O823   Zn832   1.996   .     S
O824   Zn831   1.989   .     S
O825   Zn832   1.989   .     S
O826   Zn831   1.949   .     S
O827   Zn832   1.949   .     S
O828   Zn831   1.947   .     S
O829   Zn832   1.947   .     S
C833   O889    1.293   .     A
C833   C836    1.416   .     S
C833   O883    1.299   .     A
C834   C836    1.401   .     A
C834   O886    1.382   .     S
C835   C844    1.416   .     S
C835   C855    1.402   .     A
C835   C856    1.401   .     A
C836   C854    1.402   .     A
C837   N882    1.382   .     A
C837   C846    1.505   .     S
C838   C847    1.505   .     S
C838   N881    1.382   .     A
C838   C1031   1.439   .     S
C839   C848    1.516   .     S
C839   N882    1.377   .     A
C840   C849    1.516   .     S
C840   N881    1.377   .     A
C840   C1029   1.439   .     S
C841   H857    1.111   .     S
C841   H874    1.109   .     S
C841   O894    1.412   .     S
C841   H868    1.114   .     S
C842   O884    1.412   .     S
C842   H877    1.114   .     S
C842   H876    1.109   .     S
C842   H875    1.111   .     S
C843   H879    1.114   .     S
C843   O885    1.409   .     S
C843   H880    1.110   .     S
C843   H878    1.109   .     S
C844   O888    1.293   .     A
C844   O887    1.299   .     A
C845   H860    1.109   .     S
C845   H858    1.114   .     S
C845   O886    1.409   .     S
C845   H859    1.110   .     S
C846   H863    1.111   .     S
C846   H862    1.081   .     S
C846   H861    1.110   .     S
C847   H866    1.111   .     S
C847   H864    1.081   .     S
C847   H865    1.110   .     S
C848   H869    1.096   .     S
C848   H867    1.104   .     S
C848   H870    1.109   .     S
C849   H873    1.104   .     S
C849   H871    1.109   .     S
C849   H872    1.096   .     S
C850   O893    1.291   .     A
C850   C852    1.368   .     S
C850   O890    1.292   .     A
C851   O892    1.291   .     A
C851   C853    1.368   .     S
C851   O891    1.292   .     A
C853   C1428   1.166   .     S
C854   O894    1.387   .     S
C855   O884    1.386   .     S
C855   C898    1.385   .     S
C856   O885    1.382   .     S
C856   C918    1.385   .     S
N881   Zn895   2.048   .     S
N882   Zn896   2.048   .     S
O883   Zn895   1.996   .     S
O887   Zn896   1.996   .     S
O888   Zn895   1.989   .     S
O889   Zn896   1.989   .     S
O890   Zn895   1.949   .     S
O891   Zn896   1.949   .     S
O892   Zn895   1.947   .     S
O893   Zn896   1.947   .     S
C897   O953    1.293   .     A
C897   C900    1.416   .     S
C897   O947    1.299   .     A
C898   C900    1.401   .     A
C898   O950    1.382   .     S
C899   C908    1.416   .     S
C899   C919    1.402   .     A
C899   C920    1.401   .     A
C900   C918    1.402   .     A
C901   N946    1.382   .     A
C901   C910    1.505   .     S
C902   C911    1.505   .     S
C902   N945    1.382   .     A
C902   C1095   1.439   .     S
C903   C912    1.516   .     S
C903   N946    1.377   .     A
C904   C913    1.516   .     S
C904   N945    1.377   .     A
C904   C1093   1.439   .     S
C905   H921    1.111   .     S
C905   H938    1.109   .     S
C905   O958    1.412   .     S
C905   H932    1.114   .     S
C906   O948    1.412   .     S
C906   H941    1.114   .     S
C906   H940    1.109   .     S
C906   H939    1.111   .     S
C907   H943    1.114   .     S
C907   O949    1.409   .     S
C907   H944    1.110   .     S
C907   H942    1.109   .     S
C908   O952    1.293   .     A
C908   O951    1.299   .     A
C909   H924    1.109   .     S
C909   H922    1.114   .     S
C909   O950    1.409   .     S
C909   H923    1.110   .     S
C910   H927    1.111   .     S
C910   H926    1.081   .     S
C910   H925    1.110   .     S
C911   H930    1.111   .     S
C911   H928    1.081   .     S
C911   H929    1.110   .     S
C912   H933    1.096   .     S
C912   H931    1.104   .     S
C912   H934    1.109   .     S
C913   H937    1.104   .     S
C913   H935    1.109   .     S
C913   H936    1.096   .     S
C914   O957    1.291   .     A
C914   C916    1.368   .     S
C914   O954    1.292   .     A
C915   O956    1.291   .     A
C915   C917    1.368   .     S
C915   O955    1.292   .     A
C917   C1492   1.166   .     S
C918   O958    1.387   .     S
C919   O948    1.386   .     S
C919   C770    1.385   1_655 S
C920   O949    1.382   .     S
C920   C790    1.385   1_655 S
N945   Zn959   2.048   .     S
N946   Zn960   2.048   .     S
O947   Zn959   1.996   .     S
O951   Zn960   1.996   .     S
O952   Zn959   1.989   .     S
O953   Zn960   1.989   .     S
O954   Zn959   1.949   .     S
O955   Zn960   1.949   .     S
O956   Zn959   1.947   .     S
O957   Zn960   1.947   .     S
C961   O1017   1.293   .     A
C961   C964    1.416   .     S
C961   O1011   1.299   .     A
C962   C964    1.401   .     A
C962   O1014   1.382   .     S
C962   C1111   1.385   1_455 S
C963   C972    1.416   .     S
C963   C983    1.402   .     A
C963   C984    1.401   .     A
C964   C982    1.402   .     A
C965   N1010   1.382   .     A
C965   C974    1.505   .     S
C966   C975    1.505   .     S
C966   N1009   1.382   .     A
C966   C583    1.439   1_565 S
C967   C976    1.516   .     S
C967   N1010   1.377   .     A
C968   C977    1.516   .     S
C968   N1009   1.377   .     A
C968   C581    1.439   1_565 S
C969   H985    1.111   .     S
C969   H1002   1.109   .     S
C969   O1022   1.412   .     S
C969   H996    1.114   .     S
C970   O1012   1.412   .     S
C970   H1005   1.114   .     S
C970   H1004   1.109   .     S
C970   H1003   1.111   .     S
C971   H1007   1.114   .     S
C971   O1013   1.409   .     S
C971   H1008   1.110   .     S
C971   H1006   1.109   .     S
C972   O1016   1.293   .     A
C972   O1015   1.299   .     A
C973   H988    1.109   .     S
C973   H986    1.114   .     S
C973   O1014   1.409   .     S
C973   H987    1.110   .     S
C974   H991    1.111   .     S
C974   H990    1.081   .     S
C974   H989    1.110   .     S
C975   H994    1.111   .     S
C975   H992    1.081   .     S
C975   H993    1.110   .     S
C976   H997    1.096   .     S
C976   H995    1.104   .     S
C976   H998    1.109   .     S
C977   H1001   1.104   .     S
C977   H999    1.109   .     S
C977   H1000   1.096   .     S
C978   O1021   1.291   .     A
C978   C980    1.368   .     S
C978   O1018   1.292   .     A
C979   O1020   1.291   .     A
C979   C981    1.368   .     S
C979   O1019   1.292   .     A
C981   C1556   1.166   .     S
C982   O1022   1.387   .     S
C982   C1112   1.385   1_455 S
C983   O1012   1.386   .     S
C983   C1026   1.385   .     S
C984   O1013   1.382   .     S
C984   C1046   1.385   .     S
N1009  Zn1023  2.048   .     S
N1010  Zn1024  2.048   .     S
O1011  Zn1023  1.996   .     S
O1015  Zn1024  1.996   .     S
O1016  Zn1023  1.989   .     S
O1017  Zn1024  1.989   .     S
O1018  Zn1023  1.949   .     S
O1019  Zn1024  1.949   .     S
O1020  Zn1023  1.947   .     S
O1021  Zn1024  1.947   .     S
C1025  O1081   1.293   .     A
C1025  C1028   1.416   .     S
C1025  O1075   1.299   .     A
C1026  C1028   1.401   .     A
C1026  O1078   1.382   .     S
C1027  C1036   1.416   .     S
C1027  C1047   1.402   .     A
C1027  C1048   1.401   .     A
C1028  C1046   1.402   .     A
C1029  N1074   1.382   .     A
C1029  C1038   1.505   .     S
C1030  C1039   1.505   .     S
C1030  N1073   1.382   .     A
C1030  C647    1.439   1_565 S
C1031  C1040   1.516   .     S
C1031  N1074   1.377   .     A
C1032  C1041   1.516   .     S
C1032  N1073   1.377   .     A
C1032  C645    1.439   1_565 S
C1033  H1049   1.111   .     S
C1033  H1066   1.109   .     S
C1033  O1086   1.412   .     S
C1033  H1060   1.114   .     S
C1034  O1076   1.412   .     S
C1034  H1069   1.114   .     S
C1034  H1068   1.109   .     S
C1034  H1067   1.111   .     S
C1035  H1071   1.114   .     S
C1035  O1077   1.409   .     S
C1035  H1072   1.110   .     S
C1035  H1070   1.109   .     S
C1036  O1080   1.293   .     A
C1036  O1079   1.299   .     A
C1037  H1052   1.109   .     S
C1037  H1050   1.114   .     S
C1037  O1078   1.409   .     S
C1037  H1051   1.110   .     S
C1038  H1055   1.111   .     S
C1038  H1054   1.081   .     S
C1038  H1053   1.110   .     S
C1039  H1058   1.111   .     S
C1039  H1056   1.081   .     S
C1039  H1057   1.110   .     S
C1040  H1061   1.096   .     S
C1040  H1059   1.104   .     S
C1040  H1062   1.109   .     S
C1041  H1065   1.104   .     S
C1041  H1063   1.109   .     S
C1041  H1064   1.096   .     S
C1042  O1085   1.291   .     A
C1042  C1044   1.368   .     S
C1042  O1082   1.292   .     A
C1043  O1084   1.291   .     A
C1043  C1045   1.368   .     S
C1043  O1083   1.292   .     A
C1045  C1620   1.166   .     S
C1046  O1086   1.387   .     S
C1047  O1076   1.386   .     S
C1047  C1090   1.385   .     S
C1048  O1077   1.382   .     S
C1048  C1110   1.385   .     S
N1073  Zn1087  2.048   .     S
N1074  Zn1088  2.048   .     S
O1075  Zn1087  1.996   .     S
O1079  Zn1088  1.996   .     S
O1080  Zn1087  1.989   .     S
O1081  Zn1088  1.989   .     S
O1082  Zn1087  1.949   .     S
O1083  Zn1088  1.949   .     S
O1084  Zn1087  1.947   .     S
O1085  Zn1088  1.947   .     S
C1089  O1145   1.293   .     A
C1089  C1092   1.416   .     S
C1089  O1139   1.299   .     A
C1090  C1092   1.401   .     A
C1090  O1142   1.382   .     S
C1091  C1100   1.416   .     S
C1091  C1111   1.402   .     A
C1091  C1112   1.401   .     A
C1092  C1110   1.402   .     A
C1093  N1138   1.382   .     A
C1093  C1102   1.505   .     S
C1094  C1103   1.505   .     S
C1094  N1137   1.382   .     A
C1094  C711    1.439   1_565 S
C1095  C1104   1.516   .     S
C1095  N1138   1.377   .     A
C1096  C1105   1.516   .     S
C1096  N1137   1.377   .     A
C1096  C709    1.439   1_565 S
C1097  H1113   1.111   .     S
C1097  H1130   1.109   .     S
C1097  O1150   1.412   .     S
C1097  H1124   1.114   .     S
C1098  O1140   1.412   .     S
C1098  H1133   1.114   .     S
C1098  H1132   1.109   .     S
C1098  H1131   1.111   .     S
C1099  H1135   1.114   .     S
C1099  O1141   1.409   .     S
C1099  H1136   1.110   .     S
C1099  H1134   1.109   .     S
C1100  O1144   1.293   .     A
C1100  O1143   1.299   .     A
C1101  H1116   1.109   .     S
C1101  H1114   1.114   .     S
C1101  O1142   1.409   .     S
C1101  H1115   1.110   .     S
C1102  H1119   1.111   .     S
C1102  H1118   1.081   .     S
C1102  H1117   1.110   .     S
C1103  H1122   1.111   .     S
C1103  H1120   1.081   .     S
C1103  H1121   1.110   .     S
C1104  H1125   1.096   .     S
C1104  H1123   1.104   .     S
C1104  H1126   1.109   .     S
C1105  H1129   1.104   .     S
C1105  H1127   1.109   .     S
C1105  H1128   1.096   .     S
C1106  O1149   1.291   .     A
C1106  C1108   1.368   .     S
C1106  O1146   1.292   .     A
C1107  O1148   1.291   .     A
C1107  C1109   1.368   .     S
C1107  O1147   1.292   .     A
C1109  C1684   1.166   .     S
C1110  O1150   1.387   .     S
C1111  O1140   1.386   .     S
C1111  C962    1.385   1_655 S
C1112  O1141   1.382   .     S
C1112  C982    1.385   1_655 S
N1137  Zn1151  2.048   .     S
N1138  Zn1152  2.048   .     S
O1139  Zn1151  1.996   .     S
O1143  Zn1152  1.996   .     S
O1144  Zn1151  1.989   .     S
O1145  Zn1152  1.989   .     S
O1146  Zn1151  1.949   .     S
O1147  Zn1152  1.949   .     S
O1148  Zn1151  1.947   .     S
O1149  Zn1152  1.947   .     S
C1153  O1209   1.293   .     A
C1153  C1156   1.416   .     S
C1153  O1203   1.299   .     A
C1154  C1156   1.401   .     A
C1154  O1206   1.382   .     S
C1154  C1303   1.385   1_455 S
C1155  C1164   1.416   .     S
C1155  C1175   1.402   .     A
C1155  C1176   1.401   .     A
C1156  C1174   1.402   .     A
C1157  N1202   1.382   .     A
C1157  C1166   1.505   .     S
C1157  C1544   1.439   1_545 S
C1158  C1167   1.505   .     S
C1158  N1201   1.382   .     A
C1158  C1351   1.439   .     S
C1159  C1168   1.516   .     S
C1159  N1202   1.377   .     A
C1159  C1542   1.439   1_545 S
C1160  C1169   1.516   .     S
C1160  N1201   1.377   .     A
C1160  C1349   1.439   .     S
C1161  H1177   1.111   .     S
C1161  H1194   1.109   .     S
C1161  O1214   1.412   .     S
C1161  H1188   1.114   .     S
C1162  O1204   1.412   .     S
C1162  H1197   1.114   .     S
C1162  H1196   1.109   .     S
C1162  H1195   1.111   .     S
C1163  H1199   1.114   .     S
C1163  O1205   1.409   .     S
C1163  H1200   1.110   .     S
C1163  H1198   1.109   .     S
C1164  O1208   1.293   .     A
C1164  O1207   1.299   .     A
C1165  H1180   1.109   .     S
C1165  H1178   1.114   .     S
C1165  O1206   1.409   .     S
C1165  H1179   1.110   .     S
C1166  H1183   1.111   .     S
C1166  H1182   1.081   .     S
C1166  H1181   1.110   .     S
C1167  H1186   1.111   .     S
C1167  H1184   1.081   .     S
C1167  H1185   1.110   .     S
C1168  H1189   1.096   .     S
C1168  H1187   1.104   .     S
C1168  H1190   1.109   .     S
C1169  H1193   1.104   .     S
C1169  H1191   1.109   .     S
C1169  H1192   1.096   .     S
C1170  O1213   1.291   .     A
C1170  C1172   1.368   .     S
C1170  O1210   1.292   .     A
C1171  O1212   1.291   .     A
C1171  C1173   1.368   .     S
C1171  O1211   1.292   .     A
C1173  C20     1.166   1_556 S
C1174  O1214   1.387   .     S
C1174  C1304   1.385   1_455 S
C1175  O1204   1.386   .     S
C1175  C1218   1.385   .     S
C1176  O1205   1.382   .     S
C1176  C1238   1.385   .     S
N1201  Zn1215  2.048   .     S
N1202  Zn1216  2.048   .     S
O1203  Zn1215  1.996   .     S
O1207  Zn1216  1.996   .     S
O1208  Zn1215  1.989   .     S
O1209  Zn1216  1.989   .     S
O1210  Zn1215  1.949   .     S
O1211  Zn1216  1.949   .     S
O1212  Zn1215  1.947   .     S
O1213  Zn1216  1.947   .     S
C1217  O1273   1.293   .     A
C1217  C1220   1.416   .     S
C1217  O1267   1.299   .     A
C1218  C1220   1.401   .     A
C1218  O1270   1.382   .     S
C1219  C1228   1.416   .     S
C1219  C1239   1.402   .     A
C1219  C1240   1.401   .     A
C1220  C1238   1.402   .     A
C1221  N1266   1.382   .     A
C1221  C1230   1.505   .     S
C1221  C1608   1.439   1_545 S
C1222  C1231   1.505   .     S
C1222  N1265   1.382   .     A
C1222  C1415   1.439   .     S
C1223  C1232   1.516   .     S
C1223  N1266   1.377   .     A
C1223  C1606   1.439   1_545 S
C1224  C1233   1.516   .     S
C1224  N1265   1.377   .     A
C1224  C1413   1.439   .     S
C1225  H1241   1.111   .     S
C1225  H1258   1.109   .     S
C1225  O1278   1.412   .     S
C1225  H1252   1.114   .     S
C1226  O1268   1.412   .     S
C1226  H1261   1.114   .     S
C1226  H1260   1.109   .     S
C1226  H1259   1.111   .     S
C1227  H1263   1.114   .     S
C1227  O1269   1.409   .     S
C1227  H1264   1.110   .     S
C1227  H1262   1.109   .     S
C1228  O1272   1.293   .     A
C1228  O1271   1.299   .     A
C1229  H1244   1.109   .     S
C1229  H1242   1.114   .     S
C1229  O1270   1.409   .     S
C1229  H1243   1.110   .     S
C1230  H1247   1.111   .     S
C1230  H1246   1.081   .     S
C1230  H1245   1.110   .     S
C1231  H1250   1.111   .     S
C1231  H1248   1.081   .     S
C1231  H1249   1.110   .     S
C1232  H1253   1.096   .     S
C1232  H1251   1.104   .     S
C1232  H1254   1.109   .     S
C1233  H1257   1.104   .     S
C1233  H1255   1.109   .     S
C1233  H1256   1.096   .     S
C1234  O1277   1.291   .     A
C1234  C1236   1.368   .     S
C1234  O1274   1.292   .     A
C1235  O1276   1.291   .     A
C1235  C1237   1.368   .     S
C1235  O1275   1.292   .     A
C1237  C84     1.166   1_556 S
C1238  O1278   1.387   .     S
C1239  O1268   1.386   .     S
C1239  C1282   1.385   .     S
C1240  O1269   1.382   .     S
C1240  C1302   1.385   .     S
N1265  Zn1279  2.048   .     S
N1266  Zn1280  2.048   .     S
O1267  Zn1279  1.996   .     S
O1271  Zn1280  1.996   .     S
O1272  Zn1279  1.989   .     S
O1273  Zn1280  1.989   .     S
O1274  Zn1279  1.949   .     S
O1275  Zn1280  1.949   .     S
O1276  Zn1279  1.947   .     S
O1277  Zn1280  1.947   .     S
C1281  O1337   1.293   .     A
C1281  C1284   1.416   .     S
C1281  O1331   1.299   .     A
C1282  C1284   1.401   .     A
C1282  O1334   1.382   .     S
C1283  C1292   1.416   .     S
C1283  C1303   1.402   .     A
C1283  C1304   1.401   .     A
C1284  C1302   1.402   .     A
C1285  N1330   1.382   .     A
C1285  C1294   1.505   .     S
C1285  C1672   1.439   1_545 S
C1286  C1295   1.505   .     S
C1286  N1329   1.382   .     A
C1286  C1479   1.439   .     S
C1287  C1296   1.516   .     S
C1287  N1330   1.377   .     A
C1287  C1670   1.439   1_545 S
C1288  C1297   1.516   .     S
C1288  N1329   1.377   .     A
C1288  C1477   1.439   .     S
C1289  H1305   1.111   .     S
C1289  H1322   1.109   .     S
C1289  O1342   1.412   .     S
C1289  H1316   1.114   .     S
C1290  O1332   1.412   .     S
C1290  H1325   1.114   .     S
C1290  H1324   1.109   .     S
C1290  H1323   1.111   .     S
C1291  H1327   1.114   .     S
C1291  O1333   1.409   .     S
C1291  H1328   1.110   .     S
C1291  H1326   1.109   .     S
C1292  O1336   1.293   .     A
C1292  O1335   1.299   .     A
C1293  H1308   1.109   .     S
C1293  H1306   1.114   .     S
C1293  O1334   1.409   .     S
C1293  H1307   1.110   .     S
C1294  H1311   1.111   .     S
C1294  H1310   1.081   .     S
C1294  H1309   1.110   .     S
C1295  H1314   1.111   .     S
C1295  H1312   1.081   .     S
C1295  H1313   1.110   .     S
C1296  H1317   1.096   .     S
C1296  H1315   1.104   .     S
C1296  H1318   1.109   .     S
C1297  H1321   1.104   .     S
C1297  H1319   1.109   .     S
C1297  H1320   1.096   .     S
C1298  O1341   1.291   .     A
C1298  C1300   1.368   .     S
C1298  O1338   1.292   .     A
C1299  O1340   1.291   .     A
C1299  C1301   1.368   .     S
C1299  O1339   1.292   .     A
C1301  C148    1.166   1_556 S
C1302  O1342   1.387   .     S
C1303  O1332   1.386   .     S
C1303  C1154   1.385   1_655 S
C1304  O1333   1.382   .     S
C1304  C1174   1.385   1_655 S
N1329  Zn1343  2.048   .     S
N1330  Zn1344  2.048   .     S
O1331  Zn1343  1.996   .     S
O1335  Zn1344  1.996   .     S
O1336  Zn1343  1.989   .     S
O1337  Zn1344  1.989   .     S
O1338  Zn1343  1.949   .     S
O1339  Zn1344  1.949   .     S
O1340  Zn1343  1.947   .     S
O1341  Zn1344  1.947   .     S
C1345  O1401   1.293   .     A
C1345  C1348   1.416   .     S
C1345  O1395   1.299   .     A
C1346  C1348   1.401   .     A
C1346  O1398   1.382   .     S
C1346  C1495   1.385   1_455 S
C1347  C1356   1.416   .     S
C1347  C1367   1.402   .     A
C1347  C1368   1.401   .     A
C1348  C1366   1.402   .     A
C1349  N1394   1.382   .     A
C1349  C1358   1.505   .     S
C1350  C1359   1.505   .     S
C1350  N1393   1.382   .     A
C1350  C1543   1.439   .     S
C1351  C1360   1.516   .     S
C1351  N1394   1.377   .     A
C1352  C1361   1.516   .     S
C1352  N1393   1.377   .     A
C1352  C1541   1.439   .     S
C1353  H1369   1.111   .     S
C1353  H1386   1.109   .     S
C1353  O1406   1.412   .     S
C1353  H1380   1.114   .     S
C1354  O1396   1.412   .     S
C1354  H1389   1.114   .     S
C1354  H1388   1.109   .     S
C1354  H1387   1.111   .     S
C1355  H1391   1.114   .     S
C1355  O1397   1.409   .     S
C1355  H1392   1.110   .     S
C1355  H1390   1.109   .     S
C1356  O1400   1.293   .     A
C1356  O1399   1.299   .     A
C1357  H1372   1.109   .     S
C1357  H1370   1.114   .     S
C1357  O1398   1.409   .     S
C1357  H1371   1.110   .     S
C1358  H1375   1.111   .     S
C1358  H1374   1.081   .     S
C1358  H1373   1.110   .     S
C1359  H1378   1.111   .     S
C1359  H1376   1.081   .     S
C1359  H1377   1.110   .     S
C1360  H1381   1.096   .     S
C1360  H1379   1.104   .     S
C1360  H1382   1.109   .     S
C1361  H1385   1.104   .     S
C1361  H1383   1.109   .     S
C1361  H1384   1.096   .     S
C1362  O1405   1.291   .     A
C1362  C1364   1.368   .     S
C1362  O1402   1.292   .     A
C1363  O1404   1.291   .     A
C1363  C1365   1.368   .     S
C1363  O1403   1.292   .     A
C1365  C212    1.166   1_556 S
C1366  O1406   1.387   .     S
C1366  C1496   1.385   1_455 S
C1367  O1396   1.386   .     S
C1367  C1410   1.385   .     S
C1368  O1397   1.382   .     S
C1368  C1430   1.385   .     S
N1393  Zn1407  2.048   .     S
N1394  Zn1408  2.048   .     S
O1395  Zn1407  1.996   .     S
O1399  Zn1408  1.996   .     S
O1400  Zn1407  1.989   .     S
O1401  Zn1408  1.989   .     S
O1402  Zn1407  1.949   .     S
O1403  Zn1408  1.949   .     S
O1404  Zn1407  1.947   .     S
O1405  Zn1408  1.947   .     S
C1409  O1465   1.293   .     A
C1409  C1412   1.416   .     S
C1409  O1459   1.299   .     A
C1410  C1412   1.401   .     A
C1410  O1462   1.382   .     S
C1411  C1420   1.416   .     S
C1411  C1431   1.402   .     A
C1411  C1432   1.401   .     A
C1412  C1430   1.402   .     A
C1413  N1458   1.382   .     A
C1413  C1422   1.505   .     S
C1414  C1423   1.505   .     S
C1414  N1457   1.382   .     A
C1414  C1607   1.439   .     S
C1415  C1424   1.516   .     S
C1415  N1458   1.377   .     A
C1416  C1425   1.516   .     S
C1416  N1457   1.377   .     A
C1416  C1605   1.439   .     S
C1417  H1433   1.111   .     S
C1417  H1450   1.109   .     S
C1417  O1470   1.412   .     S
C1417  H1444   1.114   .     S
C1418  O1460   1.412   .     S
C1418  H1453   1.114   .     S
C1418  H1452   1.109   .     S
C1418  H1451   1.111   .     S
C1419  H1455   1.114   .     S
C1419  O1461   1.409   .     S
C1419  H1456   1.110   .     S
C1419  H1454   1.109   .     S
C1420  O1464   1.293   .     A
C1420  O1463   1.299   .     A
C1421  H1436   1.109   .     S
C1421  H1434   1.114   .     S
C1421  O1462   1.409   .     S
C1421  H1435   1.110   .     S
C1422  H1439   1.111   .     S
C1422  H1438   1.081   .     S
C1422  H1437   1.110   .     S
C1423  H1442   1.111   .     S
C1423  H1440   1.081   .     S
C1423  H1441   1.110   .     S
C1424  H1445   1.096   .     S
C1424  H1443   1.104   .     S
C1424  H1446   1.109   .     S
C1425  H1449   1.104   .     S
C1425  H1447   1.109   .     S
C1425  H1448   1.096   .     S
C1426  O1469   1.291   .     A
C1426  C1428   1.368   .     S
C1426  O1466   1.292   .     A
C1427  O1468   1.291   .     A
C1427  C1429   1.368   .     S
C1427  O1467   1.292   .     A
C1429  C276    1.166   1_556 S
C1430  O1470   1.387   .     S
C1431  O1460   1.386   .     S
C1431  C1474   1.385   .     S
C1432  O1461   1.382   .     S
C1432  C1494   1.385   .     S
N1457  Zn1471  2.048   .     S
N1458  Zn1472  2.048   .     S
O1459  Zn1471  1.996   .     S
O1463  Zn1472  1.996   .     S
O1464  Zn1471  1.989   .     S
O1465  Zn1472  1.989   .     S
O1466  Zn1471  1.949   .     S
O1467  Zn1472  1.949   .     S
O1468  Zn1471  1.947   .     S
O1469  Zn1472  1.947   .     S
C1473  O1529   1.293   .     A
C1473  C1476   1.416   .     S
C1473  O1523   1.299   .     A
C1474  C1476   1.401   .     A
C1474  O1526   1.382   .     S
C1475  C1484   1.416   .     S
C1475  C1495   1.402   .     A
C1475  C1496   1.401   .     A
C1476  C1494   1.402   .     A
C1477  N1522   1.382   .     A
C1477  C1486   1.505   .     S
C1478  C1487   1.505   .     S
C1478  N1521   1.382   .     A
C1478  C1671   1.439   .     S
C1479  C1488   1.516   .     S
C1479  N1522   1.377   .     A
C1480  C1489   1.516   .     S
C1480  N1521   1.377   .     A
C1480  C1669   1.439   .     S
C1481  H1497   1.111   .     S
C1481  H1514   1.109   .     S
C1481  O1534   1.412   .     S
C1481  H1508   1.114   .     S
C1482  O1524   1.412   .     S
C1482  H1517   1.114   .     S
C1482  H1516   1.109   .     S
C1482  H1515   1.111   .     S
C1483  H1519   1.114   .     S
C1483  O1525   1.409   .     S
C1483  H1520   1.110   .     S
C1483  H1518   1.109   .     S
C1484  O1528   1.293   .     A
C1484  O1527   1.299   .     A
C1485  H1500   1.109   .     S
C1485  H1498   1.114   .     S
C1485  O1526   1.409   .     S
C1485  H1499   1.110   .     S
C1486  H1503   1.111   .     S
C1486  H1502   1.081   .     S
C1486  H1501   1.110   .     S
C1487  H1506   1.111   .     S
C1487  H1504   1.081   .     S
C1487  H1505   1.110   .     S
C1488  H1509   1.096   .     S
C1488  H1507   1.104   .     S
C1488  H1510   1.109   .     S
C1489  H1513   1.104   .     S
C1489  H1511   1.109   .     S
C1489  H1512   1.096   .     S
C1490  O1533   1.291   .     A
C1490  C1492   1.368   .     S
C1490  O1530   1.292   .     A
C1491  O1532   1.291   .     A
C1491  C1493   1.368   .     S
C1491  O1531   1.292   .     A
C1493  C340    1.166   1_556 S
C1494  O1534   1.387   .     S
C1495  O1524   1.386   .     S
C1495  C1346   1.385   1_655 S
C1496  O1525   1.382   .     S
C1496  C1366   1.385   1_655 S
N1521  Zn1535  2.048   .     S
N1522  Zn1536  2.048   .     S
O1523  Zn1535  1.996   .     S
O1527  Zn1536  1.996   .     S
O1528  Zn1535  1.989   .     S
O1529  Zn1536  1.989   .     S
O1530  Zn1535  1.949   .     S
O1531  Zn1536  1.949   .     S
O1532  Zn1535  1.947   .     S
O1533  Zn1536  1.947   .     S
C1537  O1593   1.293   .     A
C1537  C1540   1.416   .     S
C1537  O1587   1.299   .     A
C1538  C1540   1.401   .     A
C1538  O1590   1.382   .     S
C1538  C1687   1.385   1_455 S
C1539  C1548   1.416   .     S
C1539  C1559   1.402   .     A
C1539  C1560   1.401   .     A
C1540  C1558   1.402   .     A
C1541  N1586   1.382   .     A
C1541  C1550   1.505   .     S
C1542  C1551   1.505   .     S
C1542  N1585   1.382   .     A
C1542  C1159   1.439   1_565 S
C1543  C1552   1.516   .     S
C1543  N1586   1.377   .     A
C1544  C1553   1.516   .     S
C1544  N1585   1.377   .     A
C1544  C1157   1.439   1_565 S
C1545  H1561   1.111   .     S
C1545  H1578   1.109   .     S
C1545  O1598   1.412   .     S
C1545  H1572   1.114   .     S
C1546  O1588   1.412   .     S
C1546  H1581   1.114   .     S
C1546  H1580   1.109   .     S
C1546  H1579   1.111   .     S
C1547  H1583   1.114   .     S
C1547  O1589   1.409   .     S
C1547  H1584   1.110   .     S
C1547  H1582   1.109   .     S
C1548  O1592   1.293   .     A
C1548  O1591   1.299   .     A
C1549  H1564   1.109   .     S
C1549  H1562   1.114   .     S
C1549  O1590   1.409   .     S
C1549  H1563   1.110   .     S
C1550  H1567   1.111   .     S
C1550  H1566   1.081   .     S
C1550  H1565   1.110   .     S
C1551  H1570   1.111   .     S
C1551  H1568   1.081   .     S
C1551  H1569   1.110   .     S
C1552  H1573   1.096   .     S
C1552  H1571   1.104   .     S
C1552  H1574   1.109   .     S
C1553  H1577   1.104   .     S
C1553  H1575   1.109   .     S
C1553  H1576   1.096   .     S
C1554  O1597   1.291   .     A
C1554  C1556   1.368   .     S
C1554  O1594   1.292   .     A
C1555  O1596   1.291   .     A
C1555  C1557   1.368   .     S
C1555  O1595   1.292   .     A
C1557  C404    1.166   1_556 S
C1558  O1598   1.387   .     S
C1558  C1688   1.385   1_455 S
C1559  O1588   1.386   .     S
C1559  C1602   1.385   .     S
C1560  O1589   1.382   .     S
C1560  C1622   1.385   .     S
N1585  Zn1599  2.048   .     S
N1586  Zn1600  2.048   .     S
O1587  Zn1599  1.996   .     S
O1591  Zn1600  1.996   .     S
O1592  Zn1599  1.989   .     S
O1593  Zn1600  1.989   .     S
O1594  Zn1599  1.949   .     S
O1595  Zn1600  1.949   .     S
O1596  Zn1599  1.947   .     S
O1597  Zn1600  1.947   .     S
C1601  O1657   1.293   .     A
C1601  C1604   1.416   .     S
C1601  O1651   1.299   .     A
C1602  C1604   1.401   .     A
C1602  O1654   1.382   .     S
C1603  C1612   1.416   .     S
C1603  C1623   1.402   .     A
C1603  C1624   1.401   .     A
C1604  C1622   1.402   .     A
C1605  N1650   1.382   .     A
C1605  C1614   1.505   .     S
C1606  C1615   1.505   .     S
C1606  N1649   1.382   .     A
C1606  C1223   1.439   1_565 S
C1607  C1616   1.516   .     S
C1607  N1650   1.377   .     A
C1608  C1617   1.516   .     S
C1608  N1649   1.377   .     A
C1608  C1221   1.439   1_565 S
C1609  H1625   1.111   .     S
C1609  H1642   1.109   .     S
C1609  O1662   1.412   .     S
C1609  H1636   1.114   .     S
C1610  O1652   1.412   .     S
C1610  H1645   1.114   .     S
C1610  H1644   1.109   .     S
C1610  H1643   1.111   .     S
C1611  H1647   1.114   .     S
C1611  O1653   1.409   .     S
C1611  H1648   1.110   .     S
C1611  H1646   1.109   .     S
C1612  O1656   1.293   .     A
C1612  O1655   1.299   .     A
C1613  H1628   1.109   .     S
C1613  H1626   1.114   .     S
C1613  O1654   1.409   .     S
C1613  H1627   1.110   .     S
C1614  H1631   1.111   .     S
C1614  H1630   1.081   .     S
C1614  H1629   1.110   .     S
C1615  H1634   1.111   .     S
C1615  H1632   1.081   .     S
C1615  H1633   1.110   .     S
C1616  H1637   1.096   .     S
C1616  H1635   1.104   .     S
C1616  H1638   1.109   .     S
C1617  H1641   1.104   .     S
C1617  H1639   1.109   .     S
C1617  H1640   1.096   .     S
C1618  O1661   1.291   .     A
C1618  C1620   1.368   .     S
C1618  O1658   1.292   .     A
C1619  O1660   1.291   .     A
C1619  C1621   1.368   .     S
C1619  O1659   1.292   .     A
C1621  C468    1.166   1_556 S
C1622  O1662   1.387   .     S
C1623  O1652   1.386   .     S
C1623  C1666   1.385   .     S
C1624  O1653   1.382   .     S
C1624  C1686   1.385   .     S
N1649  Zn1663  2.048   .     S
N1650  Zn1664  2.048   .     S
O1651  Zn1663  1.996   .     S
O1655  Zn1664  1.996   .     S
O1656  Zn1663  1.989   .     S
O1657  Zn1664  1.989   .     S
O1658  Zn1663  1.949   .     S
O1659  Zn1664  1.949   .     S
O1660  Zn1663  1.947   .     S
O1661  Zn1664  1.947   .     S
C1665  O1721   1.293   .     A
C1665  C1668   1.416   .     S
C1665  O1715   1.299   .     A
C1666  C1668   1.401   .     A
C1666  O1718   1.382   .     S
C1667  C1676   1.416   .     S
C1667  C1687   1.402   .     A
C1667  C1688   1.401   .     A
C1668  C1686   1.402   .     A
C1669  N1714   1.382   .     A
C1669  C1678   1.505   .     S
C1670  C1679   1.505   .     S
C1670  N1713   1.382   .     A
C1670  C1287   1.439   1_565 S
C1671  C1680   1.516   .     S
C1671  N1714   1.377   .     A
C1672  C1681   1.516   .     S
C1672  N1713   1.377   .     A
C1672  C1285   1.439   1_565 S
C1673  H1689   1.111   .     S
C1673  H1706   1.109   .     S
C1673  O1726   1.412   .     S
C1673  H1700   1.114   .     S
C1674  O1716   1.412   .     S
C1674  H1709   1.114   .     S
C1674  H1708   1.109   .     S
C1674  H1707   1.111   .     S
C1675  H1711   1.114   .     S
C1675  O1717   1.409   .     S
C1675  H1712   1.110   .     S
C1675  H1710   1.109   .     S
C1676  O1720   1.293   .     A
C1676  O1719   1.299   .     A
C1677  H1692   1.109   .     S
C1677  H1690   1.114   .     S
C1677  O1718   1.409   .     S
C1677  H1691   1.110   .     S
C1678  H1695   1.111   .     S
C1678  H1694   1.081   .     S
C1678  H1693   1.110   .     S
C1679  H1698   1.111   .     S
C1679  H1696   1.081   .     S
C1679  H1697   1.110   .     S
C1680  H1701   1.096   .     S
C1680  H1699   1.104   .     S
C1680  H1702   1.109   .     S
C1681  H1705   1.104   .     S
C1681  H1703   1.109   .     S
C1681  H1704   1.096   .     S
C1682  O1725   1.291   .     A
C1682  C1684   1.368   .     S
C1682  O1722   1.292   .     A
C1683  O1724   1.291   .     A
C1683  C1685   1.368   .     S
C1683  O1723   1.292   .     A
C1685  C532    1.166   1_556 S
C1686  O1726   1.387   .     S
C1687  O1716   1.386   .     S
C1687  C1538   1.385   1_655 S
C1688  O1717   1.382   .     S
C1688  C1558   1.385   1_655 S
N1713  Zn1727  2.048   .     S
N1714  Zn1728  2.048   .     S
O1715  Zn1727  1.996   .     S
O1719  Zn1728  1.996   .     S
O1720  Zn1727  1.989   .     S
O1721  Zn1728  1.989   .     S
O1722  Zn1727  1.949   .     S
O1723  Zn1728  1.949   .     S
O1724  Zn1727  1.947   .     S
O1725  Zn1728  1.947   .     S
