data_str_m3_o10_o18_pcu_sym.67
_audit_creation_date              2020-01-03
_audit_creation_method            'Materials Studio'
_symmetry_space_group_name_H-M    'P1'
_symmetry_Int_Tables_number       1
_symmetry_cell_setting            triclinic
loop_
_symmetry_equiv_pos_as_xyz
  x,y,z
_cell_length_a                    23.9534
_cell_length_b                    25.6930
_cell_length_c                    27.6068
_cell_angle_alpha                 95.8208
_cell_angle_beta                  93.7667
_cell_angle_gamma                 93.0437
loop_
_atom_site_label
_atom_site_type_symbol
_atom_site_fract_x
_atom_site_fract_y
_atom_site_fract_z
_atom_site_U_iso_or_equiv
_atom_site_adp_type
_atom_site_occupancy
C1     C     0.01462   0.26462   0.24936   0.00000  Uiso   1.00
C2     C     0.31209   0.16218   0.15916   0.00000  Uiso   1.00
C3     C     0.03127   0.17273   0.39353   0.00000  Uiso   1.00
C4     C     0.29996   0.15242   0.10672   0.00000  Uiso   1.00
C5     C     0.01295   0.20765   0.47496   0.00000  Uiso   1.00
C6     C     0.30809   0.09882   0.03085   0.00000  Uiso   1.00
C7     C     0.32971   0.19879   0.42540   0.00000  Uiso   1.00
C8     C     0.32954   0.11695   0.07801   0.00000  Uiso   1.00
C9     C     0.07979   0.15185   0.41158   0.00000  Uiso   1.00
C10    C     0.25099   0.17144   0.08762   0.00000  Uiso   1.00
C11    C     0.09747   0.16019   0.46103   0.00000  Uiso   1.00
C12    C     0.31871   0.06871   0.25062   0.00000  Uiso   1.00
C13    C     0.22548   0.14958   0.04279   0.00000  Uiso   1.00
C14    C     0.06426   0.19032   0.49262   0.00000  Uiso   1.00
C15    C     0.25569   0.11404   0.01341   0.00000  Uiso   1.00
C16    C     0.14932   0.14277   0.47893   0.00000  Uiso   1.00
C17    C     0.17061   0.16157   0.02694   0.00000  Uiso   1.00
C18    C     0.16244   0.12184   0.19347   0.00000  Uiso   1.00
C19    C     0.12458   0.07247   0.17959   0.00000  Uiso   1.00
C20    C     0.17096   0.21127   0.30668   0.00000  Uiso   1.00
C21    C     0.20901   0.26050   0.32089   0.00000  Uiso   1.00
C22    C     0.13570   0.19038   0.05798   0.00000  Uiso   1.00
C23    C     0.18057   0.10732   0.45044   0.00000  Uiso   1.00
C24    C     0.08323   0.20390   0.04110   0.00000  Uiso   1.00
C25    C     0.23272   0.09319   0.46760   0.00000  Uiso   1.00
C26    C     0.02248   0.31927   0.25103   0.00000  Uiso   1.00
C27    C     0.31084   0.01406   0.24893   0.00000  Uiso   1.00
C28    C     0.02107   0.17031   0.34084   0.00000  Uiso   1.00
H29    H     0.05794   0.22619   0.06590   0.00000  Uiso   1.00
H30    H     0.16499   0.08804   0.41531   0.00000  Uiso   1.00
H31    H     0.06521   0.00293   0.25513   0.00000  Uiso   1.00
H32    H     0.26810   0.33039   0.24482   0.00000  Uiso   1.00
H33    H     0.12508   0.04790   0.21035   0.00000  Uiso   1.00
H34    H     0.08139   0.08147   0.16859   0.00000  Uiso   1.00
H35    H     0.14078   0.04938   0.14784   0.00000  Uiso   1.00
H36    H     0.16145   0.14650   0.16271   0.00000  Uiso   1.00
H37    H     0.20369   0.10655   0.19905   0.00000  Uiso   1.00
H38    H     0.25203   0.25137   0.33242   0.00000  Uiso   1.00
H39    H     0.20908   0.28508   0.29017   0.00000  Uiso   1.00
H40    H     0.25506   0.06557   0.44494   0.00000  Uiso   1.00
H41    H     0.19249   0.28371   0.35242   0.00000  Uiso   1.00
H42    H     0.12978   0.22676   0.30109   0.00000  Uiso   1.00
H43    H     0.17183   0.18636   0.33731   0.00000  Uiso   1.00
H44    H     0.23244   0.20192   0.10980   0.00000  Uiso   1.00
H45    H     0.10514   0.13217   0.38554   0.00000  Uiso   1.00
H46    H     0.03454   0.10197   0.09245   0.00000  Uiso   1.00
H47    H     0.29136   0.21450   0.41180   0.00000  Uiso   1.00
H48    H     0.32009   0.22964   0.49915   0.00000  Uiso   1.00
H49    H     0.33127   0.07138   0.00881   0.00000  Uiso   1.00
H50    H     0.14697   0.20212   0.09606   0.00000  Uiso   1.00
N51    N     0.14695   0.15216   0.23739   0.00000  Uiso   1.00
N52    N     0.18638   0.18117   0.26260   0.00000  Uiso   1.00
O53    O     0.29719   0.24631   0.25309   0.00000  Uiso   1.00
O54    O     0.03614   0.08702   0.24690   0.00000  Uiso   1.00
O55    O     0.05822   0.23702   0.24501   0.00000  Uiso   1.00
O56    O     0.27512   0.09632   0.25498   0.00000  Uiso   1.00
O57    O     0.30328   0.17397   0.32247   0.00000  Uiso   1.00
O58    O     0.03005   0.15937   0.17753   0.00000  Uiso   1.00
O59    O     0.06431   0.16467   0.31439   0.00000  Uiso   1.00
O60    O     0.26902   0.16866   0.18561   0.00000  Uiso   1.00
Zn61   Zn    0.27033   0.17287   0.25539   0.00000  Uiso   1.00
Zn62   Zn    0.06300   0.16046   0.24460   0.00000  Uiso   1.00
C63    C     0.34795   0.26462   0.24936   0.00000  Uiso   1.00
C64    C     0.64542   0.16218   0.15916   0.00000  Uiso   1.00
C65    C     0.36461   0.17273   0.39353   0.00000  Uiso   1.00
C66    C     0.63329   0.15242   0.10672   0.00000  Uiso   1.00
C67    C     0.34628   0.20765   0.47496   0.00000  Uiso   1.00
C68    C     0.64142   0.09882   0.03085   0.00000  Uiso   1.00
C69    C     0.66305   0.19879   0.42540   0.00000  Uiso   1.00
C70    C     0.66287   0.11695   0.07801   0.00000  Uiso   1.00
C71    C     0.41313   0.15185   0.41158   0.00000  Uiso   1.00
C72    C     0.58432   0.17144   0.08762   0.00000  Uiso   1.00
C73    C     0.43081   0.16019   0.46103   0.00000  Uiso   1.00
C74    C     0.65204   0.06871   0.25062   0.00000  Uiso   1.00
C75    C     0.55882   0.14958   0.04279   0.00000  Uiso   1.00
C76    C     0.39759   0.19032   0.49262   0.00000  Uiso   1.00
C77    C     0.58902   0.11404   0.01341   0.00000  Uiso   1.00
C78    C     0.48266   0.14277   0.47893   0.00000  Uiso   1.00
C79    C     0.50394   0.16157   0.02694   0.00000  Uiso   1.00
C80    C     0.49577   0.12184   0.19347   0.00000  Uiso   1.00
C81    C     0.45791   0.07247   0.17959   0.00000  Uiso   1.00
C82    C     0.50429   0.21127   0.30668   0.00000  Uiso   1.00
C83    C     0.54234   0.26050   0.32089   0.00000  Uiso   1.00
C84    C     0.46903   0.19038   0.05798   0.00000  Uiso   1.00
C85    C     0.51390   0.10732   0.45044   0.00000  Uiso   1.00
C86    C     0.41657   0.20390   0.04110   0.00000  Uiso   1.00
C87    C     0.56606   0.09319   0.46760   0.00000  Uiso   1.00
C88    C     0.35582   0.31927   0.25103   0.00000  Uiso   1.00
C89    C     0.64417   0.01406   0.24893   0.00000  Uiso   1.00
C90    C     0.35440   0.17031   0.34084   0.00000  Uiso   1.00
H91    H     0.39127   0.22619   0.06590   0.00000  Uiso   1.00
H92    H     0.49832   0.08804   0.41531   0.00000  Uiso   1.00
H93    H     0.39854   0.00293   0.25513   0.00000  Uiso   1.00
H94    H     0.60143   0.33039   0.24482   0.00000  Uiso   1.00
H95    H     0.45841   0.04790   0.21035   0.00000  Uiso   1.00
H96    H     0.41472   0.08147   0.16859   0.00000  Uiso   1.00
H97    H     0.47411   0.04938   0.14784   0.00000  Uiso   1.00
H98    H     0.49478   0.14650   0.16271   0.00000  Uiso   1.00
H99    H     0.53702   0.10655   0.19905   0.00000  Uiso   1.00
H100   H     0.58536   0.25137   0.33242   0.00000  Uiso   1.00
H101   H     0.54241   0.28508   0.29017   0.00000  Uiso   1.00
H102   H     0.58839   0.06557   0.44494   0.00000  Uiso   1.00
H103   H     0.52582   0.28371   0.35242   0.00000  Uiso   1.00
H104   H     0.46311   0.22676   0.30109   0.00000  Uiso   1.00
H105   H     0.50516   0.18636   0.33731   0.00000  Uiso   1.00
H106   H     0.56577   0.20192   0.10980   0.00000  Uiso   1.00
H107   H     0.43848   0.13217   0.38554   0.00000  Uiso   1.00
H108   H     0.36788   0.10197   0.09245   0.00000  Uiso   1.00
H109   H     0.62469   0.21450   0.41180   0.00000  Uiso   1.00
H110   H     0.65342   0.22964   0.49915   0.00000  Uiso   1.00
H111   H     0.66460   0.07138   0.00881   0.00000  Uiso   1.00
H112   H     0.48030   0.20212   0.09606   0.00000  Uiso   1.00
N113   N     0.48029   0.15216   0.23739   0.00000  Uiso   1.00
N114   N     0.51971   0.18117   0.26260   0.00000  Uiso   1.00
O115   O     0.63052   0.24631   0.25309   0.00000  Uiso   1.00
O116   O     0.36948   0.08702   0.24690   0.00000  Uiso   1.00
O117   O     0.39155   0.23702   0.24501   0.00000  Uiso   1.00
O118   O     0.60845   0.09632   0.25498   0.00000  Uiso   1.00
O119   O     0.63662   0.17397   0.32247   0.00000  Uiso   1.00
O120   O     0.36338   0.15937   0.17753   0.00000  Uiso   1.00
O121   O     0.39764   0.16467   0.31439   0.00000  Uiso   1.00
O122   O     0.60236   0.16866   0.18561   0.00000  Uiso   1.00
Zn123  Zn    0.60366   0.17287   0.25539   0.00000  Uiso   1.00
Zn124  Zn    0.39634   0.16046   0.24460   0.00000  Uiso   1.00
C125   C     0.68129   0.26462   0.24936   0.00000  Uiso   1.00
C126   C     0.97876   0.16218   0.15916   0.00000  Uiso   1.00
C127   C     0.69794   0.17273   0.39353   0.00000  Uiso   1.00
C128   C     0.96662   0.15242   0.10672   0.00000  Uiso   1.00
C129   C     0.67962   0.20765   0.47496   0.00000  Uiso   1.00
C130   C     0.97475   0.09882   0.03085   0.00000  Uiso   1.00
C131   C     0.99638   0.19879   0.42540   0.00000  Uiso   1.00
C132   C     0.99621   0.11695   0.07801   0.00000  Uiso   1.00
C133   C     0.74646   0.15185   0.41158   0.00000  Uiso   1.00
C134   C     0.91766   0.17144   0.08762   0.00000  Uiso   1.00
C135   C     0.76414   0.16019   0.46103   0.00000  Uiso   1.00
C136   C     0.98537   0.06871   0.25062   0.00000  Uiso   1.00
C137   C     0.89215   0.14958   0.04279   0.00000  Uiso   1.00
C138   C     0.73093   0.19032   0.49262   0.00000  Uiso   1.00
C139   C     0.92236   0.11404   0.01341   0.00000  Uiso   1.00
C140   C     0.81599   0.14277   0.47893   0.00000  Uiso   1.00
C141   C     0.83727   0.16157   0.02694   0.00000  Uiso   1.00
C142   C     0.82911   0.12184   0.19347   0.00000  Uiso   1.00
C143   C     0.79124   0.07247   0.17959   0.00000  Uiso   1.00
C144   C     0.83762   0.21127   0.30668   0.00000  Uiso   1.00
C145   C     0.87567   0.26050   0.32089   0.00000  Uiso   1.00
C146   C     0.80237   0.19038   0.05798   0.00000  Uiso   1.00
C147   C     0.84724   0.10732   0.45044   0.00000  Uiso   1.00
C148   C     0.74990   0.20390   0.04110   0.00000  Uiso   1.00
C149   C     0.89939   0.09319   0.46760   0.00000  Uiso   1.00
C150   C     0.68915   0.31927   0.25103   0.00000  Uiso   1.00
C151   C     0.97750   0.01406   0.24893   0.00000  Uiso   1.00
C152   C     0.68773   0.17031   0.34084   0.00000  Uiso   1.00
H153   H     0.72460   0.22619   0.06590   0.00000  Uiso   1.00
H154   H     0.83166   0.08804   0.41531   0.00000  Uiso   1.00
H155   H     0.73187   0.00293   0.25513   0.00000  Uiso   1.00
H156   H     0.93477   0.33039   0.24482   0.00000  Uiso   1.00
H157   H     0.79175   0.04790   0.21035   0.00000  Uiso   1.00
H158   H     0.74805   0.08147   0.16859   0.00000  Uiso   1.00
H159   H     0.80745   0.04938   0.14784   0.00000  Uiso   1.00
H160   H     0.82812   0.14650   0.16271   0.00000  Uiso   1.00
H161   H     0.87035   0.10655   0.19905   0.00000  Uiso   1.00
H162   H     0.91869   0.25137   0.33242   0.00000  Uiso   1.00
H163   H     0.87574   0.28508   0.29017   0.00000  Uiso   1.00
H164   H     0.92172   0.06557   0.44494   0.00000  Uiso   1.00
H165   H     0.85915   0.28371   0.35242   0.00000  Uiso   1.00
H166   H     0.79645   0.22676   0.30109   0.00000  Uiso   1.00
H167   H     0.83850   0.18636   0.33731   0.00000  Uiso   1.00
H168   H     0.89910   0.20192   0.10980   0.00000  Uiso   1.00
H169   H     0.77181   0.13217   0.38554   0.00000  Uiso   1.00
H170   H     0.70121   0.10197   0.09245   0.00000  Uiso   1.00
H171   H     0.95803   0.21450   0.41180   0.00000  Uiso   1.00
H172   H     0.98675   0.22964   0.49915   0.00000  Uiso   1.00
H173   H     0.99794   0.07138   0.00881   0.00000  Uiso   1.00
H174   H     0.81363   0.20212   0.09606   0.00000  Uiso   1.00
N175   N     0.81362   0.15216   0.23739   0.00000  Uiso   1.00
N176   N     0.85305   0.18117   0.26260   0.00000  Uiso   1.00
O177   O     0.96386   0.24631   0.25309   0.00000  Uiso   1.00
O178   O     0.70281   0.08702   0.24690   0.00000  Uiso   1.00
O179   O     0.72488   0.23702   0.24501   0.00000  Uiso   1.00
O180   O     0.94178   0.09632   0.25498   0.00000  Uiso   1.00
O181   O     0.96995   0.17397   0.32247   0.00000  Uiso   1.00
O182   O     0.69672   0.15937   0.17753   0.00000  Uiso   1.00
O183   O     0.73098   0.16467   0.31439   0.00000  Uiso   1.00
O184   O     0.93569   0.16866   0.18561   0.00000  Uiso   1.00
Zn185  Zn    0.93700   0.17287   0.25539   0.00000  Uiso   1.00
Zn186  Zn    0.72967   0.16046   0.24460   0.00000  Uiso   1.00
C187   C     0.01462   0.59795   0.24936   0.00000  Uiso   1.00
C188   C     0.31209   0.49552   0.15916   0.00000  Uiso   1.00
C189   C     0.03127   0.50607   0.39353   0.00000  Uiso   1.00
C190   C     0.29996   0.48576   0.10672   0.00000  Uiso   1.00
C191   C     0.01295   0.54098   0.47496   0.00000  Uiso   1.00
C192   C     0.30809   0.43215   0.03085   0.00000  Uiso   1.00
C193   C     0.32971   0.53212   0.42540   0.00000  Uiso   1.00
C194   C     0.32954   0.45029   0.07801   0.00000  Uiso   1.00
C195   C     0.07979   0.48518   0.41158   0.00000  Uiso   1.00
C196   C     0.25099   0.50477   0.08762   0.00000  Uiso   1.00
C197   C     0.09747   0.49352   0.46103   0.00000  Uiso   1.00
C198   C     0.31871   0.40204   0.25062   0.00000  Uiso   1.00
C199   C     0.22548   0.48291   0.04279   0.00000  Uiso   1.00
C200   C     0.06426   0.52366   0.49262   0.00000  Uiso   1.00
C201   C     0.25569   0.44737   0.01341   0.00000  Uiso   1.00
C202   C     0.14932   0.47611   0.47893   0.00000  Uiso   1.00
C203   C     0.17061   0.49491   0.02694   0.00000  Uiso   1.00
C204   C     0.16244   0.45518   0.19347   0.00000  Uiso   1.00
C205   C     0.12458   0.40580   0.17959   0.00000  Uiso   1.00
C206   C     0.17096   0.54460   0.30668   0.00000  Uiso   1.00
C207   C     0.20901   0.59384   0.32089   0.00000  Uiso   1.00
C208   C     0.13570   0.52371   0.05798   0.00000  Uiso   1.00
C209   C     0.18057   0.44066   0.45044   0.00000  Uiso   1.00
C210   C     0.08323   0.53723   0.04110   0.00000  Uiso   1.00
C211   C     0.23272   0.42653   0.46760   0.00000  Uiso   1.00
C212   C     0.02248   0.65261   0.25103   0.00000  Uiso   1.00
C213   C     0.31084   0.34739   0.24893   0.00000  Uiso   1.00
C214   C     0.02107   0.50364   0.34084   0.00000  Uiso   1.00
H215   H     0.05794   0.55953   0.06590   0.00000  Uiso   1.00
H216   H     0.16499   0.42137   0.41531   0.00000  Uiso   1.00
H217   H     0.06521   0.33627   0.25513   0.00000  Uiso   1.00
H218   H     0.26810   0.66373   0.24482   0.00000  Uiso   1.00
H219   H     0.12508   0.38124   0.21035   0.00000  Uiso   1.00
H220   H     0.08139   0.41481   0.16859   0.00000  Uiso   1.00
H221   H     0.14078   0.38271   0.14784   0.00000  Uiso   1.00
H222   H     0.16145   0.47983   0.16271   0.00000  Uiso   1.00
H223   H     0.20369   0.43988   0.19905   0.00000  Uiso   1.00
H224   H     0.25203   0.58470   0.33242   0.00000  Uiso   1.00
H225   H     0.20908   0.61842   0.29017   0.00000  Uiso   1.00
H226   H     0.25506   0.39890   0.44494   0.00000  Uiso   1.00
H227   H     0.19249   0.61705   0.35242   0.00000  Uiso   1.00
H228   H     0.12978   0.56009   0.30109   0.00000  Uiso   1.00
H229   H     0.17183   0.51969   0.33731   0.00000  Uiso   1.00
H230   H     0.23244   0.53525   0.10980   0.00000  Uiso   1.00
H231   H     0.10514   0.46550   0.38554   0.00000  Uiso   1.00
H232   H     0.03454   0.43531   0.09245   0.00000  Uiso   1.00
H233   H     0.29136   0.54783   0.41180   0.00000  Uiso   1.00
H234   H     0.32009   0.56298   0.49915   0.00000  Uiso   1.00
H235   H     0.33127   0.40472   0.00881   0.00000  Uiso   1.00
H236   H     0.14697   0.53545   0.09606   0.00000  Uiso   1.00
N237   N     0.14695   0.48550   0.23739   0.00000  Uiso   1.00
N238   N     0.18638   0.51450   0.26260   0.00000  Uiso   1.00
O239   O     0.29719   0.57964   0.25309   0.00000  Uiso   1.00
O240   O     0.03614   0.42036   0.24690   0.00000  Uiso   1.00
O241   O     0.05822   0.57035   0.24501   0.00000  Uiso   1.00
O242   O     0.27512   0.42965   0.25498   0.00000  Uiso   1.00
O243   O     0.30328   0.50730   0.32247   0.00000  Uiso   1.00
O244   O     0.03005   0.49270   0.17753   0.00000  Uiso   1.00
O245   O     0.06431   0.49801   0.31439   0.00000  Uiso   1.00
O246   O     0.26902   0.50199   0.18561   0.00000  Uiso   1.00
Zn247  Zn    0.27033   0.50621   0.25539   0.00000  Uiso   1.00
Zn248  Zn    0.06300   0.49379   0.24460   0.00000  Uiso   1.00
C249   C     0.34795   0.59795   0.24936   0.00000  Uiso   1.00
C250   C     0.64542   0.49552   0.15916   0.00000  Uiso   1.00
C251   C     0.36461   0.50607   0.39353   0.00000  Uiso   1.00
C252   C     0.63329   0.48576   0.10672   0.00000  Uiso   1.00
C253   C     0.34628   0.54098   0.47496   0.00000  Uiso   1.00
C254   C     0.64142   0.43215   0.03085   0.00000  Uiso   1.00
C255   C     0.66305   0.53212   0.42540   0.00000  Uiso   1.00
C256   C     0.66287   0.45029   0.07801   0.00000  Uiso   1.00
C257   C     0.41313   0.48518   0.41158   0.00000  Uiso   1.00
C258   C     0.58432   0.50477   0.08762   0.00000  Uiso   1.00
C259   C     0.43081   0.49352   0.46103   0.00000  Uiso   1.00
C260   C     0.65204   0.40204   0.25062   0.00000  Uiso   1.00
C261   C     0.55882   0.48291   0.04279   0.00000  Uiso   1.00
C262   C     0.39759   0.52366   0.49262   0.00000  Uiso   1.00
C263   C     0.58902   0.44737   0.01341   0.00000  Uiso   1.00
C264   C     0.48266   0.47611   0.47893   0.00000  Uiso   1.00
C265   C     0.50394   0.49491   0.02694   0.00000  Uiso   1.00
C266   C     0.49577   0.45518   0.19347   0.00000  Uiso   1.00
C267   C     0.45791   0.40580   0.17959   0.00000  Uiso   1.00
C268   C     0.50429   0.54460   0.30668   0.00000  Uiso   1.00
C269   C     0.54234   0.59384   0.32089   0.00000  Uiso   1.00
C270   C     0.46903   0.52371   0.05798   0.00000  Uiso   1.00
C271   C     0.51390   0.44066   0.45044   0.00000  Uiso   1.00
C272   C     0.41657   0.53723   0.04110   0.00000  Uiso   1.00
C273   C     0.56606   0.42653   0.46760   0.00000  Uiso   1.00
C274   C     0.35582   0.65261   0.25103   0.00000  Uiso   1.00
C275   C     0.64417   0.34739   0.24893   0.00000  Uiso   1.00
C276   C     0.35440   0.50364   0.34084   0.00000  Uiso   1.00
H277   H     0.39127   0.55953   0.06590   0.00000  Uiso   1.00
H278   H     0.49832   0.42137   0.41531   0.00000  Uiso   1.00
H279   H     0.39854   0.33627   0.25513   0.00000  Uiso   1.00
H280   H     0.60143   0.66373   0.24482   0.00000  Uiso   1.00
H281   H     0.45841   0.38124   0.21035   0.00000  Uiso   1.00
H282   H     0.41472   0.41481   0.16859   0.00000  Uiso   1.00
H283   H     0.47411   0.38271   0.14784   0.00000  Uiso   1.00
H284   H     0.49478   0.47983   0.16271   0.00000  Uiso   1.00
H285   H     0.53702   0.43988   0.19905   0.00000  Uiso   1.00
H286   H     0.58536   0.58470   0.33242   0.00000  Uiso   1.00
H287   H     0.54241   0.61842   0.29017   0.00000  Uiso   1.00
H288   H     0.58839   0.39890   0.44494   0.00000  Uiso   1.00
H289   H     0.52582   0.61705   0.35242   0.00000  Uiso   1.00
H290   H     0.46311   0.56009   0.30109   0.00000  Uiso   1.00
H291   H     0.50516   0.51969   0.33731   0.00000  Uiso   1.00
H292   H     0.56577   0.53525   0.10980   0.00000  Uiso   1.00
H293   H     0.43848   0.46550   0.38554   0.00000  Uiso   1.00
H294   H     0.36788   0.43531   0.09245   0.00000  Uiso   1.00
H295   H     0.62469   0.54783   0.41180   0.00000  Uiso   1.00
H296   H     0.65342   0.56298   0.49915   0.00000  Uiso   1.00
H297   H     0.66460   0.40472   0.00881   0.00000  Uiso   1.00
H298   H     0.48030   0.53545   0.09606   0.00000  Uiso   1.00
N299   N     0.48029   0.48550   0.23739   0.00000  Uiso   1.00
N300   N     0.51971   0.51450   0.26260   0.00000  Uiso   1.00
O301   O     0.63052   0.57964   0.25309   0.00000  Uiso   1.00
O302   O     0.36948   0.42036   0.24690   0.00000  Uiso   1.00
O303   O     0.39155   0.57035   0.24501   0.00000  Uiso   1.00
O304   O     0.60845   0.42965   0.25498   0.00000  Uiso   1.00
O305   O     0.63662   0.50730   0.32247   0.00000  Uiso   1.00
O306   O     0.36338   0.49270   0.17753   0.00000  Uiso   1.00
O307   O     0.39764   0.49801   0.31439   0.00000  Uiso   1.00
O308   O     0.60236   0.50199   0.18561   0.00000  Uiso   1.00
Zn309  Zn    0.60366   0.50621   0.25539   0.00000  Uiso   1.00
Zn310  Zn    0.39634   0.49379   0.24460   0.00000  Uiso   1.00
C311   C     0.68129   0.59795   0.24936   0.00000  Uiso   1.00
C312   C     0.97876   0.49552   0.15916   0.00000  Uiso   1.00
C313   C     0.69794   0.50607   0.39353   0.00000  Uiso   1.00
C314   C     0.96662   0.48576   0.10672   0.00000  Uiso   1.00
C315   C     0.67962   0.54098   0.47496   0.00000  Uiso   1.00
C316   C     0.97475   0.43215   0.03085   0.00000  Uiso   1.00
C317   C     0.99638   0.53212   0.42540   0.00000  Uiso   1.00
C318   C     0.99621   0.45029   0.07801   0.00000  Uiso   1.00
C319   C     0.74646   0.48518   0.41158   0.00000  Uiso   1.00
C320   C     0.91766   0.50477   0.08762   0.00000  Uiso   1.00
C321   C     0.76414   0.49352   0.46103   0.00000  Uiso   1.00
C322   C     0.98537   0.40204   0.25062   0.00000  Uiso   1.00
C323   C     0.89215   0.48291   0.04279   0.00000  Uiso   1.00
C324   C     0.73093   0.52366   0.49262   0.00000  Uiso   1.00
C325   C     0.92236   0.44737   0.01341   0.00000  Uiso   1.00
C326   C     0.81599   0.47611   0.47893   0.00000  Uiso   1.00
C327   C     0.83727   0.49491   0.02694   0.00000  Uiso   1.00
C328   C     0.82911   0.45518   0.19347   0.00000  Uiso   1.00
C329   C     0.79124   0.40580   0.17959   0.00000  Uiso   1.00
C330   C     0.83762   0.54460   0.30668   0.00000  Uiso   1.00
C331   C     0.87567   0.59384   0.32089   0.00000  Uiso   1.00
C332   C     0.80237   0.52371   0.05798   0.00000  Uiso   1.00
C333   C     0.84724   0.44066   0.45044   0.00000  Uiso   1.00
C334   C     0.74990   0.53723   0.04110   0.00000  Uiso   1.00
C335   C     0.89939   0.42653   0.46760   0.00000  Uiso   1.00
C336   C     0.68915   0.65261   0.25103   0.00000  Uiso   1.00
C337   C     0.97750   0.34739   0.24893   0.00000  Uiso   1.00
C338   C     0.68773   0.50364   0.34084   0.00000  Uiso   1.00
H339   H     0.72460   0.55953   0.06590   0.00000  Uiso   1.00
H340   H     0.83166   0.42137   0.41531   0.00000  Uiso   1.00
H341   H     0.73187   0.33627   0.25513   0.00000  Uiso   1.00
H342   H     0.93477   0.66373   0.24482   0.00000  Uiso   1.00
H343   H     0.79175   0.38124   0.21035   0.00000  Uiso   1.00
H344   H     0.74805   0.41481   0.16859   0.00000  Uiso   1.00
H345   H     0.80745   0.38271   0.14784   0.00000  Uiso   1.00
H346   H     0.82812   0.47983   0.16271   0.00000  Uiso   1.00
H347   H     0.87035   0.43988   0.19905   0.00000  Uiso   1.00
H348   H     0.91869   0.58470   0.33242   0.00000  Uiso   1.00
H349   H     0.87574   0.61842   0.29017   0.00000  Uiso   1.00
H350   H     0.92172   0.39890   0.44494   0.00000  Uiso   1.00
H351   H     0.85915   0.61705   0.35242   0.00000  Uiso   1.00
H352   H     0.79645   0.56009   0.30109   0.00000  Uiso   1.00
H353   H     0.83850   0.51969   0.33731   0.00000  Uiso   1.00
H354   H     0.89910   0.53525   0.10980   0.00000  Uiso   1.00
H355   H     0.77181   0.46550   0.38554   0.00000  Uiso   1.00
H356   H     0.70121   0.43531   0.09245   0.00000  Uiso   1.00
H357   H     0.95803   0.54783   0.41180   0.00000  Uiso   1.00
H358   H     0.98675   0.56298   0.49915   0.00000  Uiso   1.00
H359   H     0.99794   0.40472   0.00881   0.00000  Uiso   1.00
H360   H     0.81363   0.53545   0.09606   0.00000  Uiso   1.00
N361   N     0.81362   0.48550   0.23739   0.00000  Uiso   1.00
N362   N     0.85305   0.51450   0.26260   0.00000  Uiso   1.00
O363   O     0.96386   0.57964   0.25309   0.00000  Uiso   1.00
O364   O     0.70281   0.42036   0.24690   0.00000  Uiso   1.00
O365   O     0.72488   0.57035   0.24501   0.00000  Uiso   1.00
O366   O     0.94178   0.42965   0.25498   0.00000  Uiso   1.00
O367   O     0.96995   0.50730   0.32247   0.00000  Uiso   1.00
O368   O     0.69672   0.49270   0.17753   0.00000  Uiso   1.00
O369   O     0.73098   0.49801   0.31439   0.00000  Uiso   1.00
O370   O     0.93569   0.50199   0.18561   0.00000  Uiso   1.00
Zn371  Zn    0.93700   0.50621   0.25539   0.00000  Uiso   1.00
Zn372  Zn    0.72967   0.49379   0.24460   0.00000  Uiso   1.00
C373   C     0.01462   0.93129   0.24936   0.00000  Uiso   1.00
C374   C     0.31209   0.82885   0.15916   0.00000  Uiso   1.00
C375   C     0.03127   0.83940   0.39353   0.00000  Uiso   1.00
C376   C     0.29996   0.81909   0.10672   0.00000  Uiso   1.00
C377   C     0.01295   0.87432   0.47496   0.00000  Uiso   1.00
C378   C     0.30809   0.76549   0.03085   0.00000  Uiso   1.00
C379   C     0.32971   0.86545   0.42540   0.00000  Uiso   1.00
C380   C     0.32954   0.78362   0.07801   0.00000  Uiso   1.00
C381   C     0.07979   0.81852   0.41158   0.00000  Uiso   1.00
C382   C     0.25099   0.83811   0.08762   0.00000  Uiso   1.00
C383   C     0.09747   0.82686   0.46103   0.00000  Uiso   1.00
C384   C     0.31871   0.73538   0.25062   0.00000  Uiso   1.00
C385   C     0.22548   0.81624   0.04279   0.00000  Uiso   1.00
C386   C     0.06426   0.85699   0.49262   0.00000  Uiso   1.00
C387   C     0.25569   0.78070   0.01341   0.00000  Uiso   1.00
C388   C     0.14932   0.80944   0.47893   0.00000  Uiso   1.00
C389   C     0.17061   0.82824   0.02694   0.00000  Uiso   1.00
C390   C     0.16244   0.78851   0.19347   0.00000  Uiso   1.00
C391   C     0.12458   0.73913   0.17959   0.00000  Uiso   1.00
C392   C     0.17096   0.87793   0.30668   0.00000  Uiso   1.00
C393   C     0.20901   0.92717   0.32089   0.00000  Uiso   1.00
C394   C     0.13570   0.85704   0.05798   0.00000  Uiso   1.00
C395   C     0.18057   0.77399   0.45044   0.00000  Uiso   1.00
C396   C     0.08323   0.87056   0.04110   0.00000  Uiso   1.00
C397   C     0.23272   0.75986   0.46760   0.00000  Uiso   1.00
C398   C     0.02248   0.98594   0.25103   0.00000  Uiso   1.00
C399   C     0.31084   0.68072   0.24893   0.00000  Uiso   1.00
C400   C     0.02107   0.83698   0.34084   0.00000  Uiso   1.00
H401   H     0.05794   0.89286   0.06590   0.00000  Uiso   1.00
H402   H     0.16499   0.75470   0.41531   0.00000  Uiso   1.00
H403   H     0.06521   0.66960   0.25513   0.00000  Uiso   1.00
H404   H     0.26810   0.99706   0.24482   0.00000  Uiso   1.00
H405   H     0.12508   0.71457   0.21035   0.00000  Uiso   1.00
H406   H     0.08139   0.74814   0.16859   0.00000  Uiso   1.00
H407   H     0.14078   0.71604   0.14784   0.00000  Uiso   1.00
H408   H     0.16145   0.81317   0.16271   0.00000  Uiso   1.00
H409   H     0.20369   0.77321   0.19905   0.00000  Uiso   1.00
H410   H     0.25203   0.91803   0.33242   0.00000  Uiso   1.00
H411   H     0.20908   0.95175   0.29017   0.00000  Uiso   1.00
H412   H     0.25506   0.73223   0.44494   0.00000  Uiso   1.00
H413   H     0.19249   0.95038   0.35242   0.00000  Uiso   1.00
H414   H     0.12978   0.89342   0.30109   0.00000  Uiso   1.00
H415   H     0.17183   0.85303   0.33731   0.00000  Uiso   1.00
H416   H     0.23244   0.86859   0.10980   0.00000  Uiso   1.00
H417   H     0.10514   0.79884   0.38554   0.00000  Uiso   1.00
H418   H     0.03454   0.76864   0.09245   0.00000  Uiso   1.00
H419   H     0.29136   0.88116   0.41180   0.00000  Uiso   1.00
H420   H     0.32009   0.89631   0.49915   0.00000  Uiso   1.00
H421   H     0.33127   0.73805   0.00881   0.00000  Uiso   1.00
H422   H     0.14697   0.86878   0.09606   0.00000  Uiso   1.00
N423   N     0.14695   0.81883   0.23739   0.00000  Uiso   1.00
N424   N     0.18638   0.84784   0.26260   0.00000  Uiso   1.00
O425   O     0.29719   0.91298   0.25309   0.00000  Uiso   1.00
O426   O     0.03614   0.75369   0.24690   0.00000  Uiso   1.00
O427   O     0.05822   0.90368   0.24501   0.00000  Uiso   1.00
O428   O     0.27512   0.76298   0.25498   0.00000  Uiso   1.00
O429   O     0.30328   0.84063   0.32247   0.00000  Uiso   1.00
O430   O     0.03005   0.82603   0.17753   0.00000  Uiso   1.00
O431   O     0.06431   0.83134   0.31439   0.00000  Uiso   1.00
O432   O     0.26902   0.83533   0.18561   0.00000  Uiso   1.00
Zn433  Zn    0.27033   0.83954   0.25539   0.00000  Uiso   1.00
Zn434  Zn    0.06300   0.82713   0.24460   0.00000  Uiso   1.00
C435   C     0.34795   0.93129   0.24936   0.00000  Uiso   1.00
C436   C     0.64542   0.82885   0.15916   0.00000  Uiso   1.00
C437   C     0.36461   0.83940   0.39353   0.00000  Uiso   1.00
C438   C     0.63329   0.81909   0.10672   0.00000  Uiso   1.00
C439   C     0.34628   0.87432   0.47496   0.00000  Uiso   1.00
C440   C     0.64142   0.76549   0.03085   0.00000  Uiso   1.00
C441   C     0.66305   0.86545   0.42540   0.00000  Uiso   1.00
C442   C     0.66287   0.78362   0.07801   0.00000  Uiso   1.00
C443   C     0.41313   0.81852   0.41158   0.00000  Uiso   1.00
C444   C     0.58432   0.83811   0.08762   0.00000  Uiso   1.00
C445   C     0.43081   0.82686   0.46103   0.00000  Uiso   1.00
C446   C     0.65204   0.73538   0.25062   0.00000  Uiso   1.00
C447   C     0.55882   0.81624   0.04279   0.00000  Uiso   1.00
C448   C     0.39759   0.85699   0.49262   0.00000  Uiso   1.00
C449   C     0.58902   0.78070   0.01341   0.00000  Uiso   1.00
C450   C     0.48266   0.80944   0.47893   0.00000  Uiso   1.00
C451   C     0.50394   0.82824   0.02694   0.00000  Uiso   1.00
C452   C     0.49577   0.78851   0.19347   0.00000  Uiso   1.00
C453   C     0.45791   0.73913   0.17959   0.00000  Uiso   1.00
C454   C     0.50429   0.87793   0.30668   0.00000  Uiso   1.00
C455   C     0.54234   0.92717   0.32089   0.00000  Uiso   1.00
C456   C     0.46903   0.85704   0.05798   0.00000  Uiso   1.00
C457   C     0.51390   0.77399   0.45044   0.00000  Uiso   1.00
C458   C     0.41657   0.87056   0.04110   0.00000  Uiso   1.00
C459   C     0.56606   0.75986   0.46760   0.00000  Uiso   1.00
C460   C     0.35582   0.98594   0.25103   0.00000  Uiso   1.00
C461   C     0.64417   0.68072   0.24893   0.00000  Uiso   1.00
C462   C     0.35440   0.83698   0.34084   0.00000  Uiso   1.00
H463   H     0.39127   0.89286   0.06590   0.00000  Uiso   1.00
H464   H     0.49832   0.75470   0.41531   0.00000  Uiso   1.00
H465   H     0.39854   0.66960   0.25513   0.00000  Uiso   1.00
H466   H     0.60143   0.99706   0.24482   0.00000  Uiso   1.00
H467   H     0.45841   0.71457   0.21035   0.00000  Uiso   1.00
H468   H     0.41472   0.74814   0.16859   0.00000  Uiso   1.00
H469   H     0.47411   0.71604   0.14784   0.00000  Uiso   1.00
H470   H     0.49478   0.81317   0.16271   0.00000  Uiso   1.00
H471   H     0.53702   0.77321   0.19905   0.00000  Uiso   1.00
H472   H     0.58536   0.91803   0.33242   0.00000  Uiso   1.00
H473   H     0.54241   0.95175   0.29017   0.00000  Uiso   1.00
H474   H     0.58839   0.73223   0.44494   0.00000  Uiso   1.00
H475   H     0.52582   0.95038   0.35242   0.00000  Uiso   1.00
H476   H     0.46311   0.89342   0.30109   0.00000  Uiso   1.00
H477   H     0.50516   0.85303   0.33731   0.00000  Uiso   1.00
H478   H     0.56577   0.86859   0.10980   0.00000  Uiso   1.00
H479   H     0.43848   0.79884   0.38554   0.00000  Uiso   1.00
H480   H     0.36788   0.76864   0.09245   0.00000  Uiso   1.00
H481   H     0.62469   0.88116   0.41180   0.00000  Uiso   1.00
H482   H     0.65342   0.89631   0.49915   0.00000  Uiso   1.00
H483   H     0.66460   0.73805   0.00881   0.00000  Uiso   1.00
H484   H     0.48030   0.86878   0.09606   0.00000  Uiso   1.00
N485   N     0.48029   0.81883   0.23739   0.00000  Uiso   1.00
N486   N     0.51971   0.84784   0.26260   0.00000  Uiso   1.00
O487   O     0.63052   0.91298   0.25309   0.00000  Uiso   1.00
O488   O     0.36948   0.75369   0.24690   0.00000  Uiso   1.00
O489   O     0.39155   0.90368   0.24501   0.00000  Uiso   1.00
O490   O     0.60845   0.76298   0.25498   0.00000  Uiso   1.00
O491   O     0.63662   0.84063   0.32247   0.00000  Uiso   1.00
O492   O     0.36338   0.82603   0.17753   0.00000  Uiso   1.00
O493   O     0.39764   0.83134   0.31439   0.00000  Uiso   1.00
O494   O     0.60236   0.83533   0.18561   0.00000  Uiso   1.00
Zn495  Zn    0.60366   0.83954   0.25539   0.00000  Uiso   1.00
Zn496  Zn    0.39634   0.82713   0.24460   0.00000  Uiso   1.00
C497   C     0.68129   0.93129   0.24936   0.00000  Uiso   1.00
C498   C     0.97876   0.82885   0.15916   0.00000  Uiso   1.00
C499   C     0.69794   0.83940   0.39353   0.00000  Uiso   1.00
C500   C     0.96662   0.81909   0.10672   0.00000  Uiso   1.00
C501   C     0.67962   0.87432   0.47496   0.00000  Uiso   1.00
C502   C     0.97475   0.76549   0.03085   0.00000  Uiso   1.00
C503   C     0.99638   0.86545   0.42540   0.00000  Uiso   1.00
C504   C     0.99621   0.78362   0.07801   0.00000  Uiso   1.00
C505   C     0.74646   0.81852   0.41158   0.00000  Uiso   1.00
C506   C     0.91766   0.83811   0.08762   0.00000  Uiso   1.00
C507   C     0.76414   0.82686   0.46103   0.00000  Uiso   1.00
C508   C     0.98537   0.73538   0.25062   0.00000  Uiso   1.00
C509   C     0.89215   0.81624   0.04279   0.00000  Uiso   1.00
C510   C     0.73093   0.85699   0.49262   0.00000  Uiso   1.00
C511   C     0.92236   0.78070   0.01341   0.00000  Uiso   1.00
C512   C     0.81599   0.80944   0.47893   0.00000  Uiso   1.00
C513   C     0.83727   0.82824   0.02694   0.00000  Uiso   1.00
C514   C     0.82911   0.78851   0.19347   0.00000  Uiso   1.00
C515   C     0.79124   0.73913   0.17959   0.00000  Uiso   1.00
C516   C     0.83762   0.87793   0.30668   0.00000  Uiso   1.00
C517   C     0.87567   0.92717   0.32089   0.00000  Uiso   1.00
C518   C     0.80237   0.85704   0.05798   0.00000  Uiso   1.00
C519   C     0.84724   0.77399   0.45044   0.00000  Uiso   1.00
C520   C     0.74990   0.87056   0.04110   0.00000  Uiso   1.00
C521   C     0.89939   0.75986   0.46760   0.00000  Uiso   1.00
C522   C     0.68915   0.98594   0.25103   0.00000  Uiso   1.00
C523   C     0.97750   0.68072   0.24893   0.00000  Uiso   1.00
C524   C     0.68773   0.83698   0.34084   0.00000  Uiso   1.00
H525   H     0.72460   0.89286   0.06590   0.00000  Uiso   1.00
H526   H     0.83166   0.75470   0.41531   0.00000  Uiso   1.00
H527   H     0.73187   0.66960   0.25513   0.00000  Uiso   1.00
H528   H     0.93477   0.99706   0.24482   0.00000  Uiso   1.00
H529   H     0.79175   0.71457   0.21035   0.00000  Uiso   1.00
H530   H     0.74805   0.74814   0.16859   0.00000  Uiso   1.00
H531   H     0.80745   0.71604   0.14784   0.00000  Uiso   1.00
H532   H     0.82812   0.81317   0.16271   0.00000  Uiso   1.00
H533   H     0.87035   0.77321   0.19905   0.00000  Uiso   1.00
H534   H     0.91869   0.91803   0.33242   0.00000  Uiso   1.00
H535   H     0.87574   0.95175   0.29017   0.00000  Uiso   1.00
H536   H     0.92172   0.73223   0.44494   0.00000  Uiso   1.00
H537   H     0.85915   0.95038   0.35242   0.00000  Uiso   1.00
H538   H     0.79645   0.89342   0.30109   0.00000  Uiso   1.00
H539   H     0.83850   0.85303   0.33731   0.00000  Uiso   1.00
H540   H     0.89910   0.86859   0.10980   0.00000  Uiso   1.00
H541   H     0.77181   0.79884   0.38554   0.00000  Uiso   1.00
H542   H     0.70121   0.76864   0.09245   0.00000  Uiso   1.00
H543   H     0.95803   0.88116   0.41180   0.00000  Uiso   1.00
H544   H     0.98675   0.89631   0.49915   0.00000  Uiso   1.00
H545   H     0.99794   0.73805   0.00881   0.00000  Uiso   1.00
H546   H     0.81363   0.86878   0.09606   0.00000  Uiso   1.00
N547   N     0.81362   0.81883   0.23739   0.00000  Uiso   1.00
N548   N     0.85305   0.84784   0.26260   0.00000  Uiso   1.00
O549   O     0.96386   0.91298   0.25309   0.00000  Uiso   1.00
O550   O     0.70281   0.75369   0.24690   0.00000  Uiso   1.00
O551   O     0.72488   0.90368   0.24501   0.00000  Uiso   1.00
O552   O     0.94178   0.76298   0.25498   0.00000  Uiso   1.00
O553   O     0.96995   0.84063   0.32247   0.00000  Uiso   1.00
O554   O     0.69672   0.82603   0.17753   0.00000  Uiso   1.00
O555   O     0.73098   0.83134   0.31439   0.00000  Uiso   1.00
O556   O     0.93569   0.83533   0.18561   0.00000  Uiso   1.00
Zn557  Zn    0.93700   0.83954   0.25539   0.00000  Uiso   1.00
Zn558  Zn    0.72967   0.82713   0.24460   0.00000  Uiso   1.00
C559   C     0.01462   0.26462   0.74936   0.00000  Uiso   1.00
C560   C     0.31209   0.16218   0.65916   0.00000  Uiso   1.00
C561   C     0.03127   0.17273   0.89353   0.00000  Uiso   1.00
C562   C     0.29996   0.15242   0.60672   0.00000  Uiso   1.00
C563   C     0.01295   0.20765   0.97496   0.00000  Uiso   1.00
C564   C     0.30809   0.09882   0.53085   0.00000  Uiso   1.00
C565   C     0.32971   0.19879   0.92540   0.00000  Uiso   1.00
C566   C     0.32954   0.11695   0.57801   0.00000  Uiso   1.00
C567   C     0.07979   0.15185   0.91158   0.00000  Uiso   1.00
C568   C     0.25099   0.17144   0.58762   0.00000  Uiso   1.00
C569   C     0.09747   0.16019   0.96103   0.00000  Uiso   1.00
C570   C     0.31871   0.06871   0.75062   0.00000  Uiso   1.00
C571   C     0.22548   0.14958   0.54279   0.00000  Uiso   1.00
C572   C     0.06426   0.19032   0.99262   0.00000  Uiso   1.00
C573   C     0.25569   0.11404   0.51341   0.00000  Uiso   1.00
C574   C     0.14932   0.14277   0.97893   0.00000  Uiso   1.00
C575   C     0.17061   0.16157   0.52694   0.00000  Uiso   1.00
C576   C     0.16244   0.12184   0.69347   0.00000  Uiso   1.00
C577   C     0.12458   0.07247   0.67959   0.00000  Uiso   1.00
C578   C     0.17096   0.21127   0.80668   0.00000  Uiso   1.00
C579   C     0.20901   0.26050   0.82089   0.00000  Uiso   1.00
C580   C     0.13570   0.19038   0.55798   0.00000  Uiso   1.00
C581   C     0.18057   0.10732   0.95044   0.00000  Uiso   1.00
C582   C     0.08323   0.20390   0.54110   0.00000  Uiso   1.00
C583   C     0.23272   0.09319   0.96760   0.00000  Uiso   1.00
C584   C     0.02248   0.31927   0.75103   0.00000  Uiso   1.00
C585   C     0.31084   0.01406   0.74893   0.00000  Uiso   1.00
C586   C     0.02107   0.17031   0.84084   0.00000  Uiso   1.00
H587   H     0.05794   0.22619   0.56590   0.00000  Uiso   1.00
H588   H     0.16499   0.08804   0.91531   0.00000  Uiso   1.00
H589   H     0.06521   0.00293   0.75513   0.00000  Uiso   1.00
H590   H     0.26810   0.33039   0.74482   0.00000  Uiso   1.00
H591   H     0.12508   0.04790   0.71035   0.00000  Uiso   1.00
H592   H     0.08139   0.08147   0.66859   0.00000  Uiso   1.00
H593   H     0.14078   0.04938   0.64784   0.00000  Uiso   1.00
H594   H     0.16145   0.14650   0.66271   0.00000  Uiso   1.00
H595   H     0.20369   0.10655   0.69905   0.00000  Uiso   1.00
H596   H     0.25203   0.25137   0.83242   0.00000  Uiso   1.00
H597   H     0.20908   0.28508   0.79017   0.00000  Uiso   1.00
H598   H     0.25506   0.06557   0.94494   0.00000  Uiso   1.00
H599   H     0.19249   0.28371   0.85242   0.00000  Uiso   1.00
H600   H     0.12978   0.22676   0.80109   0.00000  Uiso   1.00
H601   H     0.17183   0.18636   0.83731   0.00000  Uiso   1.00
H602   H     0.23244   0.20192   0.60980   0.00000  Uiso   1.00
H603   H     0.10514   0.13217   0.88554   0.00000  Uiso   1.00
H604   H     0.03454   0.10197   0.59245   0.00000  Uiso   1.00
H605   H     0.29136   0.21450   0.91180   0.00000  Uiso   1.00
H606   H     0.32009   0.22964   0.99915   0.00000  Uiso   1.00
H607   H     0.33127   0.07138   0.50881   0.00000  Uiso   1.00
H608   H     0.14697   0.20212   0.59606   0.00000  Uiso   1.00
N609   N     0.14695   0.15216   0.73739   0.00000  Uiso   1.00
N610   N     0.18638   0.18117   0.76260   0.00000  Uiso   1.00
O611   O     0.29719   0.24631   0.75309   0.00000  Uiso   1.00
O612   O     0.03614   0.08702   0.74690   0.00000  Uiso   1.00
O613   O     0.05822   0.23702   0.74501   0.00000  Uiso   1.00
O614   O     0.27512   0.09632   0.75498   0.00000  Uiso   1.00
O615   O     0.30328   0.17397   0.82247   0.00000  Uiso   1.00
O616   O     0.03005   0.15937   0.67753   0.00000  Uiso   1.00
O617   O     0.06431   0.16467   0.81439   0.00000  Uiso   1.00
O618   O     0.26902   0.16866   0.68561   0.00000  Uiso   1.00
Zn619  Zn    0.27033   0.17287   0.75539   0.00000  Uiso   1.00
Zn620  Zn    0.06300   0.16046   0.74460   0.00000  Uiso   1.00
C621   C     0.34795   0.26462   0.74936   0.00000  Uiso   1.00
C622   C     0.64542   0.16218   0.65916   0.00000  Uiso   1.00
C623   C     0.36461   0.17273   0.89353   0.00000  Uiso   1.00
C624   C     0.63329   0.15242   0.60672   0.00000  Uiso   1.00
C625   C     0.34628   0.20765   0.97496   0.00000  Uiso   1.00
C626   C     0.64142   0.09882   0.53085   0.00000  Uiso   1.00
C627   C     0.66305   0.19879   0.92540   0.00000  Uiso   1.00
C628   C     0.66287   0.11695   0.57801   0.00000  Uiso   1.00
C629   C     0.41313   0.15185   0.91158   0.00000  Uiso   1.00
C630   C     0.58432   0.17144   0.58762   0.00000  Uiso   1.00
C631   C     0.43081   0.16019   0.96103   0.00000  Uiso   1.00
C632   C     0.65204   0.06871   0.75062   0.00000  Uiso   1.00
C633   C     0.55882   0.14958   0.54279   0.00000  Uiso   1.00
C634   C     0.39759   0.19032   0.99262   0.00000  Uiso   1.00
C635   C     0.58902   0.11404   0.51341   0.00000  Uiso   1.00
C636   C     0.48266   0.14277   0.97893   0.00000  Uiso   1.00
C637   C     0.50394   0.16157   0.52694   0.00000  Uiso   1.00
C638   C     0.49577   0.12184   0.69347   0.00000  Uiso   1.00
C639   C     0.45791   0.07247   0.67959   0.00000  Uiso   1.00
C640   C     0.50429   0.21127   0.80668   0.00000  Uiso   1.00
C641   C     0.54234   0.26050   0.82089   0.00000  Uiso   1.00
C642   C     0.46903   0.19038   0.55798   0.00000  Uiso   1.00
C643   C     0.51390   0.10732   0.95044   0.00000  Uiso   1.00
C644   C     0.41657   0.20390   0.54110   0.00000  Uiso   1.00
C645   C     0.56606   0.09319   0.96760   0.00000  Uiso   1.00
C646   C     0.35582   0.31927   0.75103   0.00000  Uiso   1.00
C647   C     0.64417   0.01406   0.74893   0.00000  Uiso   1.00
C648   C     0.35440   0.17031   0.84084   0.00000  Uiso   1.00
H649   H     0.39127   0.22619   0.56590   0.00000  Uiso   1.00
H650   H     0.49832   0.08804   0.91531   0.00000  Uiso   1.00
H651   H     0.39854   0.00293   0.75513   0.00000  Uiso   1.00
H652   H     0.60143   0.33039   0.74482   0.00000  Uiso   1.00
H653   H     0.45841   0.04790   0.71035   0.00000  Uiso   1.00
H654   H     0.41472   0.08147   0.66859   0.00000  Uiso   1.00
H655   H     0.47411   0.04938   0.64784   0.00000  Uiso   1.00
H656   H     0.49478   0.14650   0.66271   0.00000  Uiso   1.00
H657   H     0.53702   0.10655   0.69905   0.00000  Uiso   1.00
H658   H     0.58536   0.25137   0.83242   0.00000  Uiso   1.00
H659   H     0.54241   0.28508   0.79017   0.00000  Uiso   1.00
H660   H     0.58839   0.06557   0.94494   0.00000  Uiso   1.00
H661   H     0.52582   0.28371   0.85242   0.00000  Uiso   1.00
H662   H     0.46311   0.22676   0.80109   0.00000  Uiso   1.00
H663   H     0.50516   0.18636   0.83731   0.00000  Uiso   1.00
H664   H     0.56577   0.20192   0.60980   0.00000  Uiso   1.00
H665   H     0.43848   0.13217   0.88554   0.00000  Uiso   1.00
H666   H     0.36788   0.10197   0.59245   0.00000  Uiso   1.00
H667   H     0.62469   0.21450   0.91180   0.00000  Uiso   1.00
H668   H     0.65342   0.22964   0.99915   0.00000  Uiso   1.00
H669   H     0.66460   0.07138   0.50881   0.00000  Uiso   1.00
H670   H     0.48030   0.20212   0.59606   0.00000  Uiso   1.00
N671   N     0.48029   0.15216   0.73739   0.00000  Uiso   1.00
N672   N     0.51971   0.18117   0.76260   0.00000  Uiso   1.00
O673   O     0.63052   0.24631   0.75309   0.00000  Uiso   1.00
O674   O     0.36948   0.08702   0.74690   0.00000  Uiso   1.00
O675   O     0.39155   0.23702   0.74501   0.00000  Uiso   1.00
O676   O     0.60845   0.09632   0.75498   0.00000  Uiso   1.00
O677   O     0.63662   0.17397   0.82247   0.00000  Uiso   1.00
O678   O     0.36338   0.15937   0.67753   0.00000  Uiso   1.00
O679   O     0.39764   0.16467   0.81439   0.00000  Uiso   1.00
O680   O     0.60236   0.16866   0.68561   0.00000  Uiso   1.00
Zn681  Zn    0.60366   0.17287   0.75539   0.00000  Uiso   1.00
Zn682  Zn    0.39634   0.16046   0.74460   0.00000  Uiso   1.00
C683   C     0.68129   0.26462   0.74936   0.00000  Uiso   1.00
C684   C     0.97876   0.16218   0.65916   0.00000  Uiso   1.00
C685   C     0.69794   0.17273   0.89353   0.00000  Uiso   1.00
C686   C     0.96662   0.15242   0.60672   0.00000  Uiso   1.00
C687   C     0.67962   0.20765   0.97496   0.00000  Uiso   1.00
C688   C     0.97475   0.09882   0.53085   0.00000  Uiso   1.00
C689   C     0.99638   0.19879   0.92540   0.00000  Uiso   1.00
C690   C     0.99621   0.11695   0.57801   0.00000  Uiso   1.00
C691   C     0.74646   0.15185   0.91158   0.00000  Uiso   1.00
C692   C     0.91766   0.17144   0.58762   0.00000  Uiso   1.00
C693   C     0.76414   0.16019   0.96103   0.00000  Uiso   1.00
C694   C     0.98537   0.06871   0.75062   0.00000  Uiso   1.00
C695   C     0.89215   0.14958   0.54279   0.00000  Uiso   1.00
C696   C     0.73093   0.19032   0.99262   0.00000  Uiso   1.00
C697   C     0.92236   0.11404   0.51341   0.00000  Uiso   1.00
C698   C     0.81599   0.14277   0.97893   0.00000  Uiso   1.00
C699   C     0.83727   0.16157   0.52694   0.00000  Uiso   1.00
C700   C     0.82911   0.12184   0.69347   0.00000  Uiso   1.00
C701   C     0.79124   0.07247   0.67959   0.00000  Uiso   1.00
C702   C     0.83762   0.21127   0.80668   0.00000  Uiso   1.00
C703   C     0.87567   0.26050   0.82089   0.00000  Uiso   1.00
C704   C     0.80237   0.19038   0.55798   0.00000  Uiso   1.00
C705   C     0.84724   0.10732   0.95044   0.00000  Uiso   1.00
C706   C     0.74990   0.20390   0.54110   0.00000  Uiso   1.00
C707   C     0.89939   0.09319   0.96760   0.00000  Uiso   1.00
C708   C     0.68915   0.31927   0.75103   0.00000  Uiso   1.00
C709   C     0.97750   0.01406   0.74893   0.00000  Uiso   1.00
C710   C     0.68773   0.17031   0.84084   0.00000  Uiso   1.00
H711   H     0.72460   0.22619   0.56590   0.00000  Uiso   1.00
H712   H     0.83166   0.08804   0.91531   0.00000  Uiso   1.00
H713   H     0.73187   0.00293   0.75513   0.00000  Uiso   1.00
H714   H     0.93477   0.33039   0.74482   0.00000  Uiso   1.00
H715   H     0.79175   0.04790   0.71035   0.00000  Uiso   1.00
H716   H     0.74805   0.08147   0.66859   0.00000  Uiso   1.00
H717   H     0.80745   0.04938   0.64784   0.00000  Uiso   1.00
H718   H     0.82812   0.14650   0.66271   0.00000  Uiso   1.00
H719   H     0.87035   0.10655   0.69905   0.00000  Uiso   1.00
H720   H     0.91869   0.25137   0.83242   0.00000  Uiso   1.00
H721   H     0.87574   0.28508   0.79017   0.00000  Uiso   1.00
H722   H     0.92172   0.06557   0.94494   0.00000  Uiso   1.00
H723   H     0.85915   0.28371   0.85242   0.00000  Uiso   1.00
H724   H     0.79645   0.22676   0.80109   0.00000  Uiso   1.00
H725   H     0.83850   0.18636   0.83731   0.00000  Uiso   1.00
H726   H     0.89910   0.20192   0.60980   0.00000  Uiso   1.00
H727   H     0.77181   0.13217   0.88554   0.00000  Uiso   1.00
H728   H     0.70121   0.10197   0.59245   0.00000  Uiso   1.00
H729   H     0.95803   0.21450   0.91180   0.00000  Uiso   1.00
H730   H     0.98675   0.22964   0.99915   0.00000  Uiso   1.00
H731   H     0.99794   0.07138   0.50881   0.00000  Uiso   1.00
H732   H     0.81363   0.20212   0.59606   0.00000  Uiso   1.00
N733   N     0.81362   0.15216   0.73739   0.00000  Uiso   1.00
N734   N     0.85305   0.18117   0.76260   0.00000  Uiso   1.00
O735   O     0.96386   0.24631   0.75309   0.00000  Uiso   1.00
O736   O     0.70281   0.08702   0.74690   0.00000  Uiso   1.00
O737   O     0.72488   0.23702   0.74501   0.00000  Uiso   1.00
O738   O     0.94178   0.09632   0.75498   0.00000  Uiso   1.00
O739   O     0.96995   0.17397   0.82247   0.00000  Uiso   1.00
O740   O     0.69672   0.15937   0.67753   0.00000  Uiso   1.00
O741   O     0.73098   0.16467   0.81439   0.00000  Uiso   1.00
O742   O     0.93569   0.16866   0.68561   0.00000  Uiso   1.00
Zn743  Zn    0.93700   0.17287   0.75539   0.00000  Uiso   1.00
Zn744  Zn    0.72967   0.16046   0.74460   0.00000  Uiso   1.00
C745   C     0.01462   0.59795   0.74936   0.00000  Uiso   1.00
C746   C     0.31209   0.49552   0.65916   0.00000  Uiso   1.00
C747   C     0.03127   0.50607   0.89353   0.00000  Uiso   1.00
C748   C     0.29996   0.48576   0.60672   0.00000  Uiso   1.00
C749   C     0.01295   0.54098   0.97496   0.00000  Uiso   1.00
C750   C     0.30809   0.43215   0.53085   0.00000  Uiso   1.00
C751   C     0.32971   0.53212   0.92540   0.00000  Uiso   1.00
C752   C     0.32954   0.45029   0.57801   0.00000  Uiso   1.00
C753   C     0.07979   0.48518   0.91158   0.00000  Uiso   1.00
C754   C     0.25099   0.50477   0.58762   0.00000  Uiso   1.00
C755   C     0.09747   0.49352   0.96103   0.00000  Uiso   1.00
C756   C     0.31871   0.40204   0.75062   0.00000  Uiso   1.00
C757   C     0.22548   0.48291   0.54279   0.00000  Uiso   1.00
C758   C     0.06426   0.52366   0.99262   0.00000  Uiso   1.00
C759   C     0.25569   0.44737   0.51341   0.00000  Uiso   1.00
C760   C     0.14932   0.47611   0.97893   0.00000  Uiso   1.00
C761   C     0.17061   0.49491   0.52694   0.00000  Uiso   1.00
C762   C     0.16244   0.45518   0.69347   0.00000  Uiso   1.00
C763   C     0.12458   0.40580   0.67959   0.00000  Uiso   1.00
C764   C     0.17096   0.54460   0.80668   0.00000  Uiso   1.00
C765   C     0.20901   0.59384   0.82089   0.00000  Uiso   1.00
C766   C     0.13570   0.52371   0.55798   0.00000  Uiso   1.00
C767   C     0.18057   0.44066   0.95044   0.00000  Uiso   1.00
C768   C     0.08323   0.53723   0.54110   0.00000  Uiso   1.00
C769   C     0.23272   0.42653   0.96760   0.00000  Uiso   1.00
C770   C     0.02248   0.65261   0.75103   0.00000  Uiso   1.00
C771   C     0.31084   0.34739   0.74893   0.00000  Uiso   1.00
C772   C     0.02107   0.50364   0.84084   0.00000  Uiso   1.00
H773   H     0.05794   0.55953   0.56590   0.00000  Uiso   1.00
H774   H     0.16499   0.42137   0.91531   0.00000  Uiso   1.00
H775   H     0.06521   0.33627   0.75513   0.00000  Uiso   1.00
H776   H     0.26810   0.66373   0.74482   0.00000  Uiso   1.00
H777   H     0.12508   0.38124   0.71035   0.00000  Uiso   1.00
H778   H     0.08139   0.41481   0.66859   0.00000  Uiso   1.00
H779   H     0.14078   0.38271   0.64784   0.00000  Uiso   1.00
H780   H     0.16145   0.47983   0.66271   0.00000  Uiso   1.00
H781   H     0.20369   0.43988   0.69905   0.00000  Uiso   1.00
H782   H     0.25203   0.58470   0.83242   0.00000  Uiso   1.00
H783   H     0.20908   0.61842   0.79017   0.00000  Uiso   1.00
H784   H     0.25506   0.39890   0.94494   0.00000  Uiso   1.00
H785   H     0.19249   0.61705   0.85242   0.00000  Uiso   1.00
H786   H     0.12978   0.56009   0.80109   0.00000  Uiso   1.00
H787   H     0.17183   0.51969   0.83731   0.00000  Uiso   1.00
H788   H     0.23244   0.53525   0.60980   0.00000  Uiso   1.00
H789   H     0.10514   0.46550   0.88554   0.00000  Uiso   1.00
H790   H     0.03454   0.43531   0.59245   0.00000  Uiso   1.00
H791   H     0.29136   0.54783   0.91180   0.00000  Uiso   1.00
H792   H     0.32009   0.56298   0.99915   0.00000  Uiso   1.00
H793   H     0.33127   0.40472   0.50881   0.00000  Uiso   1.00
H794   H     0.14697   0.53545   0.59606   0.00000  Uiso   1.00
N795   N     0.14695   0.48550   0.73739   0.00000  Uiso   1.00
N796   N     0.18638   0.51450   0.76260   0.00000  Uiso   1.00
O797   O     0.29719   0.57964   0.75309   0.00000  Uiso   1.00
O798   O     0.03614   0.42036   0.74690   0.00000  Uiso   1.00
O799   O     0.05822   0.57035   0.74501   0.00000  Uiso   1.00
O800   O     0.27512   0.42965   0.75498   0.00000  Uiso   1.00
O801   O     0.30328   0.50730   0.82247   0.00000  Uiso   1.00
O802   O     0.03005   0.49270   0.67753   0.00000  Uiso   1.00
O803   O     0.06431   0.49801   0.81439   0.00000  Uiso   1.00
O804   O     0.26902   0.50199   0.68561   0.00000  Uiso   1.00
Zn805  Zn    0.27033   0.50621   0.75539   0.00000  Uiso   1.00
Zn806  Zn    0.06300   0.49379   0.74460   0.00000  Uiso   1.00
C807   C     0.34795   0.59795   0.74936   0.00000  Uiso   1.00
C808   C     0.64542   0.49552   0.65916   0.00000  Uiso   1.00
C809   C     0.36461   0.50607   0.89353   0.00000  Uiso   1.00
C810   C     0.63329   0.48576   0.60672   0.00000  Uiso   1.00
C811   C     0.34628   0.54098   0.97496   0.00000  Uiso   1.00
C812   C     0.64142   0.43215   0.53085   0.00000  Uiso   1.00
C813   C     0.66305   0.53212   0.92540   0.00000  Uiso   1.00
C814   C     0.66287   0.45029   0.57801   0.00000  Uiso   1.00
C815   C     0.41313   0.48518   0.91158   0.00000  Uiso   1.00
C816   C     0.58432   0.50477   0.58762   0.00000  Uiso   1.00
C817   C     0.43081   0.49352   0.96103   0.00000  Uiso   1.00
C818   C     0.65204   0.40204   0.75062   0.00000  Uiso   1.00
C819   C     0.55882   0.48291   0.54279   0.00000  Uiso   1.00
C820   C     0.39759   0.52366   0.99262   0.00000  Uiso   1.00
C821   C     0.58902   0.44737   0.51341   0.00000  Uiso   1.00
C822   C     0.48266   0.47611   0.97893   0.00000  Uiso   1.00
C823   C     0.50394   0.49491   0.52694   0.00000  Uiso   1.00
C824   C     0.49577   0.45518   0.69347   0.00000  Uiso   1.00
C825   C     0.45791   0.40580   0.67959   0.00000  Uiso   1.00
C826   C     0.50429   0.54460   0.80668   0.00000  Uiso   1.00
C827   C     0.54234   0.59384   0.82089   0.00000  Uiso   1.00
C828   C     0.46903   0.52371   0.55798   0.00000  Uiso   1.00
C829   C     0.51390   0.44066   0.95044   0.00000  Uiso   1.00
C830   C     0.41657   0.53723   0.54110   0.00000  Uiso   1.00
C831   C     0.56606   0.42653   0.96760   0.00000  Uiso   1.00
C832   C     0.35582   0.65261   0.75103   0.00000  Uiso   1.00
C833   C     0.64417   0.34739   0.74893   0.00000  Uiso   1.00
C834   C     0.35440   0.50364   0.84084   0.00000  Uiso   1.00
H835   H     0.39127   0.55953   0.56590   0.00000  Uiso   1.00
H836   H     0.49832   0.42137   0.91531   0.00000  Uiso   1.00
H837   H     0.39854   0.33627   0.75513   0.00000  Uiso   1.00
H838   H     0.60143   0.66373   0.74482   0.00000  Uiso   1.00
H839   H     0.45841   0.38124   0.71035   0.00000  Uiso   1.00
H840   H     0.41472   0.41481   0.66859   0.00000  Uiso   1.00
H841   H     0.47411   0.38271   0.64784   0.00000  Uiso   1.00
H842   H     0.49478   0.47983   0.66271   0.00000  Uiso   1.00
H843   H     0.53702   0.43988   0.69905   0.00000  Uiso   1.00
H844   H     0.58536   0.58470   0.83242   0.00000  Uiso   1.00
H845   H     0.54241   0.61842   0.79017   0.00000  Uiso   1.00
H846   H     0.58839   0.39890   0.94494   0.00000  Uiso   1.00
H847   H     0.52582   0.61705   0.85242   0.00000  Uiso   1.00
H848   H     0.46311   0.56009   0.80109   0.00000  Uiso   1.00
H849   H     0.50516   0.51969   0.83731   0.00000  Uiso   1.00
H850   H     0.56577   0.53525   0.60980   0.00000  Uiso   1.00
H851   H     0.43848   0.46550   0.88554   0.00000  Uiso   1.00
H852   H     0.36788   0.43531   0.59245   0.00000  Uiso   1.00
H853   H     0.62469   0.54783   0.91180   0.00000  Uiso   1.00
H854   H     0.65342   0.56298   0.99915   0.00000  Uiso   1.00
H855   H     0.66460   0.40472   0.50881   0.00000  Uiso   1.00
H856   H     0.48030   0.53545   0.59606   0.00000  Uiso   1.00
N857   N     0.48029   0.48550   0.73739   0.00000  Uiso   1.00
N858   N     0.51971   0.51450   0.76260   0.00000  Uiso   1.00
O859   O     0.63052   0.57964   0.75309   0.00000  Uiso   1.00
O860   O     0.36948   0.42036   0.74690   0.00000  Uiso   1.00
O861   O     0.39155   0.57035   0.74501   0.00000  Uiso   1.00
O862   O     0.60845   0.42965   0.75498   0.00000  Uiso   1.00
O863   O     0.63662   0.50730   0.82247   0.00000  Uiso   1.00
O864   O     0.36338   0.49270   0.67753   0.00000  Uiso   1.00
O865   O     0.39764   0.49801   0.81439   0.00000  Uiso   1.00
O866   O     0.60236   0.50199   0.68561   0.00000  Uiso   1.00
Zn867  Zn    0.60366   0.50621   0.75539   0.00000  Uiso   1.00
Zn868  Zn    0.39634   0.49379   0.74460   0.00000  Uiso   1.00
C869   C     0.68129   0.59795   0.74936   0.00000  Uiso   1.00
C870   C     0.97876   0.49552   0.65916   0.00000  Uiso   1.00
C871   C     0.69794   0.50607   0.89353   0.00000  Uiso   1.00
C872   C     0.96662   0.48576   0.60672   0.00000  Uiso   1.00
C873   C     0.67962   0.54098   0.97496   0.00000  Uiso   1.00
C874   C     0.97475   0.43215   0.53085   0.00000  Uiso   1.00
C875   C     0.99638   0.53212   0.92540   0.00000  Uiso   1.00
C876   C     0.99621   0.45029   0.57801   0.00000  Uiso   1.00
C877   C     0.74646   0.48518   0.91158   0.00000  Uiso   1.00
C878   C     0.91766   0.50477   0.58762   0.00000  Uiso   1.00
C879   C     0.76414   0.49352   0.96103   0.00000  Uiso   1.00
C880   C     0.98537   0.40204   0.75062   0.00000  Uiso   1.00
C881   C     0.89215   0.48291   0.54279   0.00000  Uiso   1.00
C882   C     0.73093   0.52366   0.99262   0.00000  Uiso   1.00
C883   C     0.92236   0.44737   0.51341   0.00000  Uiso   1.00
C884   C     0.81599   0.47611   0.97893   0.00000  Uiso   1.00
C885   C     0.83727   0.49491   0.52694   0.00000  Uiso   1.00
C886   C     0.82911   0.45518   0.69347   0.00000  Uiso   1.00
C887   C     0.79124   0.40580   0.67959   0.00000  Uiso   1.00
C888   C     0.83762   0.54460   0.80668   0.00000  Uiso   1.00
C889   C     0.87567   0.59384   0.82089   0.00000  Uiso   1.00
C890   C     0.80237   0.52371   0.55798   0.00000  Uiso   1.00
C891   C     0.84724   0.44066   0.95044   0.00000  Uiso   1.00
C892   C     0.74990   0.53723   0.54110   0.00000  Uiso   1.00
C893   C     0.89939   0.42653   0.96760   0.00000  Uiso   1.00
C894   C     0.68915   0.65261   0.75103   0.00000  Uiso   1.00
C895   C     0.97750   0.34739   0.74893   0.00000  Uiso   1.00
C896   C     0.68773   0.50364   0.84084   0.00000  Uiso   1.00
H897   H     0.72460   0.55953   0.56590   0.00000  Uiso   1.00
H898   H     0.83166   0.42137   0.91531   0.00000  Uiso   1.00
H899   H     0.73187   0.33627   0.75513   0.00000  Uiso   1.00
H900   H     0.93477   0.66373   0.74482   0.00000  Uiso   1.00
H901   H     0.79175   0.38124   0.71035   0.00000  Uiso   1.00
H902   H     0.74805   0.41481   0.66859   0.00000  Uiso   1.00
H903   H     0.80745   0.38271   0.64784   0.00000  Uiso   1.00
H904   H     0.82812   0.47983   0.66271   0.00000  Uiso   1.00
H905   H     0.87035   0.43988   0.69905   0.00000  Uiso   1.00
H906   H     0.91869   0.58470   0.83242   0.00000  Uiso   1.00
H907   H     0.87574   0.61842   0.79017   0.00000  Uiso   1.00
H908   H     0.92172   0.39890   0.94494   0.00000  Uiso   1.00
H909   H     0.85915   0.61705   0.85242   0.00000  Uiso   1.00
H910   H     0.79645   0.56009   0.80109   0.00000  Uiso   1.00
H911   H     0.83850   0.51969   0.83731   0.00000  Uiso   1.00
H912   H     0.89910   0.53525   0.60980   0.00000  Uiso   1.00
H913   H     0.77181   0.46550   0.88554   0.00000  Uiso   1.00
H914   H     0.70121   0.43531   0.59245   0.00000  Uiso   1.00
H915   H     0.95803   0.54783   0.91180   0.00000  Uiso   1.00
H916   H     0.98675   0.56298   0.99915   0.00000  Uiso   1.00
H917   H     0.99794   0.40472   0.50881   0.00000  Uiso   1.00
H918   H     0.81363   0.53545   0.59606   0.00000  Uiso   1.00
N919   N     0.81362   0.48550   0.73739   0.00000  Uiso   1.00
N920   N     0.85305   0.51450   0.76260   0.00000  Uiso   1.00
O921   O     0.96386   0.57964   0.75309   0.00000  Uiso   1.00
O922   O     0.70281   0.42036   0.74690   0.00000  Uiso   1.00
O923   O     0.72488   0.57035   0.74501   0.00000  Uiso   1.00
O924   O     0.94178   0.42965   0.75498   0.00000  Uiso   1.00
O925   O     0.96995   0.50730   0.82247   0.00000  Uiso   1.00
O926   O     0.69672   0.49270   0.67753   0.00000  Uiso   1.00
O927   O     0.73098   0.49801   0.81439   0.00000  Uiso   1.00
O928   O     0.93569   0.50199   0.68561   0.00000  Uiso   1.00
Zn929  Zn    0.93700   0.50621   0.75539   0.00000  Uiso   1.00
Zn930  Zn    0.72967   0.49379   0.74460   0.00000  Uiso   1.00
C931   C     0.01462   0.93129   0.74936   0.00000  Uiso   1.00
C932   C     0.31209   0.82885   0.65916   0.00000  Uiso   1.00
C933   C     0.03127   0.83940   0.89353   0.00000  Uiso   1.00
C934   C     0.29996   0.81909   0.60672   0.00000  Uiso   1.00
C935   C     0.01295   0.87432   0.97496   0.00000  Uiso   1.00
C936   C     0.30809   0.76549   0.53085   0.00000  Uiso   1.00
C937   C     0.32971   0.86545   0.92540   0.00000  Uiso   1.00
C938   C     0.32954   0.78362   0.57801   0.00000  Uiso   1.00
C939   C     0.07979   0.81852   0.91158   0.00000  Uiso   1.00
C940   C     0.25099   0.83811   0.58762   0.00000  Uiso   1.00
C941   C     0.09747   0.82686   0.96103   0.00000  Uiso   1.00
C942   C     0.31871   0.73538   0.75062   0.00000  Uiso   1.00
C943   C     0.22548   0.81624   0.54279   0.00000  Uiso   1.00
C944   C     0.06426   0.85699   0.99262   0.00000  Uiso   1.00
C945   C     0.25569   0.78070   0.51341   0.00000  Uiso   1.00
C946   C     0.14932   0.80944   0.97893   0.00000  Uiso   1.00
C947   C     0.17061   0.82824   0.52694   0.00000  Uiso   1.00
C948   C     0.16244   0.78851   0.69347   0.00000  Uiso   1.00
C949   C     0.12458   0.73913   0.67959   0.00000  Uiso   1.00
C950   C     0.17096   0.87793   0.80668   0.00000  Uiso   1.00
C951   C     0.20901   0.92717   0.82089   0.00000  Uiso   1.00
C952   C     0.13570   0.85704   0.55798   0.00000  Uiso   1.00
C953   C     0.18057   0.77399   0.95044   0.00000  Uiso   1.00
C954   C     0.08323   0.87056   0.54110   0.00000  Uiso   1.00
C955   C     0.23272   0.75986   0.96760   0.00000  Uiso   1.00
C956   C     0.02248   0.98594   0.75103   0.00000  Uiso   1.00
C957   C     0.31084   0.68072   0.74893   0.00000  Uiso   1.00
C958   C     0.02107   0.83698   0.84084   0.00000  Uiso   1.00
H959   H     0.05794   0.89286   0.56590   0.00000  Uiso   1.00
H960   H     0.16499   0.75470   0.91531   0.00000  Uiso   1.00
H961   H     0.06521   0.66960   0.75513   0.00000  Uiso   1.00
H962   H     0.26810   0.99706   0.74482   0.00000  Uiso   1.00
H963   H     0.12508   0.71457   0.71035   0.00000  Uiso   1.00
H964   H     0.08139   0.74814   0.66859   0.00000  Uiso   1.00
H965   H     0.14078   0.71604   0.64784   0.00000  Uiso   1.00
H966   H     0.16145   0.81317   0.66271   0.00000  Uiso   1.00
H967   H     0.20369   0.77321   0.69905   0.00000  Uiso   1.00
H968   H     0.25203   0.91803   0.83242   0.00000  Uiso   1.00
H969   H     0.20908   0.95175   0.79017   0.00000  Uiso   1.00
H970   H     0.25506   0.73223   0.94494   0.00000  Uiso   1.00
H971   H     0.19249   0.95038   0.85242   0.00000  Uiso   1.00
H972   H     0.12978   0.89342   0.80109   0.00000  Uiso   1.00
H973   H     0.17183   0.85303   0.83731   0.00000  Uiso   1.00
H974   H     0.23244   0.86859   0.60980   0.00000  Uiso   1.00
H975   H     0.10514   0.79884   0.88554   0.00000  Uiso   1.00
H976   H     0.03454   0.76864   0.59245   0.00000  Uiso   1.00
H977   H     0.29136   0.88116   0.91180   0.00000  Uiso   1.00
H978   H     0.32009   0.89631   0.99915   0.00000  Uiso   1.00
H979   H     0.33127   0.73805   0.50881   0.00000  Uiso   1.00
H980   H     0.14697   0.86878   0.59606   0.00000  Uiso   1.00
N981   N     0.14695   0.81883   0.73739   0.00000  Uiso   1.00
N982   N     0.18638   0.84784   0.76260   0.00000  Uiso   1.00
O983   O     0.29719   0.91298   0.75309   0.00000  Uiso   1.00
O984   O     0.03614   0.75369   0.74690   0.00000  Uiso   1.00
O985   O     0.05822   0.90368   0.74501   0.00000  Uiso   1.00
O986   O     0.27512   0.76298   0.75498   0.00000  Uiso   1.00
O987   O     0.30328   0.84063   0.82247   0.00000  Uiso   1.00
O988   O     0.03005   0.82603   0.67753   0.00000  Uiso   1.00
O989   O     0.06431   0.83134   0.81439   0.00000  Uiso   1.00
O990   O     0.26902   0.83533   0.68561   0.00000  Uiso   1.00
Zn991  Zn    0.27033   0.83954   0.75539   0.00000  Uiso   1.00
Zn992  Zn    0.06300   0.82713   0.74460   0.00000  Uiso   1.00
C993   C     0.34795   0.93129   0.74936   0.00000  Uiso   1.00
C994   C     0.64542   0.82885   0.65916   0.00000  Uiso   1.00
C995   C     0.36461   0.83940   0.89353   0.00000  Uiso   1.00
C996   C     0.63329   0.81909   0.60672   0.00000  Uiso   1.00
C997   C     0.34628   0.87432   0.97496   0.00000  Uiso   1.00
C998   C     0.64142   0.76549   0.53085   0.00000  Uiso   1.00
C999   C     0.66305   0.86545   0.92540   0.00000  Uiso   1.00
C1000  C     0.66287   0.78362   0.57801   0.00000  Uiso   1.00
C1001  C     0.41313   0.81852   0.91158   0.00000  Uiso   1.00
C1002  C     0.58432   0.83811   0.58762   0.00000  Uiso   1.00
C1003  C     0.43081   0.82686   0.96103   0.00000  Uiso   1.00
C1004  C     0.65204   0.73538   0.75062   0.00000  Uiso   1.00
C1005  C     0.55882   0.81624   0.54279   0.00000  Uiso   1.00
C1006  C     0.39759   0.85699   0.99262   0.00000  Uiso   1.00
C1007  C     0.58902   0.78070   0.51341   0.00000  Uiso   1.00
C1008  C     0.48266   0.80944   0.97893   0.00000  Uiso   1.00
C1009  C     0.50394   0.82824   0.52694   0.00000  Uiso   1.00
C1010  C     0.49577   0.78851   0.69347   0.00000  Uiso   1.00
C1011  C     0.45791   0.73913   0.67959   0.00000  Uiso   1.00
C1012  C     0.50429   0.87793   0.80668   0.00000  Uiso   1.00
C1013  C     0.54234   0.92717   0.82089   0.00000  Uiso   1.00
C1014  C     0.46903   0.85704   0.55798   0.00000  Uiso   1.00
C1015  C     0.51390   0.77399   0.95044   0.00000  Uiso   1.00
C1016  C     0.41657   0.87056   0.54110   0.00000  Uiso   1.00
C1017  C     0.56606   0.75986   0.96760   0.00000  Uiso   1.00
C1018  C     0.35582   0.98594   0.75103   0.00000  Uiso   1.00
C1019  C     0.64417   0.68072   0.74893   0.00000  Uiso   1.00
C1020  C     0.35440   0.83698   0.84084   0.00000  Uiso   1.00
H1021  H     0.39127   0.89286   0.56590   0.00000  Uiso   1.00
H1022  H     0.49832   0.75470   0.91531   0.00000  Uiso   1.00
H1023  H     0.39854   0.66960   0.75513   0.00000  Uiso   1.00
H1024  H     0.60143   0.99706   0.74482   0.00000  Uiso   1.00
H1025  H     0.45841   0.71457   0.71035   0.00000  Uiso   1.00
H1026  H     0.41472   0.74814   0.66859   0.00000  Uiso   1.00
H1027  H     0.47411   0.71604   0.64784   0.00000  Uiso   1.00
H1028  H     0.49478   0.81317   0.66271   0.00000  Uiso   1.00
H1029  H     0.53702   0.77321   0.69905   0.00000  Uiso   1.00
H1030  H     0.58536   0.91803   0.83242   0.00000  Uiso   1.00
H1031  H     0.54241   0.95175   0.79017   0.00000  Uiso   1.00
H1032  H     0.58839   0.73223   0.94494   0.00000  Uiso   1.00
H1033  H     0.52582   0.95038   0.85242   0.00000  Uiso   1.00
H1034  H     0.46311   0.89342   0.80109   0.00000  Uiso   1.00
H1035  H     0.50516   0.85303   0.83731   0.00000  Uiso   1.00
H1036  H     0.56577   0.86859   0.60980   0.00000  Uiso   1.00
H1037  H     0.43848   0.79884   0.88554   0.00000  Uiso   1.00
H1038  H     0.36788   0.76864   0.59245   0.00000  Uiso   1.00
H1039  H     0.62469   0.88116   0.91180   0.00000  Uiso   1.00
H1040  H     0.65342   0.89631   0.99915   0.00000  Uiso   1.00
H1041  H     0.66460   0.73805   0.50881   0.00000  Uiso   1.00
H1042  H     0.48030   0.86878   0.59606   0.00000  Uiso   1.00
N1043  N     0.48029   0.81883   0.73739   0.00000  Uiso   1.00
N1044  N     0.51971   0.84784   0.76260   0.00000  Uiso   1.00
O1045  O     0.63052   0.91298   0.75309   0.00000  Uiso   1.00
O1046  O     0.36948   0.75369   0.74690   0.00000  Uiso   1.00
O1047  O     0.39155   0.90368   0.74501   0.00000  Uiso   1.00
O1048  O     0.60845   0.76298   0.75498   0.00000  Uiso   1.00
O1049  O     0.63662   0.84063   0.82247   0.00000  Uiso   1.00
O1050  O     0.36338   0.82603   0.67753   0.00000  Uiso   1.00
O1051  O     0.39764   0.83134   0.81439   0.00000  Uiso   1.00
O1052  O     0.60236   0.83533   0.68561   0.00000  Uiso   1.00
Zn1053 Zn    0.60366   0.83954   0.75539   0.00000  Uiso   1.00
Zn1054 Zn    0.39634   0.82713   0.74460   0.00000  Uiso   1.00
C1055  C     0.68129   0.93129   0.74936   0.00000  Uiso   1.00
C1056  C     0.97876   0.82885   0.65916   0.00000  Uiso   1.00
C1057  C     0.69794   0.83940   0.89353   0.00000  Uiso   1.00
C1058  C     0.96662   0.81909   0.60672   0.00000  Uiso   1.00
C1059  C     0.67962   0.87432   0.97496   0.00000  Uiso   1.00
C1060  C     0.97475   0.76549   0.53085   0.00000  Uiso   1.00
C1061  C     0.99638   0.86545   0.92540   0.00000  Uiso   1.00
C1062  C     0.99621   0.78362   0.57801   0.00000  Uiso   1.00
C1063  C     0.74646   0.81852   0.91158   0.00000  Uiso   1.00
C1064  C     0.91766   0.83811   0.58762   0.00000  Uiso   1.00
C1065  C     0.76414   0.82686   0.96103   0.00000  Uiso   1.00
C1066  C     0.98537   0.73538   0.75062   0.00000  Uiso   1.00
C1067  C     0.89215   0.81624   0.54279   0.00000  Uiso   1.00
C1068  C     0.73093   0.85699   0.99262   0.00000  Uiso   1.00
C1069  C     0.92236   0.78070   0.51341   0.00000  Uiso   1.00
C1070  C     0.81599   0.80944   0.97893   0.00000  Uiso   1.00
C1071  C     0.83727   0.82824   0.52694   0.00000  Uiso   1.00
C1072  C     0.82911   0.78851   0.69347   0.00000  Uiso   1.00
C1073  C     0.79124   0.73913   0.67959   0.00000  Uiso   1.00
C1074  C     0.83762   0.87793   0.80668   0.00000  Uiso   1.00
C1075  C     0.87567   0.92717   0.82089   0.00000  Uiso   1.00
C1076  C     0.80237   0.85704   0.55798   0.00000  Uiso   1.00
C1077  C     0.84724   0.77399   0.95044   0.00000  Uiso   1.00
C1078  C     0.74990   0.87056   0.54110   0.00000  Uiso   1.00
C1079  C     0.89939   0.75986   0.96760   0.00000  Uiso   1.00
C1080  C     0.68915   0.98594   0.75103   0.00000  Uiso   1.00
C1081  C     0.97750   0.68072   0.74893   0.00000  Uiso   1.00
C1082  C     0.68773   0.83698   0.84084   0.00000  Uiso   1.00
H1083  H     0.72460   0.89286   0.56590   0.00000  Uiso   1.00
H1084  H     0.83166   0.75470   0.91531   0.00000  Uiso   1.00
H1085  H     0.73187   0.66960   0.75513   0.00000  Uiso   1.00
H1086  H     0.93477   0.99706   0.74482   0.00000  Uiso   1.00
H1087  H     0.79175   0.71457   0.71035   0.00000  Uiso   1.00
H1088  H     0.74805   0.74814   0.66859   0.00000  Uiso   1.00
H1089  H     0.80745   0.71604   0.64784   0.00000  Uiso   1.00
H1090  H     0.82812   0.81317   0.66271   0.00000  Uiso   1.00
H1091  H     0.87035   0.77321   0.69905   0.00000  Uiso   1.00
H1092  H     0.91869   0.91803   0.83242   0.00000  Uiso   1.00
H1093  H     0.87574   0.95175   0.79017   0.00000  Uiso   1.00
H1094  H     0.92172   0.73223   0.94494   0.00000  Uiso   1.00
H1095  H     0.85915   0.95038   0.85242   0.00000  Uiso   1.00
H1096  H     0.79645   0.89342   0.80109   0.00000  Uiso   1.00
H1097  H     0.83850   0.85303   0.83731   0.00000  Uiso   1.00
H1098  H     0.89910   0.86859   0.60980   0.00000  Uiso   1.00
H1099  H     0.77181   0.79884   0.88554   0.00000  Uiso   1.00
H1100  H     0.70121   0.76864   0.59245   0.00000  Uiso   1.00
H1101  H     0.95803   0.88116   0.91180   0.00000  Uiso   1.00
H1102  H     0.98675   0.89631   0.99915   0.00000  Uiso   1.00
H1103  H     0.99794   0.73805   0.50881   0.00000  Uiso   1.00
H1104  H     0.81363   0.86878   0.59606   0.00000  Uiso   1.00
N1105  N     0.81362   0.81883   0.73739   0.00000  Uiso   1.00
N1106  N     0.85305   0.84784   0.76260   0.00000  Uiso   1.00
O1107  O     0.96386   0.91298   0.75309   0.00000  Uiso   1.00
O1108  O     0.70281   0.75369   0.74690   0.00000  Uiso   1.00
O1109  O     0.72488   0.90368   0.74501   0.00000  Uiso   1.00
O1110  O     0.94178   0.76298   0.75498   0.00000  Uiso   1.00
O1111  O     0.96995   0.84063   0.82247   0.00000  Uiso   1.00
O1112  O     0.69672   0.82603   0.67753   0.00000  Uiso   1.00
O1113  O     0.73098   0.83134   0.81439   0.00000  Uiso   1.00
O1114  O     0.93569   0.83533   0.68561   0.00000  Uiso   1.00
Zn1115 Zn    0.93700   0.83954   0.75539   0.00000  Uiso   1.00
Zn1116 Zn    0.72967   0.82713   0.74460   0.00000  Uiso   1.00
loop_
_geom_bond_atom_site_label_1
_geom_bond_atom_site_label_2
_geom_bond_distance
_geom_bond_site_symmetry_2
_ccdc_geom_bond_type
C1     O55     1.298   .     A
C1     C26     1.402   .     S
C1     O177    1.295   1_455 S
C2     C4      1.451   .     S
C2     O60     1.311   .     A
C2     O120    1.307   .     S
C3     C9      1.390   .     A
C3     C28     1.453   .     S
C3     C131    1.399   1_455 S
C4     C8      1.399   .     A
C4     C10     1.387   .     A
C5     C14     1.404   .     A
C5     C131    1.392   1_455 S
C5     H172    1.084   1_455 S
C6     H49     1.084   .     S
C6     C8      1.393   .     A
C6     C15     1.404   .     A
C7     H47     1.083   .     S
C7     C65     1.399   .     S
C7     C67     1.392   .     S
C8     H108    1.082   .     S
C9     H45     1.076   .     S
C9     C11     1.394   .     A
C10    H44     1.078   .     S
C10    C13     1.394   .     A
C11    C16     1.418   .     A
C11    C14     1.419   .     A
C12    O56     1.298   .     A
C12    C27     1.402   .     S
C12    O116    1.295   .     S
C13    C17     1.417   .     A
C13    C15     1.419   .     A
C14    C582    1.388   .     S
C15    C583    1.389   1_554 S
C16    C23     1.419   .     A
C16    C575    1.416   .     S
C17    C22     1.419   .     A
C17    C574    1.416   1_554 S
C18    H37     1.090   .     S
C18    N51     1.454   .     S
C18    C19     1.521   .     S
C18    H36     1.110   .     S
C19    H35     1.111   .     S
C19    H33     1.108   .     S
C19    H34     1.102   .     S
C20    H42     1.091   .     S
C20    C21     1.521   .     S
C20    H43     1.111   .     S
C20    N52     1.454   .     S
C21    H39     1.108   .     S
C21    H41     1.111   .     S
C21    H38     1.103   .     S
C22    C24     1.385   .     A
C22    H50     1.076   .     S
C23    C25     1.386   .     A
C23    H30     1.077   .     S
C24    H29     1.084   .     S
C24    C572    1.388   1_554 S
C25    H40     1.084   .     S
C25    C573    1.389   .     S
C26    C337    1.330   1_455 S
C26    H217    1.085   .     S
C27    C460    1.330   1_545 S
C27    H404    1.086   1_545 S
C28    O59     1.312   .     A
C28    O181    1.306   1_455 S
H31    C398    1.085   1_545 S
H32    C213    1.086   .     S
H46    C132    1.082   1_455 S
H48    C67     1.084   .     S
N51    Zn62    2.054   .     S
N51    N52     1.290   .     D
N52    Zn61    2.054   .     S
O53    Zn61    1.969   .     S
O53    C63     1.295   .     S
O54    Zn62    1.969   .     S
O54    C136    1.295   1_455 S
O55    Zn62    1.975   .     S
O56    Zn61    1.975   .     S
O57    Zn61    1.962   .     S
O57    C90     1.306   .     S
O58    Zn62    1.962   .     S
O58    C126    1.307   1_455 S
O59    Zn62    1.917   .     S
O60    Zn61    1.917   .     S
C63    O117    1.298   .     A
C63    C88     1.402   .     S
C64    C66     1.451   .     S
C64    O122    1.311   .     A
C64    O182    1.307   .     S
C65    C71     1.390   .     A
C65    C90     1.453   .     S
C66    C70     1.399   .     A
C66    C72     1.387   .     A
C67    C76     1.404   .     A
C68    H111    1.084   .     S
C68    C70     1.393   .     A
C68    C77     1.404   .     A
C69    H109    1.083   .     S
C69    C127    1.399   .     S
C69    C129    1.392   .     S
C70    H170    1.082   .     S
C71    H107    1.076   .     S
C71    C73     1.394   .     A
C72    H106    1.078   .     S
C72    C75     1.394   .     A
C73    C78     1.418   .     A
C73    C76     1.419   .     A
C74    O118    1.298   .     A
C74    C89     1.402   .     S
C74    O178    1.295   .     S
C75    C79     1.417   .     A
C75    C77     1.419   .     A
C76    C644    1.388   .     S
C77    C645    1.389   1_554 S
C78    C85     1.419   .     A
C78    C637    1.416   .     S
C79    C84     1.419   .     A
C79    C636    1.416   1_554 S
C80    H99     1.090   .     S
C80    N113    1.454   .     S
C80    C81     1.521   .     S
C80    H98     1.110   .     S
C81    H97     1.111   .     S
C81    H95     1.108   .     S
C81    H96     1.102   .     S
C82    H104    1.091   .     S
C82    C83     1.521   .     S
C82    H105    1.111   .     S
C82    N114    1.454   .     S
C83    H101    1.108   .     S
C83    H103    1.111   .     S
C83    H100    1.103   .     S
C84    C86     1.385   .     A
C84    H112    1.076   .     S
C85    C87     1.386   .     A
C85    H92     1.077   .     S
C86    H91     1.084   .     S
C86    C634    1.388   1_554 S
C87    H102    1.084   .     S
C87    C635    1.389   .     S
C88    C213    1.330   .     S
C88    H279    1.085   .     S
C89    C522    1.330   1_545 S
C89    H466    1.086   1_545 S
C90    O121    1.312   .     A
H93    C460    1.085   1_545 S
H94    C275    1.086   .     S
H110   C129    1.084   .     S
N113   Zn124   2.054   .     S
N113   N114    1.290   .     D
N114   Zn123   2.054   .     S
O115   Zn123   1.969   .     S
O115   C125    1.295   .     S
O116   Zn124   1.969   .     S
O117   Zn124   1.975   .     S
O118   Zn123   1.975   .     S
O119   Zn123   1.962   .     S
O119   C152    1.306   .     S
O120   Zn124   1.962   .     S
O121   Zn124   1.917   .     S
O122   Zn123   1.917   .     S
C125   O179    1.298   .     A
C125   C150    1.402   .     S
C126   C128    1.451   .     S
C126   O184    1.311   .     A
C126   O58     1.307   1_655 S
C127   C133    1.390   .     A
C127   C152    1.453   .     S
C128   C132    1.399   .     A
C128   C134    1.387   .     A
C129   C138    1.404   .     A
C130   H173    1.084   .     S
C130   C132    1.393   .     A
C130   C139    1.404   .     A
C131   H171    1.083   .     S
C131   C3      1.399   1_655 S
C131   C5      1.392   1_655 S
C132   H46     1.082   1_655 S
C133   H169    1.076   .     S
C133   C135    1.394   .     A
C134   H168    1.078   .     S
C134   C137    1.394   .     A
C135   C140    1.418   .     A
C135   C138    1.419   .     A
C136   O180    1.298   .     A
C136   C151    1.402   .     S
C136   O54     1.295   1_655 S
C137   C141    1.417   .     A
C137   C139    1.419   .     A
C138   C706    1.388   .     S
C139   C707    1.389   1_554 S
C140   C147    1.419   .     A
C140   C699    1.416   .     S
C141   C146    1.419   .     A
C141   C698    1.416   1_554 S
C142   H161    1.090   .     S
C142   N175    1.454   .     S
C142   C143    1.521   .     S
C142   H160    1.110   .     S
C143   H159    1.111   .     S
C143   H157    1.108   .     S
C143   H158    1.102   .     S
C144   H166    1.091   .     S
C144   C145    1.521   .     S
C144   H167    1.111   .     S
C144   N176    1.454   .     S
C145   H163    1.108   .     S
C145   H165    1.111   .     S
C145   H162    1.103   .     S
C146   C148    1.385   .     A
C146   H174    1.076   .     S
C147   C149    1.386   .     A
C147   H154    1.077   .     S
C148   H153    1.084   .     S
C148   C696    1.388   1_554 S
C149   H164    1.084   .     S
C149   C697    1.389   .     S
C150   C275    1.330   .     S
C150   H341    1.085   .     S
C151   C398    1.330   1_645 S
C151   H528    1.086   1_545 S
C152   O183    1.312   .     A
H155   C522    1.085   1_545 S
H156   C337    1.086   .     S
H172   C5      1.084   1_655 S
N175   Zn186   2.054   .     S
N175   N176    1.290   .     D
N176   Zn185   2.054   .     S
O177   Zn185   1.969   .     S
O177   C1      1.295   1_655 S
O178   Zn186   1.969   .     S
O179   Zn186   1.975   .     S
O180   Zn185   1.975   .     S
O181   Zn185   1.962   .     S
O181   C28     1.306   1_655 S
O182   Zn186   1.962   .     S
O183   Zn186   1.917   .     S
O184   Zn185   1.917   .     S
C187   O241    1.298   .     A
C187   C212    1.402   .     S
C187   O363    1.295   1_455 S
C188   C190    1.451   .     S
C188   O246    1.311   .     A
C188   O306    1.307   .     S
C189   C195    1.390   .     A
C189   C214    1.453   .     S
C189   C317    1.399   1_455 S
C190   C194    1.399   .     A
C190   C196    1.387   .     A
C191   C200    1.404   .     A
C191   C317    1.392   1_455 S
C191   H358    1.084   1_455 S
C192   H235    1.084   .     S
C192   C194    1.393   .     A
C192   C201    1.404   .     A
C193   H233    1.083   .     S
C193   C251    1.399   .     S
C193   C253    1.392   .     S
C194   H294    1.082   .     S
C195   H231    1.076   .     S
C195   C197    1.394   .     A
C196   H230    1.078   .     S
C196   C199    1.394   .     A
C197   C202    1.418   .     A
C197   C200    1.419   .     A
C198   O242    1.298   .     A
C198   C213    1.402   .     S
C198   O302    1.295   .     S
C199   C203    1.417   .     A
C199   C201    1.419   .     A
C200   C768    1.388   .     S
C201   C769    1.389   1_554 S
C202   C209    1.419   .     A
C202   C761    1.416   .     S
C203   C208    1.419   .     A
C203   C760    1.416   1_554 S
C204   H223    1.090   .     S
C204   N237    1.454   .     S
C204   C205    1.521   .     S
C204   H222    1.110   .     S
C205   H221    1.111   .     S
C205   H219    1.108   .     S
C205   H220    1.102   .     S
C206   H228    1.091   .     S
C206   C207    1.521   .     S
C206   H229    1.111   .     S
C206   N238    1.454   .     S
C207   H225    1.108   .     S
C207   H227    1.111   .     S
C207   H224    1.103   .     S
C208   C210    1.385   .     A
C208   H236    1.076   .     S
C209   C211    1.386   .     A
C209   H216    1.077   .     S
C210   H215    1.084   .     S
C210   C758    1.388   1_554 S
C211   H226    1.084   .     S
C211   C759    1.389   .     S
C212   C523    1.330   1_455 S
C212   H403    1.085   .     S
C214   O245    1.312   .     A
C214   O367    1.306   1_455 S
H218   C399    1.086   .     S
H232   C318    1.082   1_455 S
H234   C253    1.084   .     S
N237   Zn248   2.054   .     S
N237   N238    1.290   .     D
N238   Zn247   2.054   .     S
O239   Zn247   1.969   .     S
O239   C249    1.295   .     S
O240   Zn248   1.969   .     S
O240   C322    1.295   1_455 S
O241   Zn248   1.975   .     S
O242   Zn247   1.975   .     S
O243   Zn247   1.962   .     S
O243   C276    1.306   .     S
O244   Zn248   1.962   .     S
O244   C312    1.307   1_455 S
O245   Zn248   1.917   .     S
O246   Zn247   1.917   .     S
C249   O303    1.298   .     A
C249   C274    1.402   .     S
C250   C252    1.451   .     S
C250   O308    1.311   .     A
C250   O368    1.307   .     S
C251   C257    1.390   .     A
C251   C276    1.453   .     S
C252   C256    1.399   .     A
C252   C258    1.387   .     A
C253   C262    1.404   .     A
C254   H297    1.084   .     S
C254   C256    1.393   .     A
C254   C263    1.404   .     A
C255   H295    1.083   .     S
C255   C313    1.399   .     S
C255   C315    1.392   .     S
C256   H356    1.082   .     S
C257   H293    1.076   .     S
C257   C259    1.394   .     A
C258   H292    1.078   .     S
C258   C261    1.394   .     A
C259   C264    1.418   .     A
C259   C262    1.419   .     A
C260   O304    1.298   .     A
C260   C275    1.402   .     S
C260   O364    1.295   .     S
C261   C265    1.417   .     A
C261   C263    1.419   .     A
C262   C830    1.388   .     S
C263   C831    1.389   1_554 S
C264   C271    1.419   .     A
C264   C823    1.416   .     S
C265   C270    1.419   .     A
C265   C822    1.416   1_554 S
C266   H285    1.090   .     S
C266   N299    1.454   .     S
C266   C267    1.521   .     S
C266   H284    1.110   .     S
C267   H283    1.111   .     S
C267   H281    1.108   .     S
C267   H282    1.102   .     S
C268   H290    1.091   .     S
C268   C269    1.521   .     S
C268   H291    1.111   .     S
C268   N300    1.454   .     S
C269   H287    1.108   .     S
C269   H289    1.111   .     S
C269   H286    1.103   .     S
C270   C272    1.385   .     A
C270   H298    1.076   .     S
C271   C273    1.386   .     A
C271   H278    1.077   .     S
C272   H277    1.084   .     S
C272   C820    1.388   1_554 S
C273   H288    1.084   .     S
C273   C821    1.389   .     S
C274   C399    1.330   .     S
C274   H465    1.085   .     S
C276   O307    1.312   .     A
H280   C461    1.086   .     S
H296   C315    1.084   .     S
N299   Zn310   2.054   .     S
N299   N300    1.290   .     D
N300   Zn309   2.054   .     S
O301   Zn309   1.969   .     S
O301   C311    1.295   .     S
O302   Zn310   1.969   .     S
O303   Zn310   1.975   .     S
O304   Zn309   1.975   .     S
O305   Zn309   1.962   .     S
O305   C338    1.306   .     S
O306   Zn310   1.962   .     S
O307   Zn310   1.917   .     S
O308   Zn309   1.917   .     S
C311   O365    1.298   .     A
C311   C336    1.402   .     S
C312   C314    1.451   .     S
C312   O370    1.311   .     A
C312   O244    1.307   1_655 S
C313   C319    1.390   .     A
C313   C338    1.453   .     S
C314   C318    1.399   .     A
C314   C320    1.387   .     A
C315   C324    1.404   .     A
C316   H359    1.084   .     S
C316   C318    1.393   .     A
C316   C325    1.404   .     A
C317   H357    1.083   .     S
C317   C189    1.399   1_655 S
C317   C191    1.392   1_655 S
C318   H232    1.082   1_655 S
C319   H355    1.076   .     S
C319   C321    1.394   .     A
C320   H354    1.078   .     S
C320   C323    1.394   .     A
C321   C326    1.418   .     A
C321   C324    1.419   .     A
C322   O366    1.298   .     A
C322   C337    1.402   .     S
C322   O240    1.295   1_655 S
C323   C327    1.417   .     A
C323   C325    1.419   .     A
C324   C892    1.388   .     S
C325   C893    1.389   1_554 S
C326   C333    1.419   .     A
C326   C885    1.416   .     S
C327   C332    1.419   .     A
C327   C884    1.416   1_554 S
C328   H347    1.090   .     S
C328   N361    1.454   .     S
C328   C329    1.521   .     S
C328   H346    1.110   .     S
C329   H345    1.111   .     S
C329   H343    1.108   .     S
C329   H344    1.102   .     S
C330   H352    1.091   .     S
C330   C331    1.521   .     S
C330   H353    1.111   .     S
C330   N362    1.454   .     S
C331   H349    1.108   .     S
C331   H351    1.111   .     S
C331   H348    1.103   .     S
C332   C334    1.385   .     A
C332   H360    1.076   .     S
C333   C335    1.386   .     A
C333   H340    1.077   .     S
C334   H339    1.084   .     S
C334   C882    1.388   1_554 S
C335   H350    1.084   .     S
C335   C883    1.389   .     S
C336   C461    1.330   .     S
C336   H527    1.085   .     S
C337   C26     1.330   1_655 S
C338   O369    1.312   .     A
H342   C523    1.086   .     S
H358   C191    1.084   1_655 S
N361   Zn372   2.054   .     S
N361   N362    1.290   .     D
N362   Zn371   2.054   .     S
O363   Zn371   1.969   .     S
O363   C187    1.295   1_655 S
O364   Zn372   1.969   .     S
O365   Zn372   1.975   .     S
O366   Zn371   1.975   .     S
O367   Zn371   1.962   .     S
O367   C214    1.306   1_655 S
O368   Zn372   1.962   .     S
O369   Zn372   1.917   .     S
O370   Zn371   1.917   .     S
C373   O427    1.298   .     A
C373   C398    1.402   .     S
C373   O549    1.295   1_455 S
C374   C376    1.451   .     S
C374   O432    1.311   .     A
C374   O492    1.307   .     S
C375   C381    1.390   .     A
C375   C400    1.453   .     S
C375   C503    1.399   1_455 S
C376   C380    1.399   .     A
C376   C382    1.387   .     A
C377   C386    1.404   .     A
C377   C503    1.392   1_455 S
C377   H544    1.084   1_455 S
C378   H421    1.084   .     S
C378   C380    1.393   .     A
C378   C387    1.404   .     A
C379   H419    1.083   .     S
C379   C437    1.399   .     S
C379   C439    1.392   .     S
C380   H480    1.082   .     S
C381   H417    1.076   .     S
C381   C383    1.394   .     A
C382   H416    1.078   .     S
C382   C385    1.394   .     A
C383   C388    1.418   .     A
C383   C386    1.419   .     A
C384   O428    1.298   .     A
C384   C399    1.402   .     S
C384   O488    1.295   .     S
C385   C389    1.417   .     A
C385   C387    1.419   .     A
C386   C954    1.388   .     S
C387   C955    1.389   1_554 S
C388   C395    1.419   .     A
C388   C947    1.416   .     S
C389   C394    1.419   .     A
C389   C946    1.416   1_554 S
C390   H409    1.090   .     S
C390   N423    1.454   .     S
C390   C391    1.521   .     S
C390   H408    1.110   .     S
C391   H407    1.111   .     S
C391   H405    1.108   .     S
C391   H406    1.102   .     S
C392   H414    1.091   .     S
C392   C393    1.521   .     S
C392   H415    1.111   .     S
C392   N424    1.454   .     S
C393   H411    1.108   .     S
C393   H413    1.111   .     S
C393   H410    1.103   .     S
C394   C396    1.385   .     A
C394   H422    1.076   .     S
C395   C397    1.386   .     A
C395   H402    1.077   .     S
C396   H401    1.084   .     S
C396   C944    1.388   1_554 S
C397   H412    1.084   .     S
C397   C945    1.389   .     S
C398   C151    1.330   1_465 S
C398   H31     1.085   1_565 S
C400   O431    1.312   .     A
C400   O553    1.306   1_455 S
H404   C27     1.086   1_565 S
H418   C504    1.082   1_455 S
H420   C439    1.084   .     S
N423   Zn434   2.054   .     S
N423   N424    1.290   .     D
N424   Zn433   2.054   .     S
O425   Zn433   1.969   .     S
O425   C435    1.295   .     S
O426   Zn434   1.969   .     S
O426   C508    1.295   1_455 S
O427   Zn434   1.975   .     S
O428   Zn433   1.975   .     S
O429   Zn433   1.962   .     S
O429   C462    1.306   .     S
O430   Zn434   1.962   .     S
O430   C498    1.307   1_455 S
O431   Zn434   1.917   .     S
O432   Zn433   1.917   .     S
C435   O489    1.298   .     A
C435   C460    1.402   .     S
C436   C438    1.451   .     S
C436   O494    1.311   .     A
C436   O554    1.307   .     S
C437   C443    1.390   .     A
C437   C462    1.453   .     S
C438   C442    1.399   .     A
C438   C444    1.387   .     A
C439   C448    1.404   .     A
C440   H483    1.084   .     S
C440   C442    1.393   .     A
C440   C449    1.404   .     A
C441   H481    1.083   .     S
C441   C499    1.399   .     S
C441   C501    1.392   .     S
C442   H542    1.082   .     S
C443   H479    1.076   .     S
C443   C445    1.394   .     A
C444   H478    1.078   .     S
C444   C447    1.394   .     A
C445   C450    1.418   .     A
C445   C448    1.419   .     A
C446   O490    1.298   .     A
C446   C461    1.402   .     S
C446   O550    1.295   .     S
C447   C451    1.417   .     A
C447   C449    1.419   .     A
C448   C1016   1.388   .     S
C449   C1017   1.389   1_554 S
C450   C457    1.419   .     A
C450   C1009   1.416   .     S
C451   C456    1.419   .     A
C451   C1008   1.416   1_554 S
C452   H471    1.090   .     S
C452   N485    1.454   .     S
C452   C453    1.521   .     S
C452   H470    1.110   .     S
C453   H469    1.111   .     S
C453   H467    1.108   .     S
C453   H468    1.102   .     S
C454   H476    1.091   .     S
C454   C455    1.521   .     S
C454   H477    1.111   .     S
C454   N486    1.454   .     S
C455   H473    1.108   .     S
C455   H475    1.111   .     S
C455   H472    1.103   .     S
C456   C458    1.385   .     A
C456   H484    1.076   .     S
C457   C459    1.386   .     A
C457   H464    1.077   .     S
C458   H463    1.084   .     S
C458   C1006   1.388   1_554 S
C459   H474    1.084   .     S
C459   C1007   1.389   .     S
C460   C27     1.330   1_565 S
C460   H93     1.085   1_565 S
C462   O493    1.312   .     A
H466   C89     1.086   1_565 S
H482   C501    1.084   .     S
N485   Zn496   2.054   .     S
N485   N486    1.290   .     D
N486   Zn495   2.054   .     S
O487   Zn495   1.969   .     S
O487   C497    1.295   .     S
O488   Zn496   1.969   .     S
O489   Zn496   1.975   .     S
O490   Zn495   1.975   .     S
O491   Zn495   1.962   .     S
O491   C524    1.306   .     S
O492   Zn496   1.962   .     S
O493   Zn496   1.917   .     S
O494   Zn495   1.917   .     S
C497   O551    1.298   .     A
C497   C522    1.402   .     S
C498   C500    1.451   .     S
C498   O556    1.311   .     A
C498   O430    1.307   1_655 S
C499   C505    1.390   .     A
C499   C524    1.453   .     S
C500   C504    1.399   .     A
C500   C506    1.387   .     A
C501   C510    1.404   .     A
C502   H545    1.084   .     S
C502   C504    1.393   .     A
C502   C511    1.404   .     A
C503   H543    1.083   .     S
C503   C375    1.399   1_655 S
C503   C377    1.392   1_655 S
C504   H418    1.082   1_655 S
C505   H541    1.076   .     S
C505   C507    1.394   .     A
C506   H540    1.078   .     S
C506   C509    1.394   .     A
C507   C512    1.418   .     A
C507   C510    1.419   .     A
C508   O552    1.298   .     A
C508   C523    1.402   .     S
C508   O426    1.295   1_655 S
C509   C513    1.417   .     A
C509   C511    1.419   .     A
C510   C1078   1.388   .     S
C511   C1079   1.389   1_554 S
C512   C519    1.419   .     A
C512   C1071   1.416   .     S
C513   C518    1.419   .     A
C513   C1070   1.416   1_554 S
C514   H533    1.090   .     S
C514   N547    1.454   .     S
C514   C515    1.521   .     S
C514   H532    1.110   .     S
C515   H531    1.111   .     S
C515   H529    1.108   .     S
C515   H530    1.102   .     S
C516   H538    1.091   .     S
C516   C517    1.521   .     S
C516   H539    1.111   .     S
C516   N548    1.454   .     S
C517   H535    1.108   .     S
C517   H537    1.111   .     S
C517   H534    1.103   .     S
C518   C520    1.385   .     A
C518   H546    1.076   .     S
C519   C521    1.386   .     A
C519   H526    1.077   .     S
C520   H525    1.084   .     S
C520   C1068   1.388   1_554 S
C521   H536    1.084   .     S
C521   C1069   1.389   .     S
C522   C89     1.330   1_565 S
C522   H155    1.085   1_565 S
C523   C212    1.330   1_655 S
C524   O555    1.312   .     A
H528   C151    1.086   1_565 S
H544   C377    1.084   1_655 S
N547   Zn558   2.054   .     S
N547   N548    1.290   .     D
N548   Zn557   2.054   .     S
O549   Zn557   1.969   .     S
O549   C373    1.295   1_655 S
O550   Zn558   1.969   .     S
O551   Zn558   1.975   .     S
O552   Zn557   1.975   .     S
O553   Zn557   1.962   .     S
O553   C400    1.306   1_655 S
O554   Zn558   1.962   .     S
O555   Zn558   1.917   .     S
O556   Zn557   1.917   .     S
C559   O613    1.298   .     A
C559   C584    1.402   .     S
C559   O735    1.295   1_455 S
C560   C562    1.451   .     S
C560   O618    1.311   .     A
C560   O678    1.307   .     S
C561   C567    1.390   .     A
C561   C586    1.453   .     S
C561   C689    1.399   1_455 S
C562   C566    1.399   .     A
C562   C568    1.387   .     A
C563   C572    1.404   .     A
C563   C689    1.392   1_455 S
C563   H730    1.084   1_455 S
C564   H607    1.084   .     S
C564   C566    1.393   .     A
C564   C573    1.404   .     A
C565   H605    1.083   .     S
C565   C623    1.399   .     S
C565   C625    1.392   .     S
C566   H666    1.082   .     S
C567   H603    1.076   .     S
C567   C569    1.394   .     A
C568   H602    1.078   .     S
C568   C571    1.394   .     A
C569   C574    1.418   .     A
C569   C572    1.419   .     A
C570   O614    1.298   .     A
C570   C585    1.402   .     S
C570   O674    1.295   .     S
C571   C575    1.417   .     A
C571   C573    1.419   .     A
C572   C24     1.388   1_556 S
C574   C581    1.419   .     A
C574   C17     1.416   1_556 S
C575   C580    1.419   .     A
C576   H595    1.090   .     S
C576   N609    1.454   .     S
C576   C577    1.521   .     S
C576   H594    1.110   .     S
C577   H593    1.111   .     S
C577   H591    1.108   .     S
C577   H592    1.102   .     S
C578   H600    1.091   .     S
C578   C579    1.521   .     S
C578   H601    1.111   .     S
C578   N610    1.454   .     S
C579   H597    1.108   .     S
C579   H599    1.111   .     S
C579   H596    1.103   .     S
C580   C582    1.385   .     A
C580   H608    1.076   .     S
C581   C583    1.386   .     A
C581   H588    1.077   .     S
C582   H587    1.084   .     S
C583   H598    1.084   .     S
C583   C15     1.389   1_556 S
C584   C895    1.330   1_455 S
C584   H775    1.085   .     S
C585   C1018   1.330   1_545 S
C585   H962    1.086   1_545 S
C586   O617    1.312   .     A
C586   O739    1.306   1_455 S
H589   C956    1.085   1_545 S
H590   C771    1.086   .     S
H604   C690    1.082   1_455 S
H606   C625    1.084   .     S
N609   Zn620   2.054   .     S
N609   N610    1.290   .     D
N610   Zn619   2.054   .     S
O611   Zn619   1.969   .     S
O611   C621    1.295   .     S
O612   Zn620   1.969   .     S
O612   C694    1.295   1_455 S
O613   Zn620   1.975   .     S
O614   Zn619   1.975   .     S
O615   Zn619   1.962   .     S
O615   C648    1.306   .     S
O616   Zn620   1.962   .     S
O616   C684    1.307   1_455 S
O617   Zn620   1.917   .     S
O618   Zn619   1.917   .     S
C621   O675    1.298   .     A
C621   C646    1.402   .     S
C622   C624    1.451   .     S
C622   O680    1.311   .     A
C622   O740    1.307   .     S
C623   C629    1.390   .     A
C623   C648    1.453   .     S
C624   C628    1.399   .     A
C624   C630    1.387   .     A
C625   C634    1.404   .     A
C626   H669    1.084   .     S
C626   C628    1.393   .     A
C626   C635    1.404   .     A
C627   H667    1.083   .     S
C627   C685    1.399   .     S
C627   C687    1.392   .     S
C628   H728    1.082   .     S
C629   H665    1.076   .     S
C629   C631    1.394   .     A
C630   H664    1.078   .     S
C630   C633    1.394   .     A
C631   C636    1.418   .     A
C631   C634    1.419   .     A
C632   O676    1.298   .     A
C632   C647    1.402   .     S
C632   O736    1.295   .     S
C633   C637    1.417   .     A
C633   C635    1.419   .     A
C634   C86     1.388   1_556 S
C636   C643    1.419   .     A
C636   C79     1.416   1_556 S
C637   C642    1.419   .     A
C638   H657    1.090   .     S
C638   N671    1.454   .     S
C638   C639    1.521   .     S
C638   H656    1.110   .     S
C639   H655    1.111   .     S
C639   H653    1.108   .     S
C639   H654    1.102   .     S
C640   H662    1.091   .     S
C640   C641    1.521   .     S
C640   H663    1.111   .     S
C640   N672    1.454   .     S
C641   H659    1.108   .     S
C641   H661    1.111   .     S
C641   H658    1.103   .     S
C642   C644    1.385   .     A
C642   H670    1.076   .     S
C643   C645    1.386   .     A
C643   H650    1.077   .     S
C644   H649    1.084   .     S
C645   H660    1.084   .     S
C645   C77     1.389   1_556 S
C646   C771    1.330   .     S
C646   H837    1.085   .     S
C647   C1080   1.330   1_545 S
C647   H1024   1.086   1_545 S
C648   O679    1.312   .     A
H651   C1018   1.085   1_545 S
H652   C833    1.086   .     S
H668   C687    1.084   .     S
N671   Zn682   2.054   .     S
N671   N672    1.290   .     D
N672   Zn681   2.054   .     S
O673   Zn681   1.969   .     S
O673   C683    1.295   .     S
O674   Zn682   1.969   .     S
O675   Zn682   1.975   .     S
O676   Zn681   1.975   .     S
O677   Zn681   1.962   .     S
O677   C710    1.306   .     S
O678   Zn682   1.962   .     S
O679   Zn682   1.917   .     S
O680   Zn681   1.917   .     S
C683   O737    1.298   .     A
C683   C708    1.402   .     S
C684   C686    1.451   .     S
C684   O742    1.311   .     A
C684   O616    1.307   1_655 S
C685   C691    1.390   .     A
C685   C710    1.453   .     S
C686   C690    1.399   .     A
C686   C692    1.387   .     A
C687   C696    1.404   .     A
C688   H731    1.084   .     S
C688   C690    1.393   .     A
C688   C697    1.404   .     A
C689   H729    1.083   .     S
C689   C561    1.399   1_655 S
C689   C563    1.392   1_655 S
C690   H604    1.082   1_655 S
C691   H727    1.076   .     S
C691   C693    1.394   .     A
C692   H726    1.078   .     S
C692   C695    1.394   .     A
C693   C698    1.418   .     A
C693   C696    1.419   .     A
C694   O738    1.298   .     A
C694   C709    1.402   .     S
C694   O612    1.295   1_655 S
C695   C699    1.417   .     A
C695   C697    1.419   .     A
C696   C148    1.388   1_556 S
C698   C705    1.419   .     A
C698   C141    1.416   1_556 S
C699   C704    1.419   .     A
C700   H719    1.090   .     S
C700   N733    1.454   .     S
C700   C701    1.521   .     S
C700   H718    1.110   .     S
C701   H717    1.111   .     S
C701   H715    1.108   .     S
C701   H716    1.102   .     S
C702   H724    1.091   .     S
C702   C703    1.521   .     S
C702   H725    1.111   .     S
C702   N734    1.454   .     S
C703   H721    1.108   .     S
C703   H723    1.111   .     S
C703   H720    1.103   .     S
C704   C706    1.385   .     A
C704   H732    1.076   .     S
C705   C707    1.386   .     A
C705   H712    1.077   .     S
C706   H711    1.084   .     S
C707   H722    1.084   .     S
C707   C139    1.389   1_556 S
C708   C833    1.330   .     S
C708   H899    1.085   .     S
C709   C956    1.330   1_645 S
C709   H1086   1.086   1_545 S
C710   O741    1.312   .     A
H713   C1080   1.085   1_545 S
H714   C895    1.086   .     S
H730   C563    1.084   1_655 S
N733   Zn744   2.054   .     S
N733   N734    1.290   .     D
N734   Zn743   2.054   .     S
O735   Zn743   1.969   .     S
O735   C559    1.295   1_655 S
O736   Zn744   1.969   .     S
O737   Zn744   1.975   .     S
O738   Zn743   1.975   .     S
O739   Zn743   1.962   .     S
O739   C586    1.306   1_655 S
O740   Zn744   1.962   .     S
O741   Zn744   1.917   .     S
O742   Zn743   1.917   .     S
C745   O799    1.298   .     A
C745   C770    1.402   .     S
C745   O921    1.295   1_455 S
C746   C748    1.451   .     S
C746   O804    1.311   .     A
C746   O864    1.307   .     S
C747   C753    1.390   .     A
C747   C772    1.453   .     S
C747   C875    1.399   1_455 S
C748   C752    1.399   .     A
C748   C754    1.387   .     A
C749   C758    1.404   .     A
C749   C875    1.392   1_455 S
C749   H916    1.084   1_455 S
C750   H793    1.084   .     S
C750   C752    1.393   .     A
C750   C759    1.404   .     A
C751   H791    1.083   .     S
C751   C809    1.399   .     S
C751   C811    1.392   .     S
C752   H852    1.082   .     S
C753   H789    1.076   .     S
C753   C755    1.394   .     A
C754   H788    1.078   .     S
C754   C757    1.394   .     A
C755   C760    1.418   .     A
C755   C758    1.419   .     A
C756   O800    1.298   .     A
C756   C771    1.402   .     S
C756   O860    1.295   .     S
C757   C761    1.417   .     A
C757   C759    1.419   .     A
C758   C210    1.388   1_556 S
C760   C767    1.419   .     A
C760   C203    1.416   1_556 S
C761   C766    1.419   .     A
C762   H781    1.090   .     S
C762   N795    1.454   .     S
C762   C763    1.521   .     S
C762   H780    1.110   .     S
C763   H779    1.111   .     S
C763   H777    1.108   .     S
C763   H778    1.102   .     S
C764   H786    1.091   .     S
C764   C765    1.521   .     S
C764   H787    1.111   .     S
C764   N796    1.454   .     S
C765   H783    1.108   .     S
C765   H785    1.111   .     S
C765   H782    1.103   .     S
C766   C768    1.385   .     A
C766   H794    1.076   .     S
C767   C769    1.386   .     A
C767   H774    1.077   .     S
C768   H773    1.084   .     S
C769   H784    1.084   .     S
C769   C201    1.389   1_556 S
C770   C1081   1.330   1_455 S
C770   H961    1.085   .     S
C772   O803    1.312   .     A
C772   O925    1.306   1_455 S
H776   C957    1.086   .     S
H790   C876    1.082   1_455 S
H792   C811    1.084   .     S
N795   Zn806   2.054   .     S
N795   N796    1.290   .     D
N796   Zn805   2.054   .     S
O797   Zn805   1.969   .     S
O797   C807    1.295   .     S
O798   Zn806   1.969   .     S
O798   C880    1.295   1_455 S
O799   Zn806   1.975   .     S
O800   Zn805   1.975   .     S
O801   Zn805   1.962   .     S
O801   C834    1.306   .     S
O802   Zn806   1.962   .     S
O802   C870    1.307   1_455 S
O803   Zn806   1.917   .     S
O804   Zn805   1.917   .     S
C807   O861    1.298   .     A
C807   C832    1.402   .     S
C808   C810    1.451   .     S
C808   O866    1.311   .     A
C808   O926    1.307   .     S
C809   C815    1.390   .     A
C809   C834    1.453   .     S
C810   C814    1.399   .     A
C810   C816    1.387   .     A
C811   C820    1.404   .     A
C812   H855    1.084   .     S
C812   C814    1.393   .     A
C812   C821    1.404   .     A
C813   H853    1.083   .     S
C813   C871    1.399   .     S
C813   C873    1.392   .     S
C814   H914    1.082   .     S
C815   H851    1.076   .     S
C815   C817    1.394   .     A
C816   H850    1.078   .     S
C816   C819    1.394   .     A
C817   C822    1.418   .     A
C817   C820    1.419   .     A
C818   O862    1.298   .     A
C818   C833    1.402   .     S
C818   O922    1.295   .     S
C819   C823    1.417   .     A
C819   C821    1.419   .     A
C820   C272    1.388   1_556 S
C822   C829    1.419   .     A
C822   C265    1.416   1_556 S
C823   C828    1.419   .     A
C824   H843    1.090   .     S
C824   N857    1.454   .     S
C824   C825    1.521   .     S
C824   H842    1.110   .     S
C825   H841    1.111   .     S
C825   H839    1.108   .     S
C825   H840    1.102   .     S
C826   H848    1.091   .     S
C826   C827    1.521   .     S
C826   H849    1.111   .     S
C826   N858    1.454   .     S
C827   H845    1.108   .     S
C827   H847    1.111   .     S
C827   H844    1.103   .     S
C828   C830    1.385   .     A
C828   H856    1.076   .     S
C829   C831    1.386   .     A
C829   H836    1.077   .     S
C830   H835    1.084   .     S
C831   H846    1.084   .     S
C831   C263    1.389   1_556 S
C832   C957    1.330   .     S
C832   H1023   1.085   .     S
C834   O865    1.312   .     A
H838   C1019   1.086   .     S
H854   C873    1.084   .     S
N857   Zn868   2.054   .     S
N857   N858    1.290   .     D
N858   Zn867   2.054   .     S
O859   Zn867   1.969   .     S
O859   C869    1.295   .     S
O860   Zn868   1.969   .     S
O861   Zn868   1.975   .     S
O862   Zn867   1.975   .     S
O863   Zn867   1.962   .     S
O863   C896    1.306   .     S
O864   Zn868   1.962   .     S
O865   Zn868   1.917   .     S
O866   Zn867   1.917   .     S
C869   O923    1.298   .     A
C869   C894    1.402   .     S
C870   C872    1.451   .     S
C870   O928    1.311   .     A
C870   O802    1.307   1_655 S
C871   C877    1.390   .     A
C871   C896    1.453   .     S
C872   C876    1.399   .     A
C872   C878    1.387   .     A
C873   C882    1.404   .     A
C874   H917    1.084   .     S
C874   C876    1.393   .     A
C874   C883    1.404   .     A
C875   H915    1.083   .     S
C875   C747    1.399   1_655 S
C875   C749    1.392   1_655 S
C876   H790    1.082   1_655 S
C877   H913    1.076   .     S
C877   C879    1.394   .     A
C878   H912    1.078   .     S
C878   C881    1.394   .     A
C879   C884    1.418   .     A
C879   C882    1.419   .     A
C880   O924    1.298   .     A
C880   C895    1.402   .     S
C880   O798    1.295   1_655 S
C881   C885    1.417   .     A
C881   C883    1.419   .     A
C882   C334    1.388   1_556 S
C884   C891    1.419   .     A
C884   C327    1.416   1_556 S
C885   C890    1.419   .     A
C886   H905    1.090   .     S
C886   N919    1.454   .     S
C886   C887    1.521   .     S
C886   H904    1.110   .     S
C887   H903    1.111   .     S
C887   H901    1.108   .     S
C887   H902    1.102   .     S
C888   H910    1.091   .     S
C888   C889    1.521   .     S
C888   H911    1.111   .     S
C888   N920    1.454   .     S
C889   H907    1.108   .     S
C889   H909    1.111   .     S
C889   H906    1.103   .     S
C890   C892    1.385   .     A
C890   H918    1.076   .     S
C891   C893    1.386   .     A
C891   H898    1.077   .     S
C892   H897    1.084   .     S
C893   H908    1.084   .     S
C893   C325    1.389   1_556 S
C894   C1019   1.330   .     S
C894   H1085   1.085   .     S
C895   C584    1.330   1_655 S
C896   O927    1.312   .     A
H900   C1081   1.086   .     S
H916   C749    1.084   1_655 S
N919   Zn930   2.054   .     S
N919   N920    1.290   .     D
N920   Zn929   2.054   .     S
O921   Zn929   1.969   .     S
O921   C745    1.295   1_655 S
O922   Zn930   1.969   .     S
O923   Zn930   1.975   .     S
O924   Zn929   1.975   .     S
O925   Zn929   1.962   .     S
O925   C772    1.306   1_655 S
O926   Zn930   1.962   .     S
O927   Zn930   1.917   .     S
O928   Zn929   1.917   .     S
C931   O985    1.298   .     A
C931   C956    1.402   .     S
C931   O1107   1.295   1_455 S
C932   C934    1.451   .     S
C932   O990    1.311   .     A
C932   O1050   1.307   .     S
C933   C939    1.390   .     A
C933   C958    1.453   .     S
C933   C1061   1.399   1_455 S
C934   C938    1.399   .     A
C934   C940    1.387   .     A
C935   C944    1.404   .     A
C935   C1061   1.392   1_455 S
C935   H1102   1.084   1_455 S
C936   H979    1.084   .     S
C936   C938    1.393   .     A
C936   C945    1.404   .     A
C937   H977    1.083   .     S
C937   C995    1.399   .     S
C937   C997    1.392   .     S
C938   H1038   1.082   .     S
C939   H975    1.076   .     S
C939   C941    1.394   .     A
C940   H974    1.078   .     S
C940   C943    1.394   .     A
C941   C946    1.418   .     A
C941   C944    1.419   .     A
C942   O986    1.298   .     A
C942   C957    1.402   .     S
C942   O1046   1.295   .     S
C943   C947    1.417   .     A
C943   C945    1.419   .     A
C944   C396    1.388   1_556 S
C946   C953    1.419   .     A
C946   C389    1.416   1_556 S
C947   C952    1.419   .     A
C948   H967    1.090   .     S
C948   N981    1.454   .     S
C948   C949    1.521   .     S
C948   H966    1.110   .     S
C949   H965    1.111   .     S
C949   H963    1.108   .     S
C949   H964    1.102   .     S
C950   H972    1.091   .     S
C950   C951    1.521   .     S
C950   H973    1.111   .     S
C950   N982    1.454   .     S
C951   H969    1.108   .     S
C951   H971    1.111   .     S
C951   H968    1.103   .     S
C952   C954    1.385   .     A
C952   H980    1.076   .     S
C953   C955    1.386   .     A
C953   H960    1.077   .     S
C954   H959    1.084   .     S
C955   H970    1.084   .     S
C955   C387    1.389   1_556 S
C956   C709    1.330   1_465 S
C956   H589    1.085   1_565 S
C958   O989    1.312   .     A
C958   O1111   1.306   1_455 S
H962   C585    1.086   1_565 S
H976   C1062   1.082   1_455 S
H978   C997    1.084   .     S
N981   Zn992   2.054   .     S
N981   N982    1.290   .     D
N982   Zn991   2.054   .     S
O983   Zn991   1.969   .     S
O983   C993    1.295   .     S
O984   Zn992   1.969   .     S
O984   C1066   1.295   1_455 S
O985   Zn992   1.975   .     S
O986   Zn991   1.975   .     S
O987   Zn991   1.962   .     S
O987   C1020   1.306   .     S
O988   Zn992   1.962   .     S
O988   C1056   1.307   1_455 S
O989   Zn992   1.917   .     S
O990   Zn991   1.917   .     S
C993   O1047   1.298   .     A
C993   C1018   1.402   .     S
C994   C996    1.451   .     S
C994   O1052   1.311   .     A
C994   O1112   1.307   .     S
C995   C1001   1.390   .     A
C995   C1020   1.453   .     S
C996   C1000   1.399   .     A
C996   C1002   1.387   .     A
C997   C1006   1.404   .     A
C998   H1041   1.084   .     S
C998   C1000   1.393   .     A
C998   C1007   1.404   .     A
C999   H1039   1.083   .     S
C999   C1057   1.399   .     S
C999   C1059   1.392   .     S
C1000  H1100   1.082   .     S
C1001  H1037   1.076   .     S
C1001  C1003   1.394   .     A
C1002  H1036   1.078   .     S
C1002  C1005   1.394   .     A
C1003  C1008   1.418   .     A
C1003  C1006   1.419   .     A
C1004  O1048   1.298   .     A
C1004  C1019   1.402   .     S
C1004  O1108   1.295   .     S
C1005  C1009   1.417   .     A
C1005  C1007   1.419   .     A
C1006  C458    1.388   1_556 S
C1008  C1015   1.419   .     A
C1008  C451    1.416   1_556 S
C1009  C1014   1.419   .     A
C1010  H1029   1.090   .     S
C1010  N1043   1.454   .     S
C1010  C1011   1.521   .     S
C1010  H1028   1.110   .     S
C1011  H1027   1.111   .     S
C1011  H1025   1.108   .     S
C1011  H1026   1.102   .     S
C1012  H1034   1.091   .     S
C1012  C1013   1.521   .     S
C1012  H1035   1.111   .     S
C1012  N1044   1.454   .     S
C1013  H1031   1.108   .     S
C1013  H1033   1.111   .     S
C1013  H1030   1.103   .     S
C1014  C1016   1.385   .     A
C1014  H1042   1.076   .     S
C1015  C1017   1.386   .     A
C1015  H1022   1.077   .     S
C1016  H1021   1.084   .     S
C1017  H1032   1.084   .     S
C1017  C449    1.389   1_556 S
C1018  C585    1.330   1_565 S
C1018  H651    1.085   1_565 S
C1020  O1051   1.312   .     A
H1024  C647    1.086   1_565 S
H1040  C1059   1.084   .     S
N1043  Zn1054  2.054   .     S
N1043  N1044   1.290   .     D
N1044  Zn1053  2.054   .     S
O1045  Zn1053  1.969   .     S
O1045  C1055   1.295   .     S
O1046  Zn1054  1.969   .     S
O1047  Zn1054  1.975   .     S
O1048  Zn1053  1.975   .     S
O1049  Zn1053  1.962   .     S
O1049  C1082   1.306   .     S
O1050  Zn1054  1.962   .     S
O1051  Zn1054  1.917   .     S
O1052  Zn1053  1.917   .     S
C1055  O1109   1.298   .     A
C1055  C1080   1.402   .     S
C1056  C1058   1.451   .     S
C1056  O1114   1.311   .     A
C1056  O988    1.307   1_655 S
C1057  C1063   1.390   .     A
C1057  C1082   1.453   .     S
C1058  C1062   1.399   .     A
C1058  C1064   1.387   .     A
C1059  C1068   1.404   .     A
C1060  H1103   1.084   .     S
C1060  C1062   1.393   .     A
C1060  C1069   1.404   .     A
C1061  H1101   1.083   .     S
C1061  C933    1.399   1_655 S
C1061  C935    1.392   1_655 S
C1062  H976    1.082   1_655 S
C1063  H1099   1.076   .     S
C1063  C1065   1.394   .     A
C1064  H1098   1.078   .     S
C1064  C1067   1.394   .     A
C1065  C1070   1.418   .     A
C1065  C1068   1.419   .     A
C1066  O1110   1.298   .     A
C1066  C1081   1.402   .     S
C1066  O984    1.295   1_655 S
C1067  C1071   1.417   .     A
C1067  C1069   1.419   .     A
C1068  C520    1.388   1_556 S
C1070  C1077   1.419   .     A
C1070  C513    1.416   1_556 S
C1071  C1076   1.419   .     A
C1072  H1091   1.090   .     S
C1072  N1105   1.454   .     S
C1072  C1073   1.521   .     S
C1072  H1090   1.110   .     S
C1073  H1089   1.111   .     S
C1073  H1087   1.108   .     S
C1073  H1088   1.102   .     S
C1074  H1096   1.091   .     S
C1074  C1075   1.521   .     S
C1074  H1097   1.111   .     S
C1074  N1106   1.454   .     S
C1075  H1093   1.108   .     S
C1075  H1095   1.111   .     S
C1075  H1092   1.103   .     S
C1076  C1078   1.385   .     A
C1076  H1104   1.076   .     S
C1077  C1079   1.386   .     A
C1077  H1084   1.077   .     S
C1078  H1083   1.084   .     S
C1079  H1094   1.084   .     S
C1079  C511    1.389   1_556 S
C1080  C647    1.330   1_565 S
C1080  H713    1.085   1_565 S
C1081  C770    1.330   1_655 S
C1082  O1113   1.312   .     A
H1086  C709    1.086   1_565 S
H1102  C935    1.084   1_655 S
N1105  Zn1116  2.054   .     S
N1105  N1106   1.290   .     D
N1106  Zn1115  2.054   .     S
O1107  Zn1115  1.969   .     S
O1107  C931    1.295   1_655 S
O1108  Zn1116  1.969   .     S
O1109  Zn1116  1.975   .     S
O1110  Zn1115  1.975   .     S
O1111  Zn1115  1.962   .     S
O1111  C958    1.306   1_655 S
O1112  Zn1116  1.962   .     S
O1113  Zn1116  1.917   .     S
O1114  Zn1115  1.917   .     S
