data_str_m3_o10_o18_pcu_sym.74
_audit_creation_date              2020-01-03
_audit_creation_method            'Materials Studio'
_symmetry_space_group_name_H-M    'P1'
_symmetry_Int_Tables_number       1
_symmetry_cell_setting            triclinic
loop_
_symmetry_equiv_pos_as_xyz
  x,y,z
_cell_length_a                    23.5537
_cell_length_b                    25.6840
_cell_length_c                    27.5751
_cell_angle_alpha                 93.7233
_cell_angle_beta                  92.6841
_cell_angle_gamma                 94.1701
loop_
_atom_site_label
_atom_site_type_symbol
_atom_site_fract_x
_atom_site_fract_y
_atom_site_fract_z
_atom_site_U_iso_or_equiv
_atom_site_adp_type
_atom_site_occupancy
C1     C     0.01504   0.26488   0.24882   0.00000  Uiso   1.00
C2     C     0.31245   0.16265   0.15893   0.00000  Uiso   1.00
C3     C     0.03128   0.17627   0.39363   0.00000  Uiso   1.00
C4     C     0.30205   0.15706   0.10637   0.00000  Uiso   1.00
C5     C     0.01796   0.22104   0.47137   0.00000  Uiso   1.00
C6     C     0.31536   0.11229   0.02863   0.00000  Uiso   1.00
C7     C     0.33099   0.20569   0.42400   0.00000  Uiso   1.00
C8     C     0.00234   0.12764   0.07600   0.00000  Uiso   1.00
C9     C     0.08107   0.15751   0.41230   0.00000  Uiso   1.00
C10    C     0.25226   0.17582   0.08770   0.00000  Uiso   1.00
C11    C     0.10108   0.17035   0.46020   0.00000  Uiso   1.00
C12    C     0.31830   0.06845   0.25118   0.00000  Uiso   1.00
C13    C     0.23224   0.16298   0.03980   0.00000  Uiso   1.00
C14    C     0.07089   0.20593   0.48861   0.00000  Uiso   1.00
C15    C     0.26244   0.12740   0.01140   0.00000  Uiso   1.00
C16    C     0.15374   0.15381   0.47824   0.00000  Uiso   1.00
C17    C     0.17958   0.17952   0.02176   0.00000  Uiso   1.00
C18    C     0.15149   0.22039   0.04583   0.00000  Uiso   1.00
C19    C     0.18183   0.11294   0.45418   0.00000  Uiso   1.00
C20    C     0.09630   0.23007   0.03144   0.00000  Uiso   1.00
C21    C     0.23702   0.10326   0.46857   0.00000  Uiso   1.00
C22    C     0.02286   0.31945   0.24810   0.00000  Uiso   1.00
C23    C     0.31048   0.01388   0.25190   0.00000  Uiso   1.00
C24    C     0.02089   0.17068   0.34107   0.00000  Uiso   1.00
F25    F     0.05155   0.10949   0.09324   0.00000  Uiso   1.00
F26    F     0.28178   0.22385   0.40675   0.00000  Uiso   1.00
F27    F     0.17807   0.25486   0.08043   0.00000  Uiso   1.00
F28    F     0.15523   0.07844   0.41959   0.00000  Uiso   1.00
F29    F     0.16625   0.11469   0.20808   0.00000  Uiso   1.00
F30    F     0.16708   0.21865   0.29192   0.00000  Uiso   1.00
H31    H     0.07539   0.26021   0.05159   0.00000  Uiso   1.00
H32    H     0.25792   0.07311   0.44842   0.00000  Uiso   1.00
H33    H     0.22633   0.19555   0.11299   0.00000  Uiso   1.00
H34    H     0.10700   0.13778   0.38701   0.00000  Uiso   1.00
H35    H     0.32729   0.24707   0.49356   0.00000  Uiso   1.00
H36    H     0.00603   0.08626   0.00644   0.00000  Uiso   1.00
H37    H     0.06593   0.00325   0.24447   0.00000  Uiso   1.00
H38    H     0.26740   0.33008   0.25553   0.00000  Uiso   1.00
N39    N     0.14695   0.15216   0.23740   0.00000  Uiso   1.00
N40    N     0.18638   0.18117   0.26261   0.00000  Uiso   1.00
O41    O     0.29719   0.24631   0.25310   0.00000  Uiso   1.00
O42    O     0.03614   0.08702   0.24691   0.00000  Uiso   1.00
O43    O     0.05822   0.23702   0.24502   0.00000  Uiso   1.00
O44    O     0.27512   0.09632   0.25499   0.00000  Uiso   1.00
O45    O     0.30328   0.17397   0.32247   0.00000  Uiso   1.00
O46    O     0.03005   0.15937   0.17753   0.00000  Uiso   1.00
O47    O     0.06431   0.16467   0.31439   0.00000  Uiso   1.00
O48    O     0.26902   0.16866   0.18561   0.00000  Uiso   1.00
Zn49   Zn    0.27033   0.17287   0.25540   0.00000  Uiso   1.00
Zn50   Zn    0.06300   0.16046   0.24461   0.00000  Uiso   1.00
C51    C     0.34837   0.26488   0.24882   0.00000  Uiso   1.00
C52    C     0.64578   0.16265   0.15893   0.00000  Uiso   1.00
C53    C     0.36461   0.17627   0.39363   0.00000  Uiso   1.00
C54    C     0.63538   0.15706   0.10637   0.00000  Uiso   1.00
C55    C     0.35130   0.22104   0.47137   0.00000  Uiso   1.00
C56    C     0.64870   0.11229   0.02863   0.00000  Uiso   1.00
C57    C     0.66432   0.20569   0.42400   0.00000  Uiso   1.00
C58    C     0.33568   0.12764   0.07600   0.00000  Uiso   1.00
C59    C     0.41440   0.15751   0.41230   0.00000  Uiso   1.00
C60    C     0.58560   0.17582   0.08770   0.00000  Uiso   1.00
C61    C     0.43442   0.17035   0.46020   0.00000  Uiso   1.00
C62    C     0.65163   0.06845   0.25118   0.00000  Uiso   1.00
C63    C     0.56558   0.16298   0.03980   0.00000  Uiso   1.00
C64    C     0.40422   0.20593   0.48861   0.00000  Uiso   1.00
C65    C     0.59577   0.12740   0.01140   0.00000  Uiso   1.00
C66    C     0.48707   0.15381   0.47824   0.00000  Uiso   1.00
C67    C     0.51291   0.17952   0.02176   0.00000  Uiso   1.00
C68    C     0.48482   0.22039   0.04583   0.00000  Uiso   1.00
C69    C     0.51516   0.11294   0.45418   0.00000  Uiso   1.00
C70    C     0.42963   0.23007   0.03144   0.00000  Uiso   1.00
C71    C     0.57035   0.10326   0.46857   0.00000  Uiso   1.00
C72    C     0.35619   0.31945   0.24810   0.00000  Uiso   1.00
C73    C     0.64381   0.01388   0.25190   0.00000  Uiso   1.00
C74    C     0.35422   0.17068   0.34107   0.00000  Uiso   1.00
F75    F     0.38488   0.10949   0.09324   0.00000  Uiso   1.00
F76    F     0.61512   0.22385   0.40675   0.00000  Uiso   1.00
F77    F     0.51140   0.25486   0.08043   0.00000  Uiso   1.00
F78    F     0.48857   0.07844   0.41959   0.00000  Uiso   1.00
F79    F     0.49959   0.11469   0.20808   0.00000  Uiso   1.00
F80    F     0.50042   0.21865   0.29192   0.00000  Uiso   1.00
H81    H     0.40872   0.26021   0.05159   0.00000  Uiso   1.00
H82    H     0.59126   0.07311   0.44842   0.00000  Uiso   1.00
H83    H     0.55967   0.19555   0.11299   0.00000  Uiso   1.00
H84    H     0.44033   0.13778   0.38701   0.00000  Uiso   1.00
H85    H     0.66062   0.24707   0.49356   0.00000  Uiso   1.00
H86    H     0.33937   0.08626   0.00644   0.00000  Uiso   1.00
H87    H     0.39926   0.00325   0.24447   0.00000  Uiso   1.00
H88    H     0.60074   0.33008   0.25553   0.00000  Uiso   1.00
N89    N     0.48029   0.15216   0.23740   0.00000  Uiso   1.00
N90    N     0.51971   0.18117   0.26261   0.00000  Uiso   1.00
O91    O     0.63052   0.24631   0.25310   0.00000  Uiso   1.00
O92    O     0.36948   0.08702   0.24691   0.00000  Uiso   1.00
O93    O     0.39155   0.23702   0.24502   0.00000  Uiso   1.00
O94    O     0.60845   0.09632   0.25499   0.00000  Uiso   1.00
O95    O     0.63662   0.17397   0.32247   0.00000  Uiso   1.00
O96    O     0.36338   0.15937   0.17753   0.00000  Uiso   1.00
O97    O     0.39764   0.16467   0.31439   0.00000  Uiso   1.00
O98    O     0.60236   0.16866   0.18561   0.00000  Uiso   1.00
Zn99   Zn    0.60366   0.17287   0.25540   0.00000  Uiso   1.00
Zn100  Zn    0.39634   0.16046   0.24461   0.00000  Uiso   1.00
C101   C     0.68170   0.26488   0.24882   0.00000  Uiso   1.00
C102   C     0.97911   0.16265   0.15893   0.00000  Uiso   1.00
C103   C     0.69795   0.17627   0.39363   0.00000  Uiso   1.00
C104   C     0.96872   0.15706   0.10637   0.00000  Uiso   1.00
C105   C     0.68463   0.22104   0.47137   0.00000  Uiso   1.00
C106   C     0.98203   0.11229   0.02863   0.00000  Uiso   1.00
C107   C     0.99765   0.20569   0.42400   0.00000  Uiso   1.00
C108   C     0.66901   0.12764   0.07600   0.00000  Uiso   1.00
C109   C     0.74773   0.15751   0.41230   0.00000  Uiso   1.00
C110   C     0.91893   0.17582   0.08770   0.00000  Uiso   1.00
C111   C     0.76775   0.17035   0.46020   0.00000  Uiso   1.00
C112   C     0.98496   0.06845   0.25118   0.00000  Uiso   1.00
C113   C     0.89891   0.16298   0.03980   0.00000  Uiso   1.00
C114   C     0.73755   0.20593   0.48861   0.00000  Uiso   1.00
C115   C     0.92910   0.12740   0.01140   0.00000  Uiso   1.00
C116   C     0.82041   0.15381   0.47824   0.00000  Uiso   1.00
C117   C     0.84625   0.17952   0.02176   0.00000  Uiso   1.00
C118   C     0.81815   0.22039   0.04583   0.00000  Uiso   1.00
C119   C     0.84850   0.11294   0.45418   0.00000  Uiso   1.00
C120   C     0.76297   0.23007   0.03144   0.00000  Uiso   1.00
C121   C     0.90368   0.10326   0.46857   0.00000  Uiso   1.00
C122   C     0.68952   0.31945   0.24810   0.00000  Uiso   1.00
C123   C     0.97714   0.01388   0.25190   0.00000  Uiso   1.00
C124   C     0.68755   0.17068   0.34107   0.00000  Uiso   1.00
F125   F     0.71821   0.10949   0.09324   0.00000  Uiso   1.00
F126   F     0.94845   0.22385   0.40675   0.00000  Uiso   1.00
F127   F     0.84474   0.25486   0.08043   0.00000  Uiso   1.00
F128   F     0.82190   0.07844   0.41959   0.00000  Uiso   1.00
F129   F     0.83292   0.11469   0.20808   0.00000  Uiso   1.00
F130   F     0.83375   0.21865   0.29192   0.00000  Uiso   1.00
H131   H     0.74206   0.26021   0.05159   0.00000  Uiso   1.00
H132   H     0.92459   0.07311   0.44842   0.00000  Uiso   1.00
H133   H     0.89300   0.19555   0.11299   0.00000  Uiso   1.00
H134   H     0.77366   0.13778   0.38701   0.00000  Uiso   1.00
H135   H     0.99396   0.24707   0.49356   0.00000  Uiso   1.00
H136   H     0.67270   0.08626   0.00644   0.00000  Uiso   1.00
H137   H     0.73260   0.00325   0.24447   0.00000  Uiso   1.00
H138   H     0.93407   0.33008   0.25553   0.00000  Uiso   1.00
N139   N     0.81362   0.15216   0.23740   0.00000  Uiso   1.00
N140   N     0.85305   0.18117   0.26261   0.00000  Uiso   1.00
O141   O     0.96386   0.24631   0.25310   0.00000  Uiso   1.00
O142   O     0.70281   0.08702   0.24691   0.00000  Uiso   1.00
O143   O     0.72488   0.23702   0.24502   0.00000  Uiso   1.00
O144   O     0.94178   0.09632   0.25499   0.00000  Uiso   1.00
O145   O     0.96995   0.17397   0.32247   0.00000  Uiso   1.00
O146   O     0.69672   0.15937   0.17753   0.00000  Uiso   1.00
O147   O     0.73098   0.16467   0.31439   0.00000  Uiso   1.00
O148   O     0.93569   0.16866   0.18561   0.00000  Uiso   1.00
Zn149  Zn    0.93700   0.17287   0.25540   0.00000  Uiso   1.00
Zn150  Zn    0.72967   0.16046   0.24461   0.00000  Uiso   1.00
C151   C     0.01504   0.59821   0.24882   0.00000  Uiso   1.00
C152   C     0.31245   0.49599   0.15893   0.00000  Uiso   1.00
C153   C     0.03128   0.50961   0.39363   0.00000  Uiso   1.00
C154   C     0.30205   0.49040   0.10637   0.00000  Uiso   1.00
C155   C     0.01796   0.55437   0.47137   0.00000  Uiso   1.00
C156   C     0.31536   0.44563   0.02863   0.00000  Uiso   1.00
C157   C     0.33099   0.53903   0.42400   0.00000  Uiso   1.00
C158   C     0.00234   0.46098   0.07600   0.00000  Uiso   1.00
C159   C     0.08107   0.49084   0.41230   0.00000  Uiso   1.00
C160   C     0.25226   0.50916   0.08770   0.00000  Uiso   1.00
C161   C     0.10108   0.50368   0.46020   0.00000  Uiso   1.00
C162   C     0.31830   0.40179   0.25118   0.00000  Uiso   1.00
C163   C     0.23224   0.49631   0.03980   0.00000  Uiso   1.00
C164   C     0.07089   0.53927   0.48861   0.00000  Uiso   1.00
C165   C     0.26244   0.46073   0.01140   0.00000  Uiso   1.00
C166   C     0.15374   0.48714   0.47824   0.00000  Uiso   1.00
C167   C     0.17958   0.51286   0.02176   0.00000  Uiso   1.00
C168   C     0.15149   0.55372   0.04583   0.00000  Uiso   1.00
C169   C     0.18183   0.44627   0.45418   0.00000  Uiso   1.00
C170   C     0.09630   0.56340   0.03144   0.00000  Uiso   1.00
C171   C     0.23702   0.43659   0.46857   0.00000  Uiso   1.00
C172   C     0.02286   0.65279   0.24810   0.00000  Uiso   1.00
C173   C     0.31048   0.34721   0.25190   0.00000  Uiso   1.00
C174   C     0.02089   0.50401   0.34107   0.00000  Uiso   1.00
F175   F     0.05155   0.44282   0.09324   0.00000  Uiso   1.00
F176   F     0.28178   0.55718   0.40675   0.00000  Uiso   1.00
F177   F     0.17807   0.58820   0.08043   0.00000  Uiso   1.00
F178   F     0.15523   0.41178   0.41959   0.00000  Uiso   1.00
F179   F     0.16625   0.44802   0.20808   0.00000  Uiso   1.00
F180   F     0.16708   0.55198   0.29192   0.00000  Uiso   1.00
H181   H     0.07539   0.59354   0.05159   0.00000  Uiso   1.00
H182   H     0.25792   0.40644   0.44842   0.00000  Uiso   1.00
H183   H     0.22633   0.52888   0.11299   0.00000  Uiso   1.00
H184   H     0.10700   0.47111   0.38701   0.00000  Uiso   1.00
H185   H     0.32729   0.58040   0.49356   0.00000  Uiso   1.00
H186   H     0.00603   0.41960   0.00644   0.00000  Uiso   1.00
H187   H     0.06593   0.33659   0.24447   0.00000  Uiso   1.00
H188   H     0.26740   0.66341   0.25553   0.00000  Uiso   1.00
N189   N     0.14695   0.48550   0.23740   0.00000  Uiso   1.00
N190   N     0.18638   0.51450   0.26261   0.00000  Uiso   1.00
O191   O     0.29719   0.57964   0.25310   0.00000  Uiso   1.00
O192   O     0.03614   0.42036   0.24691   0.00000  Uiso   1.00
O193   O     0.05822   0.57035   0.24502   0.00000  Uiso   1.00
O194   O     0.27512   0.42965   0.25499   0.00000  Uiso   1.00
O195   O     0.30328   0.50730   0.32247   0.00000  Uiso   1.00
O196   O     0.03005   0.49270   0.17753   0.00000  Uiso   1.00
O197   O     0.06431   0.49801   0.31439   0.00000  Uiso   1.00
O198   O     0.26902   0.50199   0.18561   0.00000  Uiso   1.00
Zn199  Zn    0.27033   0.50621   0.25540   0.00000  Uiso   1.00
Zn200  Zn    0.06300   0.49379   0.24461   0.00000  Uiso   1.00
C201   C     0.34837   0.59821   0.24882   0.00000  Uiso   1.00
C202   C     0.64578   0.49599   0.15893   0.00000  Uiso   1.00
C203   C     0.36461   0.50961   0.39363   0.00000  Uiso   1.00
C204   C     0.63538   0.49040   0.10637   0.00000  Uiso   1.00
C205   C     0.35130   0.55437   0.47137   0.00000  Uiso   1.00
C206   C     0.64870   0.44563   0.02863   0.00000  Uiso   1.00
C207   C     0.66432   0.53903   0.42400   0.00000  Uiso   1.00
C208   C     0.33568   0.46098   0.07600   0.00000  Uiso   1.00
C209   C     0.41440   0.49084   0.41230   0.00000  Uiso   1.00
C210   C     0.58560   0.50916   0.08770   0.00000  Uiso   1.00
C211   C     0.43442   0.50368   0.46020   0.00000  Uiso   1.00
C212   C     0.65163   0.40179   0.25118   0.00000  Uiso   1.00
C213   C     0.56558   0.49631   0.03980   0.00000  Uiso   1.00
C214   C     0.40422   0.53927   0.48861   0.00000  Uiso   1.00
C215   C     0.59577   0.46073   0.01140   0.00000  Uiso   1.00
C216   C     0.48707   0.48714   0.47824   0.00000  Uiso   1.00
C217   C     0.51291   0.51286   0.02176   0.00000  Uiso   1.00
C218   C     0.48482   0.55372   0.04583   0.00000  Uiso   1.00
C219   C     0.51516   0.44627   0.45418   0.00000  Uiso   1.00
C220   C     0.42963   0.56340   0.03144   0.00000  Uiso   1.00
C221   C     0.57035   0.43659   0.46857   0.00000  Uiso   1.00
C222   C     0.35619   0.65279   0.24810   0.00000  Uiso   1.00
C223   C     0.64381   0.34721   0.25190   0.00000  Uiso   1.00
C224   C     0.35422   0.50401   0.34107   0.00000  Uiso   1.00
F225   F     0.38488   0.44282   0.09324   0.00000  Uiso   1.00
F226   F     0.61512   0.55718   0.40675   0.00000  Uiso   1.00
F227   F     0.51140   0.58820   0.08043   0.00000  Uiso   1.00
F228   F     0.48857   0.41178   0.41959   0.00000  Uiso   1.00
F229   F     0.49959   0.44802   0.20808   0.00000  Uiso   1.00
F230   F     0.50042   0.55198   0.29192   0.00000  Uiso   1.00
H231   H     0.40872   0.59354   0.05159   0.00000  Uiso   1.00
H232   H     0.59126   0.40644   0.44842   0.00000  Uiso   1.00
H233   H     0.55967   0.52888   0.11299   0.00000  Uiso   1.00
H234   H     0.44033   0.47111   0.38701   0.00000  Uiso   1.00
H235   H     0.66062   0.58040   0.49356   0.00000  Uiso   1.00
H236   H     0.33937   0.41960   0.00644   0.00000  Uiso   1.00
H237   H     0.39926   0.33659   0.24447   0.00000  Uiso   1.00
H238   H     0.60074   0.66341   0.25553   0.00000  Uiso   1.00
N239   N     0.48029   0.48550   0.23740   0.00000  Uiso   1.00
N240   N     0.51971   0.51450   0.26261   0.00000  Uiso   1.00
O241   O     0.63052   0.57964   0.25310   0.00000  Uiso   1.00
O242   O     0.36948   0.42036   0.24691   0.00000  Uiso   1.00
O243   O     0.39155   0.57035   0.24502   0.00000  Uiso   1.00
O244   O     0.60845   0.42965   0.25499   0.00000  Uiso   1.00
O245   O     0.63662   0.50730   0.32247   0.00000  Uiso   1.00
O246   O     0.36338   0.49270   0.17753   0.00000  Uiso   1.00
O247   O     0.39764   0.49801   0.31439   0.00000  Uiso   1.00
O248   O     0.60236   0.50199   0.18561   0.00000  Uiso   1.00
Zn249  Zn    0.60366   0.50621   0.25540   0.00000  Uiso   1.00
Zn250  Zn    0.39634   0.49379   0.24461   0.00000  Uiso   1.00
C251   C     0.68170   0.59821   0.24882   0.00000  Uiso   1.00
C252   C     0.97911   0.49599   0.15893   0.00000  Uiso   1.00
C253   C     0.69795   0.50961   0.39363   0.00000  Uiso   1.00
C254   C     0.96872   0.49040   0.10637   0.00000  Uiso   1.00
C255   C     0.68463   0.55437   0.47137   0.00000  Uiso   1.00
C256   C     0.98203   0.44563   0.02863   0.00000  Uiso   1.00
C257   C     0.99765   0.53903   0.42400   0.00000  Uiso   1.00
C258   C     0.66901   0.46098   0.07600   0.00000  Uiso   1.00
C259   C     0.74773   0.49084   0.41230   0.00000  Uiso   1.00
C260   C     0.91893   0.50916   0.08770   0.00000  Uiso   1.00
C261   C     0.76775   0.50368   0.46020   0.00000  Uiso   1.00
C262   C     0.98496   0.40179   0.25118   0.00000  Uiso   1.00
C263   C     0.89891   0.49631   0.03980   0.00000  Uiso   1.00
C264   C     0.73755   0.53927   0.48861   0.00000  Uiso   1.00
C265   C     0.92910   0.46073   0.01140   0.00000  Uiso   1.00
C266   C     0.82041   0.48714   0.47824   0.00000  Uiso   1.00
C267   C     0.84625   0.51286   0.02176   0.00000  Uiso   1.00
C268   C     0.81815   0.55372   0.04583   0.00000  Uiso   1.00
C269   C     0.84850   0.44627   0.45418   0.00000  Uiso   1.00
C270   C     0.76297   0.56340   0.03144   0.00000  Uiso   1.00
C271   C     0.90368   0.43659   0.46857   0.00000  Uiso   1.00
C272   C     0.68952   0.65279   0.24810   0.00000  Uiso   1.00
C273   C     0.97714   0.34721   0.25190   0.00000  Uiso   1.00
C274   C     0.68755   0.50401   0.34107   0.00000  Uiso   1.00
F275   F     0.71821   0.44282   0.09324   0.00000  Uiso   1.00
F276   F     0.94845   0.55718   0.40675   0.00000  Uiso   1.00
F277   F     0.84474   0.58820   0.08043   0.00000  Uiso   1.00
F278   F     0.82190   0.41178   0.41959   0.00000  Uiso   1.00
F279   F     0.83292   0.44802   0.20808   0.00000  Uiso   1.00
F280   F     0.83375   0.55198   0.29192   0.00000  Uiso   1.00
H281   H     0.74206   0.59354   0.05159   0.00000  Uiso   1.00
H282   H     0.92459   0.40644   0.44842   0.00000  Uiso   1.00
H283   H     0.89300   0.52888   0.11299   0.00000  Uiso   1.00
H284   H     0.77366   0.47111   0.38701   0.00000  Uiso   1.00
H285   H     0.99396   0.58040   0.49356   0.00000  Uiso   1.00
H286   H     0.67270   0.41960   0.00644   0.00000  Uiso   1.00
H287   H     0.73260   0.33659   0.24447   0.00000  Uiso   1.00
H288   H     0.93407   0.66341   0.25553   0.00000  Uiso   1.00
N289   N     0.81362   0.48550   0.23740   0.00000  Uiso   1.00
N290   N     0.85305   0.51450   0.26261   0.00000  Uiso   1.00
O291   O     0.96386   0.57964   0.25310   0.00000  Uiso   1.00
O292   O     0.70281   0.42036   0.24691   0.00000  Uiso   1.00
O293   O     0.72488   0.57035   0.24502   0.00000  Uiso   1.00
O294   O     0.94178   0.42965   0.25499   0.00000  Uiso   1.00
O295   O     0.96995   0.50730   0.32247   0.00000  Uiso   1.00
O296   O     0.69672   0.49270   0.17753   0.00000  Uiso   1.00
O297   O     0.73098   0.49801   0.31439   0.00000  Uiso   1.00
O298   O     0.93569   0.50199   0.18561   0.00000  Uiso   1.00
Zn299  Zn    0.93700   0.50621   0.25540   0.00000  Uiso   1.00
Zn300  Zn    0.72967   0.49379   0.24461   0.00000  Uiso   1.00
C301   C     0.01504   0.93155   0.24882   0.00000  Uiso   1.00
C302   C     0.31245   0.82932   0.15893   0.00000  Uiso   1.00
C303   C     0.03128   0.84294   0.39363   0.00000  Uiso   1.00
C304   C     0.30205   0.82373   0.10637   0.00000  Uiso   1.00
C305   C     0.01796   0.88771   0.47137   0.00000  Uiso   1.00
C306   C     0.31536   0.77896   0.02863   0.00000  Uiso   1.00
C307   C     0.33099   0.87236   0.42400   0.00000  Uiso   1.00
C308   C     0.00234   0.79431   0.07600   0.00000  Uiso   1.00
C309   C     0.08107   0.82417   0.41230   0.00000  Uiso   1.00
C310   C     0.25226   0.84249   0.08770   0.00000  Uiso   1.00
C311   C     0.10108   0.83702   0.46020   0.00000  Uiso   1.00
C312   C     0.31830   0.73512   0.25118   0.00000  Uiso   1.00
C313   C     0.23224   0.82965   0.03980   0.00000  Uiso   1.00
C314   C     0.07089   0.87260   0.48861   0.00000  Uiso   1.00
C315   C     0.26244   0.79407   0.01140   0.00000  Uiso   1.00
C316   C     0.15374   0.82047   0.47824   0.00000  Uiso   1.00
C317   C     0.17958   0.84619   0.02176   0.00000  Uiso   1.00
C318   C     0.15149   0.88705   0.04583   0.00000  Uiso   1.00
C319   C     0.18183   0.77960   0.45418   0.00000  Uiso   1.00
C320   C     0.09630   0.89673   0.03144   0.00000  Uiso   1.00
C321   C     0.23702   0.76993   0.46857   0.00000  Uiso   1.00
C322   C     0.02286   0.98612   0.24810   0.00000  Uiso   1.00
C323   C     0.31048   0.68055   0.25190   0.00000  Uiso   1.00
C324   C     0.02089   0.83735   0.34107   0.00000  Uiso   1.00
F325   F     0.05155   0.77615   0.09324   0.00000  Uiso   1.00
F326   F     0.28178   0.89052   0.40675   0.00000  Uiso   1.00
F327   F     0.17807   0.92153   0.08043   0.00000  Uiso   1.00
F328   F     0.15523   0.74511   0.41959   0.00000  Uiso   1.00
F329   F     0.16625   0.78135   0.20808   0.00000  Uiso   1.00
F330   F     0.16708   0.88531   0.29192   0.00000  Uiso   1.00
H331   H     0.07539   0.92688   0.05159   0.00000  Uiso   1.00
H332   H     0.25792   0.73978   0.44842   0.00000  Uiso   1.00
H333   H     0.22633   0.86222   0.11299   0.00000  Uiso   1.00
H334   H     0.10700   0.80444   0.38701   0.00000  Uiso   1.00
H335   H     0.32729   0.91374   0.49356   0.00000  Uiso   1.00
H336   H     0.00603   0.75293   0.00644   0.00000  Uiso   1.00
H337   H     0.06593   0.66992   0.24447   0.00000  Uiso   1.00
H338   H     0.26740   0.99675   0.25553   0.00000  Uiso   1.00
N339   N     0.14695   0.81883   0.23740   0.00000  Uiso   1.00
N340   N     0.18638   0.84784   0.26261   0.00000  Uiso   1.00
O341   O     0.29719   0.91298   0.25310   0.00000  Uiso   1.00
O342   O     0.03614   0.75369   0.24691   0.00000  Uiso   1.00
O343   O     0.05822   0.90368   0.24502   0.00000  Uiso   1.00
O344   O     0.27512   0.76298   0.25499   0.00000  Uiso   1.00
O345   O     0.30328   0.84063   0.32247   0.00000  Uiso   1.00
O346   O     0.03005   0.82603   0.17753   0.00000  Uiso   1.00
O347   O     0.06431   0.83134   0.31439   0.00000  Uiso   1.00
O348   O     0.26902   0.83533   0.18561   0.00000  Uiso   1.00
Zn349  Zn    0.27033   0.83954   0.25540   0.00000  Uiso   1.00
Zn350  Zn    0.06300   0.82713   0.24461   0.00000  Uiso   1.00
C351   C     0.34837   0.93155   0.24882   0.00000  Uiso   1.00
C352   C     0.64578   0.82932   0.15893   0.00000  Uiso   1.00
C353   C     0.36461   0.84294   0.39363   0.00000  Uiso   1.00
C354   C     0.63538   0.82373   0.10637   0.00000  Uiso   1.00
C355   C     0.35130   0.88771   0.47137   0.00000  Uiso   1.00
C356   C     0.64870   0.77896   0.02863   0.00000  Uiso   1.00
C357   C     0.66432   0.87236   0.42400   0.00000  Uiso   1.00
C358   C     0.33568   0.79431   0.07600   0.00000  Uiso   1.00
C359   C     0.41440   0.82417   0.41230   0.00000  Uiso   1.00
C360   C     0.58560   0.84249   0.08770   0.00000  Uiso   1.00
C361   C     0.43442   0.83702   0.46020   0.00000  Uiso   1.00
C362   C     0.65163   0.73512   0.25118   0.00000  Uiso   1.00
C363   C     0.56558   0.82965   0.03980   0.00000  Uiso   1.00
C364   C     0.40422   0.87260   0.48861   0.00000  Uiso   1.00
C365   C     0.59577   0.79407   0.01140   0.00000  Uiso   1.00
C366   C     0.48707   0.82047   0.47824   0.00000  Uiso   1.00
C367   C     0.51291   0.84619   0.02176   0.00000  Uiso   1.00
C368   C     0.48482   0.88705   0.04583   0.00000  Uiso   1.00
C369   C     0.51516   0.77960   0.45418   0.00000  Uiso   1.00
C370   C     0.42963   0.89673   0.03144   0.00000  Uiso   1.00
C371   C     0.57035   0.76993   0.46857   0.00000  Uiso   1.00
C372   C     0.35619   0.98612   0.24810   0.00000  Uiso   1.00
C373   C     0.64381   0.68055   0.25190   0.00000  Uiso   1.00
C374   C     0.35422   0.83735   0.34107   0.00000  Uiso   1.00
F375   F     0.38488   0.77615   0.09324   0.00000  Uiso   1.00
F376   F     0.61512   0.89052   0.40675   0.00000  Uiso   1.00
F377   F     0.51140   0.92153   0.08043   0.00000  Uiso   1.00
F378   F     0.48857   0.74511   0.41959   0.00000  Uiso   1.00
F379   F     0.49959   0.78135   0.20808   0.00000  Uiso   1.00
F380   F     0.50042   0.88531   0.29192   0.00000  Uiso   1.00
H381   H     0.40872   0.92688   0.05159   0.00000  Uiso   1.00
H382   H     0.59126   0.73978   0.44842   0.00000  Uiso   1.00
H383   H     0.55967   0.86222   0.11299   0.00000  Uiso   1.00
H384   H     0.44033   0.80444   0.38701   0.00000  Uiso   1.00
H385   H     0.66062   0.91374   0.49356   0.00000  Uiso   1.00
H386   H     0.33937   0.75293   0.00644   0.00000  Uiso   1.00
H387   H     0.39926   0.66992   0.24447   0.00000  Uiso   1.00
H388   H     0.60074   0.99675   0.25553   0.00000  Uiso   1.00
N389   N     0.48029   0.81883   0.23740   0.00000  Uiso   1.00
N390   N     0.51971   0.84784   0.26261   0.00000  Uiso   1.00
O391   O     0.63052   0.91298   0.25310   0.00000  Uiso   1.00
O392   O     0.36948   0.75369   0.24691   0.00000  Uiso   1.00
O393   O     0.39155   0.90368   0.24502   0.00000  Uiso   1.00
O394   O     0.60845   0.76298   0.25499   0.00000  Uiso   1.00
O395   O     0.63662   0.84063   0.32247   0.00000  Uiso   1.00
O396   O     0.36338   0.82603   0.17753   0.00000  Uiso   1.00
O397   O     0.39764   0.83134   0.31439   0.00000  Uiso   1.00
O398   O     0.60236   0.83533   0.18561   0.00000  Uiso   1.00
Zn399  Zn    0.60366   0.83954   0.25540   0.00000  Uiso   1.00
Zn400  Zn    0.39634   0.82713   0.24461   0.00000  Uiso   1.00
C401   C     0.68170   0.93155   0.24882   0.00000  Uiso   1.00
C402   C     0.97911   0.82932   0.15893   0.00000  Uiso   1.00
C403   C     0.69795   0.84294   0.39363   0.00000  Uiso   1.00
C404   C     0.96872   0.82373   0.10637   0.00000  Uiso   1.00
C405   C     0.68463   0.88771   0.47137   0.00000  Uiso   1.00
C406   C     0.98203   0.77896   0.02863   0.00000  Uiso   1.00
C407   C     0.99765   0.87236   0.42400   0.00000  Uiso   1.00
C408   C     0.66901   0.79431   0.07600   0.00000  Uiso   1.00
C409   C     0.74773   0.82417   0.41230   0.00000  Uiso   1.00
C410   C     0.91893   0.84249   0.08770   0.00000  Uiso   1.00
C411   C     0.76775   0.83702   0.46020   0.00000  Uiso   1.00
C412   C     0.98496   0.73512   0.25118   0.00000  Uiso   1.00
C413   C     0.89891   0.82965   0.03980   0.00000  Uiso   1.00
C414   C     0.73755   0.87260   0.48861   0.00000  Uiso   1.00
C415   C     0.92910   0.79407   0.01140   0.00000  Uiso   1.00
C416   C     0.82041   0.82047   0.47824   0.00000  Uiso   1.00
C417   C     0.84625   0.84619   0.02176   0.00000  Uiso   1.00
C418   C     0.81815   0.88705   0.04583   0.00000  Uiso   1.00
C419   C     0.84850   0.77960   0.45418   0.00000  Uiso   1.00
C420   C     0.76297   0.89673   0.03144   0.00000  Uiso   1.00
C421   C     0.90368   0.76993   0.46857   0.00000  Uiso   1.00
C422   C     0.68952   0.98612   0.24810   0.00000  Uiso   1.00
C423   C     0.97714   0.68055   0.25190   0.00000  Uiso   1.00
C424   C     0.68755   0.83735   0.34107   0.00000  Uiso   1.00
F425   F     0.71821   0.77615   0.09324   0.00000  Uiso   1.00
F426   F     0.94845   0.89052   0.40675   0.00000  Uiso   1.00
F427   F     0.84474   0.92153   0.08043   0.00000  Uiso   1.00
F428   F     0.82190   0.74511   0.41959   0.00000  Uiso   1.00
F429   F     0.83292   0.78135   0.20808   0.00000  Uiso   1.00
F430   F     0.83375   0.88531   0.29192   0.00000  Uiso   1.00
H431   H     0.74206   0.92688   0.05159   0.00000  Uiso   1.00
H432   H     0.92459   0.73978   0.44842   0.00000  Uiso   1.00
H433   H     0.89300   0.86222   0.11299   0.00000  Uiso   1.00
H434   H     0.77366   0.80444   0.38701   0.00000  Uiso   1.00
H435   H     0.99396   0.91374   0.49356   0.00000  Uiso   1.00
H436   H     0.67270   0.75293   0.00644   0.00000  Uiso   1.00
H437   H     0.73260   0.66992   0.24447   0.00000  Uiso   1.00
H438   H     0.93407   0.99675   0.25553   0.00000  Uiso   1.00
N439   N     0.81362   0.81883   0.23740   0.00000  Uiso   1.00
N440   N     0.85305   0.84784   0.26261   0.00000  Uiso   1.00
O441   O     0.96386   0.91298   0.25310   0.00000  Uiso   1.00
O442   O     0.70281   0.75369   0.24691   0.00000  Uiso   1.00
O443   O     0.72488   0.90368   0.24502   0.00000  Uiso   1.00
O444   O     0.94178   0.76298   0.25499   0.00000  Uiso   1.00
O445   O     0.96995   0.84063   0.32247   0.00000  Uiso   1.00
O446   O     0.69672   0.82603   0.17753   0.00000  Uiso   1.00
O447   O     0.73098   0.83134   0.31439   0.00000  Uiso   1.00
O448   O     0.93569   0.83533   0.18561   0.00000  Uiso   1.00
Zn449  Zn    0.93700   0.83954   0.25540   0.00000  Uiso   1.00
Zn450  Zn    0.72967   0.82713   0.24461   0.00000  Uiso   1.00
C451   C     0.01504   0.26488   0.74882   0.00000  Uiso   1.00
C452   C     0.31245   0.16265   0.65893   0.00000  Uiso   1.00
C453   C     0.03128   0.17627   0.89363   0.00000  Uiso   1.00
C454   C     0.30205   0.15706   0.60637   0.00000  Uiso   1.00
C455   C     0.01796   0.22104   0.97137   0.00000  Uiso   1.00
C456   C     0.31536   0.11229   0.52863   0.00000  Uiso   1.00
C457   C     0.33099   0.20569   0.92400   0.00000  Uiso   1.00
C458   C     0.00234   0.12764   0.57600   0.00000  Uiso   1.00
C459   C     0.08107   0.15751   0.91230   0.00000  Uiso   1.00
C460   C     0.25226   0.17582   0.58770   0.00000  Uiso   1.00
C461   C     0.10108   0.17035   0.96020   0.00000  Uiso   1.00
C462   C     0.31830   0.06845   0.75118   0.00000  Uiso   1.00
C463   C     0.23224   0.16298   0.53980   0.00000  Uiso   1.00
C464   C     0.07089   0.20593   0.98861   0.00000  Uiso   1.00
C465   C     0.26244   0.12740   0.51140   0.00000  Uiso   1.00
C466   C     0.15374   0.15381   0.97824   0.00000  Uiso   1.00
C467   C     0.17958   0.17952   0.52176   0.00000  Uiso   1.00
C468   C     0.15149   0.22039   0.54583   0.00000  Uiso   1.00
C469   C     0.18183   0.11294   0.95418   0.00000  Uiso   1.00
C470   C     0.09630   0.23007   0.53144   0.00000  Uiso   1.00
C471   C     0.23702   0.10326   0.96857   0.00000  Uiso   1.00
C472   C     0.02286   0.31945   0.74810   0.00000  Uiso   1.00
C473   C     0.31048   0.01388   0.75190   0.00000  Uiso   1.00
C474   C     0.02089   0.17068   0.84107   0.00000  Uiso   1.00
F475   F     0.05155   0.10949   0.59324   0.00000  Uiso   1.00
F476   F     0.28178   0.22385   0.90675   0.00000  Uiso   1.00
F477   F     0.17807   0.25486   0.58043   0.00000  Uiso   1.00
F478   F     0.15523   0.07844   0.91959   0.00000  Uiso   1.00
F479   F     0.16625   0.11469   0.70808   0.00000  Uiso   1.00
F480   F     0.16708   0.21865   0.79192   0.00000  Uiso   1.00
H481   H     0.07539   0.26021   0.55159   0.00000  Uiso   1.00
H482   H     0.25792   0.07311   0.94842   0.00000  Uiso   1.00
H483   H     0.22633   0.19555   0.61299   0.00000  Uiso   1.00
H484   H     0.10700   0.13778   0.88701   0.00000  Uiso   1.00
H485   H     0.32729   0.24707   0.99356   0.00000  Uiso   1.00
H486   H     0.00603   0.08626   0.50644   0.00000  Uiso   1.00
H487   H     0.06593   0.00325   0.74447   0.00000  Uiso   1.00
H488   H     0.26740   0.33008   0.75553   0.00000  Uiso   1.00
N489   N     0.14695   0.15216   0.73740   0.00000  Uiso   1.00
N490   N     0.18638   0.18117   0.76261   0.00000  Uiso   1.00
O491   O     0.29719   0.24631   0.75310   0.00000  Uiso   1.00
O492   O     0.03614   0.08702   0.74691   0.00000  Uiso   1.00
O493   O     0.05822   0.23702   0.74502   0.00000  Uiso   1.00
O494   O     0.27512   0.09632   0.75499   0.00000  Uiso   1.00
O495   O     0.30328   0.17397   0.82247   0.00000  Uiso   1.00
O496   O     0.03005   0.15937   0.67753   0.00000  Uiso   1.00
O497   O     0.06431   0.16467   0.81439   0.00000  Uiso   1.00
O498   O     0.26902   0.16866   0.68561   0.00000  Uiso   1.00
Zn499  Zn    0.27033   0.17287   0.75540   0.00000  Uiso   1.00
Zn500  Zn    0.06300   0.16046   0.74461   0.00000  Uiso   1.00
C501   C     0.34837   0.26488   0.74882   0.00000  Uiso   1.00
C502   C     0.64578   0.16265   0.65893   0.00000  Uiso   1.00
C503   C     0.36461   0.17627   0.89363   0.00000  Uiso   1.00
C504   C     0.63538   0.15706   0.60637   0.00000  Uiso   1.00
C505   C     0.35130   0.22104   0.97137   0.00000  Uiso   1.00
C506   C     0.64870   0.11229   0.52863   0.00000  Uiso   1.00
C507   C     0.66432   0.20569   0.92400   0.00000  Uiso   1.00
C508   C     0.33568   0.12764   0.57600   0.00000  Uiso   1.00
C509   C     0.41440   0.15751   0.91230   0.00000  Uiso   1.00
C510   C     0.58560   0.17582   0.58770   0.00000  Uiso   1.00
C511   C     0.43442   0.17035   0.96020   0.00000  Uiso   1.00
C512   C     0.65163   0.06845   0.75118   0.00000  Uiso   1.00
C513   C     0.56558   0.16298   0.53980   0.00000  Uiso   1.00
C514   C     0.40422   0.20593   0.98861   0.00000  Uiso   1.00
C515   C     0.59577   0.12740   0.51140   0.00000  Uiso   1.00
C516   C     0.48707   0.15381   0.97824   0.00000  Uiso   1.00
C517   C     0.51291   0.17952   0.52176   0.00000  Uiso   1.00
C518   C     0.48482   0.22039   0.54583   0.00000  Uiso   1.00
C519   C     0.51516   0.11294   0.95418   0.00000  Uiso   1.00
C520   C     0.42963   0.23007   0.53144   0.00000  Uiso   1.00
C521   C     0.57035   0.10326   0.96857   0.00000  Uiso   1.00
C522   C     0.35619   0.31945   0.74810   0.00000  Uiso   1.00
C523   C     0.64381   0.01388   0.75190   0.00000  Uiso   1.00
C524   C     0.35422   0.17068   0.84107   0.00000  Uiso   1.00
F525   F     0.38488   0.10949   0.59324   0.00000  Uiso   1.00
F526   F     0.61512   0.22385   0.90675   0.00000  Uiso   1.00
F527   F     0.51140   0.25486   0.58043   0.00000  Uiso   1.00
F528   F     0.48857   0.07844   0.91959   0.00000  Uiso   1.00
F529   F     0.49959   0.11469   0.70808   0.00000  Uiso   1.00
F530   F     0.50042   0.21865   0.79192   0.00000  Uiso   1.00
H531   H     0.40872   0.26021   0.55159   0.00000  Uiso   1.00
H532   H     0.59126   0.07311   0.94842   0.00000  Uiso   1.00
H533   H     0.55967   0.19555   0.61299   0.00000  Uiso   1.00
H534   H     0.44033   0.13778   0.88701   0.00000  Uiso   1.00
H535   H     0.66062   0.24707   0.99356   0.00000  Uiso   1.00
H536   H     0.33937   0.08626   0.50644   0.00000  Uiso   1.00
H537   H     0.39926   0.00325   0.74447   0.00000  Uiso   1.00
H538   H     0.60074   0.33008   0.75553   0.00000  Uiso   1.00
N539   N     0.48029   0.15216   0.73740   0.00000  Uiso   1.00
N540   N     0.51971   0.18117   0.76261   0.00000  Uiso   1.00
O541   O     0.63052   0.24631   0.75310   0.00000  Uiso   1.00
O542   O     0.36948   0.08702   0.74691   0.00000  Uiso   1.00
O543   O     0.39155   0.23702   0.74502   0.00000  Uiso   1.00
O544   O     0.60845   0.09632   0.75499   0.00000  Uiso   1.00
O545   O     0.63662   0.17397   0.82247   0.00000  Uiso   1.00
O546   O     0.36338   0.15937   0.67753   0.00000  Uiso   1.00
O547   O     0.39764   0.16467   0.81439   0.00000  Uiso   1.00
O548   O     0.60236   0.16866   0.68561   0.00000  Uiso   1.00
Zn549  Zn    0.60366   0.17287   0.75540   0.00000  Uiso   1.00
Zn550  Zn    0.39634   0.16046   0.74461   0.00000  Uiso   1.00
C551   C     0.68170   0.26488   0.74882   0.00000  Uiso   1.00
C552   C     0.97911   0.16265   0.65893   0.00000  Uiso   1.00
C553   C     0.69795   0.17627   0.89363   0.00000  Uiso   1.00
C554   C     0.96872   0.15706   0.60637   0.00000  Uiso   1.00
C555   C     0.68463   0.22104   0.97137   0.00000  Uiso   1.00
C556   C     0.98203   0.11229   0.52863   0.00000  Uiso   1.00
C557   C     0.99765   0.20569   0.92400   0.00000  Uiso   1.00
C558   C     0.66901   0.12764   0.57600   0.00000  Uiso   1.00
C559   C     0.74773   0.15751   0.91230   0.00000  Uiso   1.00
C560   C     0.91893   0.17582   0.58770   0.00000  Uiso   1.00
C561   C     0.76775   0.17035   0.96020   0.00000  Uiso   1.00
C562   C     0.98496   0.06845   0.75118   0.00000  Uiso   1.00
C563   C     0.89891   0.16298   0.53980   0.00000  Uiso   1.00
C564   C     0.73755   0.20593   0.98861   0.00000  Uiso   1.00
C565   C     0.92910   0.12740   0.51140   0.00000  Uiso   1.00
C566   C     0.82041   0.15381   0.97824   0.00000  Uiso   1.00
C567   C     0.84625   0.17952   0.52176   0.00000  Uiso   1.00
C568   C     0.81815   0.22039   0.54583   0.00000  Uiso   1.00
C569   C     0.84850   0.11294   0.95418   0.00000  Uiso   1.00
C570   C     0.76297   0.23007   0.53144   0.00000  Uiso   1.00
C571   C     0.90368   0.10326   0.96857   0.00000  Uiso   1.00
C572   C     0.68952   0.31945   0.74810   0.00000  Uiso   1.00
C573   C     0.97714   0.01388   0.75190   0.00000  Uiso   1.00
C574   C     0.68755   0.17068   0.84107   0.00000  Uiso   1.00
F575   F     0.71821   0.10949   0.59324   0.00000  Uiso   1.00
F576   F     0.94845   0.22385   0.90675   0.00000  Uiso   1.00
F577   F     0.84474   0.25486   0.58043   0.00000  Uiso   1.00
F578   F     0.82190   0.07844   0.91959   0.00000  Uiso   1.00
F579   F     0.83292   0.11469   0.70808   0.00000  Uiso   1.00
F580   F     0.83375   0.21865   0.79192   0.00000  Uiso   1.00
H581   H     0.74206   0.26021   0.55159   0.00000  Uiso   1.00
H582   H     0.92459   0.07311   0.94842   0.00000  Uiso   1.00
H583   H     0.89300   0.19555   0.61299   0.00000  Uiso   1.00
H584   H     0.77366   0.13778   0.88701   0.00000  Uiso   1.00
H585   H     0.99396   0.24707   0.99356   0.00000  Uiso   1.00
H586   H     0.67270   0.08626   0.50644   0.00000  Uiso   1.00
H587   H     0.73260   0.00325   0.74447   0.00000  Uiso   1.00
H588   H     0.93407   0.33008   0.75553   0.00000  Uiso   1.00
N589   N     0.81362   0.15216   0.73740   0.00000  Uiso   1.00
N590   N     0.85305   0.18117   0.76261   0.00000  Uiso   1.00
O591   O     0.96386   0.24631   0.75310   0.00000  Uiso   1.00
O592   O     0.70281   0.08702   0.74691   0.00000  Uiso   1.00
O593   O     0.72488   0.23702   0.74502   0.00000  Uiso   1.00
O594   O     0.94178   0.09632   0.75499   0.00000  Uiso   1.00
O595   O     0.96995   0.17397   0.82247   0.00000  Uiso   1.00
O596   O     0.69672   0.15937   0.67753   0.00000  Uiso   1.00
O597   O     0.73098   0.16467   0.81439   0.00000  Uiso   1.00
O598   O     0.93569   0.16866   0.68561   0.00000  Uiso   1.00
Zn599  Zn    0.93700   0.17287   0.75540   0.00000  Uiso   1.00
Zn600  Zn    0.72967   0.16046   0.74461   0.00000  Uiso   1.00
C601   C     0.01504   0.59821   0.74882   0.00000  Uiso   1.00
C602   C     0.31245   0.49599   0.65893   0.00000  Uiso   1.00
C603   C     0.03128   0.50961   0.89363   0.00000  Uiso   1.00
C604   C     0.30205   0.49040   0.60637   0.00000  Uiso   1.00
C605   C     0.01796   0.55437   0.97137   0.00000  Uiso   1.00
C606   C     0.31536   0.44563   0.52863   0.00000  Uiso   1.00
C607   C     0.33099   0.53903   0.92400   0.00000  Uiso   1.00
C608   C     0.00234   0.46098   0.57600   0.00000  Uiso   1.00
C609   C     0.08107   0.49084   0.91230   0.00000  Uiso   1.00
C610   C     0.25226   0.50916   0.58770   0.00000  Uiso   1.00
C611   C     0.10108   0.50368   0.96020   0.00000  Uiso   1.00
C612   C     0.31830   0.40179   0.75118   0.00000  Uiso   1.00
C613   C     0.23224   0.49631   0.53980   0.00000  Uiso   1.00
C614   C     0.07089   0.53927   0.98861   0.00000  Uiso   1.00
C615   C     0.26244   0.46073   0.51140   0.00000  Uiso   1.00
C616   C     0.15374   0.48714   0.97824   0.00000  Uiso   1.00
C617   C     0.17958   0.51286   0.52176   0.00000  Uiso   1.00
C618   C     0.15149   0.55372   0.54583   0.00000  Uiso   1.00
C619   C     0.18183   0.44627   0.95418   0.00000  Uiso   1.00
C620   C     0.09630   0.56340   0.53144   0.00000  Uiso   1.00
C621   C     0.23702   0.43659   0.96857   0.00000  Uiso   1.00
C622   C     0.02286   0.65279   0.74810   0.00000  Uiso   1.00
C623   C     0.31048   0.34721   0.75190   0.00000  Uiso   1.00
C624   C     0.02089   0.50401   0.84107   0.00000  Uiso   1.00
F625   F     0.05155   0.44282   0.59324   0.00000  Uiso   1.00
F626   F     0.28178   0.55718   0.90675   0.00000  Uiso   1.00
F627   F     0.17807   0.58820   0.58043   0.00000  Uiso   1.00
F628   F     0.15523   0.41178   0.91959   0.00000  Uiso   1.00
F629   F     0.16625   0.44802   0.70808   0.00000  Uiso   1.00
F630   F     0.16708   0.55198   0.79192   0.00000  Uiso   1.00
H631   H     0.07539   0.59354   0.55159   0.00000  Uiso   1.00
H632   H     0.25792   0.40644   0.94842   0.00000  Uiso   1.00
H633   H     0.22633   0.52888   0.61299   0.00000  Uiso   1.00
H634   H     0.10700   0.47111   0.88701   0.00000  Uiso   1.00
H635   H     0.32729   0.58040   0.99356   0.00000  Uiso   1.00
H636   H     0.00603   0.41960   0.50644   0.00000  Uiso   1.00
H637   H     0.06593   0.33659   0.74447   0.00000  Uiso   1.00
H638   H     0.26740   0.66341   0.75553   0.00000  Uiso   1.00
N639   N     0.14695   0.48550   0.73740   0.00000  Uiso   1.00
N640   N     0.18638   0.51450   0.76261   0.00000  Uiso   1.00
O641   O     0.29719   0.57964   0.75310   0.00000  Uiso   1.00
O642   O     0.03614   0.42036   0.74691   0.00000  Uiso   1.00
O643   O     0.05822   0.57035   0.74502   0.00000  Uiso   1.00
O644   O     0.27512   0.42965   0.75499   0.00000  Uiso   1.00
O645   O     0.30328   0.50730   0.82247   0.00000  Uiso   1.00
O646   O     0.03005   0.49270   0.67753   0.00000  Uiso   1.00
O647   O     0.06431   0.49801   0.81439   0.00000  Uiso   1.00
O648   O     0.26902   0.50199   0.68561   0.00000  Uiso   1.00
Zn649  Zn    0.27033   0.50621   0.75540   0.00000  Uiso   1.00
Zn650  Zn    0.06300   0.49379   0.74461   0.00000  Uiso   1.00
C651   C     0.34837   0.59821   0.74882   0.00000  Uiso   1.00
C652   C     0.64578   0.49599   0.65893   0.00000  Uiso   1.00
C653   C     0.36461   0.50961   0.89363   0.00000  Uiso   1.00
C654   C     0.63538   0.49040   0.60637   0.00000  Uiso   1.00
C655   C     0.35130   0.55437   0.97137   0.00000  Uiso   1.00
C656   C     0.64870   0.44563   0.52863   0.00000  Uiso   1.00
C657   C     0.66432   0.53903   0.92400   0.00000  Uiso   1.00
C658   C     0.33568   0.46098   0.57600   0.00000  Uiso   1.00
C659   C     0.41440   0.49084   0.91230   0.00000  Uiso   1.00
C660   C     0.58560   0.50916   0.58770   0.00000  Uiso   1.00
C661   C     0.43442   0.50368   0.96020   0.00000  Uiso   1.00
C662   C     0.65163   0.40179   0.75118   0.00000  Uiso   1.00
C663   C     0.56558   0.49631   0.53980   0.00000  Uiso   1.00
C664   C     0.40422   0.53927   0.98861   0.00000  Uiso   1.00
C665   C     0.59577   0.46073   0.51140   0.00000  Uiso   1.00
C666   C     0.48707   0.48714   0.97824   0.00000  Uiso   1.00
C667   C     0.51291   0.51286   0.52176   0.00000  Uiso   1.00
C668   C     0.48482   0.55372   0.54583   0.00000  Uiso   1.00
C669   C     0.51516   0.44627   0.95418   0.00000  Uiso   1.00
C670   C     0.42963   0.56340   0.53144   0.00000  Uiso   1.00
C671   C     0.57035   0.43659   0.96857   0.00000  Uiso   1.00
C672   C     0.35619   0.65279   0.74810   0.00000  Uiso   1.00
C673   C     0.64381   0.34721   0.75190   0.00000  Uiso   1.00
C674   C     0.35422   0.50401   0.84107   0.00000  Uiso   1.00
F675   F     0.38488   0.44282   0.59324   0.00000  Uiso   1.00
F676   F     0.61512   0.55718   0.90675   0.00000  Uiso   1.00
F677   F     0.51140   0.58820   0.58043   0.00000  Uiso   1.00
F678   F     0.48857   0.41178   0.91959   0.00000  Uiso   1.00
F679   F     0.49959   0.44802   0.70808   0.00000  Uiso   1.00
F680   F     0.50042   0.55198   0.79192   0.00000  Uiso   1.00
H681   H     0.40872   0.59354   0.55159   0.00000  Uiso   1.00
H682   H     0.59126   0.40644   0.94842   0.00000  Uiso   1.00
H683   H     0.55967   0.52888   0.61299   0.00000  Uiso   1.00
H684   H     0.44033   0.47111   0.88701   0.00000  Uiso   1.00
H685   H     0.66062   0.58040   0.99356   0.00000  Uiso   1.00
H686   H     0.33937   0.41960   0.50644   0.00000  Uiso   1.00
H687   H     0.39926   0.33659   0.74447   0.00000  Uiso   1.00
H688   H     0.60074   0.66341   0.75553   0.00000  Uiso   1.00
N689   N     0.48029   0.48550   0.73740   0.00000  Uiso   1.00
N690   N     0.51971   0.51450   0.76261   0.00000  Uiso   1.00
O691   O     0.63052   0.57964   0.75310   0.00000  Uiso   1.00
O692   O     0.36948   0.42036   0.74691   0.00000  Uiso   1.00
O693   O     0.39155   0.57035   0.74502   0.00000  Uiso   1.00
O694   O     0.60845   0.42965   0.75499   0.00000  Uiso   1.00
O695   O     0.63662   0.50730   0.82247   0.00000  Uiso   1.00
O696   O     0.36338   0.49270   0.67753   0.00000  Uiso   1.00
O697   O     0.39764   0.49801   0.81439   0.00000  Uiso   1.00
O698   O     0.60236   0.50199   0.68561   0.00000  Uiso   1.00
Zn699  Zn    0.60366   0.50621   0.75540   0.00000  Uiso   1.00
Zn700  Zn    0.39634   0.49379   0.74461   0.00000  Uiso   1.00
C701   C     0.68170   0.59821   0.74882   0.00000  Uiso   1.00
C702   C     0.97911   0.49599   0.65893   0.00000  Uiso   1.00
C703   C     0.69795   0.50961   0.89363   0.00000  Uiso   1.00
C704   C     0.96872   0.49040   0.60637   0.00000  Uiso   1.00
C705   C     0.68463   0.55437   0.97137   0.00000  Uiso   1.00
C706   C     0.98203   0.44563   0.52863   0.00000  Uiso   1.00
C707   C     0.99765   0.53903   0.92400   0.00000  Uiso   1.00
C708   C     0.66901   0.46098   0.57600   0.00000  Uiso   1.00
C709   C     0.74773   0.49084   0.91230   0.00000  Uiso   1.00
C710   C     0.91893   0.50916   0.58770   0.00000  Uiso   1.00
C711   C     0.76775   0.50368   0.96020   0.00000  Uiso   1.00
C712   C     0.98496   0.40179   0.75118   0.00000  Uiso   1.00
C713   C     0.89891   0.49631   0.53980   0.00000  Uiso   1.00
C714   C     0.73755   0.53927   0.98861   0.00000  Uiso   1.00
C715   C     0.92910   0.46073   0.51140   0.00000  Uiso   1.00
C716   C     0.82041   0.48714   0.97824   0.00000  Uiso   1.00
C717   C     0.84625   0.51286   0.52176   0.00000  Uiso   1.00
C718   C     0.81815   0.55372   0.54583   0.00000  Uiso   1.00
C719   C     0.84850   0.44627   0.95418   0.00000  Uiso   1.00
C720   C     0.76297   0.56340   0.53144   0.00000  Uiso   1.00
C721   C     0.90368   0.43659   0.96857   0.00000  Uiso   1.00
C722   C     0.68952   0.65279   0.74810   0.00000  Uiso   1.00
C723   C     0.97714   0.34721   0.75190   0.00000  Uiso   1.00
C724   C     0.68755   0.50401   0.84107   0.00000  Uiso   1.00
F725   F     0.71821   0.44282   0.59324   0.00000  Uiso   1.00
F726   F     0.94845   0.55718   0.90675   0.00000  Uiso   1.00
F727   F     0.84474   0.58820   0.58043   0.00000  Uiso   1.00
F728   F     0.82190   0.41178   0.91959   0.00000  Uiso   1.00
F729   F     0.83292   0.44802   0.70808   0.00000  Uiso   1.00
F730   F     0.83375   0.55198   0.79192   0.00000  Uiso   1.00
H731   H     0.74206   0.59354   0.55159   0.00000  Uiso   1.00
H732   H     0.92459   0.40644   0.94842   0.00000  Uiso   1.00
H733   H     0.89300   0.52888   0.61299   0.00000  Uiso   1.00
H734   H     0.77366   0.47111   0.88701   0.00000  Uiso   1.00
H735   H     0.99396   0.58040   0.99356   0.00000  Uiso   1.00
H736   H     0.67270   0.41960   0.50644   0.00000  Uiso   1.00
H737   H     0.73260   0.33659   0.74447   0.00000  Uiso   1.00
H738   H     0.93407   0.66341   0.75553   0.00000  Uiso   1.00
N739   N     0.81362   0.48550   0.73740   0.00000  Uiso   1.00
N740   N     0.85305   0.51450   0.76261   0.00000  Uiso   1.00
O741   O     0.96386   0.57964   0.75310   0.00000  Uiso   1.00
O742   O     0.70281   0.42036   0.74691   0.00000  Uiso   1.00
O743   O     0.72488   0.57035   0.74502   0.00000  Uiso   1.00
O744   O     0.94178   0.42965   0.75499   0.00000  Uiso   1.00
O745   O     0.96995   0.50730   0.82247   0.00000  Uiso   1.00
O746   O     0.69672   0.49270   0.67753   0.00000  Uiso   1.00
O747   O     0.73098   0.49801   0.81439   0.00000  Uiso   1.00
O748   O     0.93569   0.50199   0.68561   0.00000  Uiso   1.00
Zn749  Zn    0.93700   0.50621   0.75540   0.00000  Uiso   1.00
Zn750  Zn    0.72967   0.49379   0.74461   0.00000  Uiso   1.00
C751   C     0.01504   0.93155   0.74882   0.00000  Uiso   1.00
C752   C     0.31245   0.82932   0.65893   0.00000  Uiso   1.00
C753   C     0.03128   0.84294   0.89363   0.00000  Uiso   1.00
C754   C     0.30205   0.82373   0.60637   0.00000  Uiso   1.00
C755   C     0.01796   0.88771   0.97137   0.00000  Uiso   1.00
C756   C     0.31536   0.77896   0.52863   0.00000  Uiso   1.00
C757   C     0.33099   0.87236   0.92400   0.00000  Uiso   1.00
C758   C     0.00234   0.79431   0.57600   0.00000  Uiso   1.00
C759   C     0.08107   0.82417   0.91230   0.00000  Uiso   1.00
C760   C     0.25226   0.84249   0.58770   0.00000  Uiso   1.00
C761   C     0.10108   0.83702   0.96020   0.00000  Uiso   1.00
C762   C     0.31830   0.73512   0.75118   0.00000  Uiso   1.00
C763   C     0.23224   0.82965   0.53980   0.00000  Uiso   1.00
C764   C     0.07089   0.87260   0.98861   0.00000  Uiso   1.00
C765   C     0.26244   0.79407   0.51140   0.00000  Uiso   1.00
C766   C     0.15374   0.82047   0.97824   0.00000  Uiso   1.00
C767   C     0.17958   0.84619   0.52176   0.00000  Uiso   1.00
C768   C     0.15149   0.88705   0.54583   0.00000  Uiso   1.00
C769   C     0.18183   0.77960   0.95418   0.00000  Uiso   1.00
C770   C     0.09630   0.89673   0.53144   0.00000  Uiso   1.00
C771   C     0.23702   0.76993   0.96857   0.00000  Uiso   1.00
C772   C     0.02286   0.98612   0.74810   0.00000  Uiso   1.00
C773   C     0.31048   0.68055   0.75190   0.00000  Uiso   1.00
C774   C     0.02089   0.83735   0.84107   0.00000  Uiso   1.00
F775   F     0.05155   0.77615   0.59324   0.00000  Uiso   1.00
F776   F     0.28178   0.89052   0.90675   0.00000  Uiso   1.00
F777   F     0.17807   0.92153   0.58043   0.00000  Uiso   1.00
F778   F     0.15523   0.74511   0.91959   0.00000  Uiso   1.00
F779   F     0.16625   0.78135   0.70808   0.00000  Uiso   1.00
F780   F     0.16708   0.88531   0.79192   0.00000  Uiso   1.00
H781   H     0.07539   0.92688   0.55159   0.00000  Uiso   1.00
H782   H     0.25792   0.73978   0.94842   0.00000  Uiso   1.00
H783   H     0.22633   0.86222   0.61299   0.00000  Uiso   1.00
H784   H     0.10700   0.80444   0.88701   0.00000  Uiso   1.00
H785   H     0.32729   0.91374   0.99356   0.00000  Uiso   1.00
H786   H     0.00603   0.75293   0.50644   0.00000  Uiso   1.00
H787   H     0.06593   0.66992   0.74447   0.00000  Uiso   1.00
H788   H     0.26740   0.99675   0.75553   0.00000  Uiso   1.00
N789   N     0.14695   0.81883   0.73740   0.00000  Uiso   1.00
N790   N     0.18638   0.84784   0.76261   0.00000  Uiso   1.00
O791   O     0.29719   0.91298   0.75310   0.00000  Uiso   1.00
O792   O     0.03614   0.75369   0.74691   0.00000  Uiso   1.00
O793   O     0.05822   0.90368   0.74502   0.00000  Uiso   1.00
O794   O     0.27512   0.76298   0.75499   0.00000  Uiso   1.00
O795   O     0.30328   0.84063   0.82247   0.00000  Uiso   1.00
O796   O     0.03005   0.82603   0.67753   0.00000  Uiso   1.00
O797   O     0.06431   0.83134   0.81439   0.00000  Uiso   1.00
O798   O     0.26902   0.83533   0.68561   0.00000  Uiso   1.00
Zn799  Zn    0.27033   0.83954   0.75540   0.00000  Uiso   1.00
Zn800  Zn    0.06300   0.82713   0.74461   0.00000  Uiso   1.00
C801   C     0.34837   0.93155   0.74882   0.00000  Uiso   1.00
C802   C     0.64578   0.82932   0.65893   0.00000  Uiso   1.00
C803   C     0.36461   0.84294   0.89363   0.00000  Uiso   1.00
C804   C     0.63538   0.82373   0.60637   0.00000  Uiso   1.00
C805   C     0.35130   0.88771   0.97137   0.00000  Uiso   1.00
C806   C     0.64870   0.77896   0.52863   0.00000  Uiso   1.00
C807   C     0.66432   0.87236   0.92400   0.00000  Uiso   1.00
C808   C     0.33568   0.79431   0.57600   0.00000  Uiso   1.00
C809   C     0.41440   0.82417   0.91230   0.00000  Uiso   1.00
C810   C     0.58560   0.84249   0.58770   0.00000  Uiso   1.00
C811   C     0.43442   0.83702   0.96020   0.00000  Uiso   1.00
C812   C     0.65163   0.73512   0.75118   0.00000  Uiso   1.00
C813   C     0.56558   0.82965   0.53980   0.00000  Uiso   1.00
C814   C     0.40422   0.87260   0.98861   0.00000  Uiso   1.00
C815   C     0.59577   0.79407   0.51140   0.00000  Uiso   1.00
C816   C     0.48707   0.82047   0.97824   0.00000  Uiso   1.00
C817   C     0.51291   0.84619   0.52176   0.00000  Uiso   1.00
C818   C     0.48482   0.88705   0.54583   0.00000  Uiso   1.00
C819   C     0.51516   0.77960   0.95418   0.00000  Uiso   1.00
C820   C     0.42963   0.89673   0.53144   0.00000  Uiso   1.00
C821   C     0.57035   0.76993   0.96857   0.00000  Uiso   1.00
C822   C     0.35619   0.98612   0.74810   0.00000  Uiso   1.00
C823   C     0.64381   0.68055   0.75190   0.00000  Uiso   1.00
C824   C     0.35422   0.83735   0.84107   0.00000  Uiso   1.00
F825   F     0.38488   0.77615   0.59324   0.00000  Uiso   1.00
F826   F     0.61512   0.89052   0.90675   0.00000  Uiso   1.00
F827   F     0.51140   0.92153   0.58043   0.00000  Uiso   1.00
F828   F     0.48857   0.74511   0.91959   0.00000  Uiso   1.00
F829   F     0.49959   0.78135   0.70808   0.00000  Uiso   1.00
F830   F     0.50042   0.88531   0.79192   0.00000  Uiso   1.00
H831   H     0.40872   0.92688   0.55159   0.00000  Uiso   1.00
H832   H     0.59126   0.73978   0.94842   0.00000  Uiso   1.00
H833   H     0.55967   0.86222   0.61299   0.00000  Uiso   1.00
H834   H     0.44033   0.80444   0.88701   0.00000  Uiso   1.00
H835   H     0.66062   0.91374   0.99356   0.00000  Uiso   1.00
H836   H     0.33937   0.75293   0.50644   0.00000  Uiso   1.00
H837   H     0.39926   0.66992   0.74447   0.00000  Uiso   1.00
H838   H     0.60074   0.99675   0.75553   0.00000  Uiso   1.00
N839   N     0.48029   0.81883   0.73740   0.00000  Uiso   1.00
N840   N     0.51971   0.84784   0.76261   0.00000  Uiso   1.00
O841   O     0.63052   0.91298   0.75310   0.00000  Uiso   1.00
O842   O     0.36948   0.75369   0.74691   0.00000  Uiso   1.00
O843   O     0.39155   0.90368   0.74502   0.00000  Uiso   1.00
O844   O     0.60845   0.76298   0.75499   0.00000  Uiso   1.00
O845   O     0.63662   0.84063   0.82247   0.00000  Uiso   1.00
O846   O     0.36338   0.82603   0.67753   0.00000  Uiso   1.00
O847   O     0.39764   0.83134   0.81439   0.00000  Uiso   1.00
O848   O     0.60236   0.83533   0.68561   0.00000  Uiso   1.00
Zn849  Zn    0.60366   0.83954   0.75540   0.00000  Uiso   1.00
Zn850  Zn    0.39634   0.82713   0.74461   0.00000  Uiso   1.00
C851   C     0.68170   0.93155   0.74882   0.00000  Uiso   1.00
C852   C     0.97911   0.82932   0.65893   0.00000  Uiso   1.00
C853   C     0.69795   0.84294   0.89363   0.00000  Uiso   1.00
C854   C     0.96872   0.82373   0.60637   0.00000  Uiso   1.00
C855   C     0.68463   0.88771   0.97137   0.00000  Uiso   1.00
C856   C     0.98203   0.77896   0.52863   0.00000  Uiso   1.00
C857   C     0.99765   0.87236   0.92400   0.00000  Uiso   1.00
C858   C     0.66901   0.79431   0.57600   0.00000  Uiso   1.00
C859   C     0.74773   0.82417   0.91230   0.00000  Uiso   1.00
C860   C     0.91893   0.84249   0.58770   0.00000  Uiso   1.00
C861   C     0.76775   0.83702   0.96020   0.00000  Uiso   1.00
C862   C     0.98496   0.73512   0.75118   0.00000  Uiso   1.00
C863   C     0.89891   0.82965   0.53980   0.00000  Uiso   1.00
C864   C     0.73755   0.87260   0.98861   0.00000  Uiso   1.00
C865   C     0.92910   0.79407   0.51140   0.00000  Uiso   1.00
C866   C     0.82041   0.82047   0.97824   0.00000  Uiso   1.00
C867   C     0.84625   0.84619   0.52176   0.00000  Uiso   1.00
C868   C     0.81815   0.88705   0.54583   0.00000  Uiso   1.00
C869   C     0.84850   0.77960   0.95418   0.00000  Uiso   1.00
C870   C     0.76297   0.89673   0.53144   0.00000  Uiso   1.00
C871   C     0.90368   0.76993   0.96857   0.00000  Uiso   1.00
C872   C     0.68952   0.98612   0.74810   0.00000  Uiso   1.00
C873   C     0.97714   0.68055   0.75190   0.00000  Uiso   1.00
C874   C     0.68755   0.83735   0.84107   0.00000  Uiso   1.00
F875   F     0.71821   0.77615   0.59324   0.00000  Uiso   1.00
F876   F     0.94845   0.89052   0.90675   0.00000  Uiso   1.00
F877   F     0.84474   0.92153   0.58043   0.00000  Uiso   1.00
F878   F     0.82190   0.74511   0.91959   0.00000  Uiso   1.00
F879   F     0.83292   0.78135   0.70808   0.00000  Uiso   1.00
F880   F     0.83375   0.88531   0.79192   0.00000  Uiso   1.00
H881   H     0.74206   0.92688   0.55159   0.00000  Uiso   1.00
H882   H     0.92459   0.73978   0.94842   0.00000  Uiso   1.00
H883   H     0.89300   0.86222   0.61299   0.00000  Uiso   1.00
H884   H     0.77366   0.80444   0.88701   0.00000  Uiso   1.00
H885   H     0.99396   0.91374   0.99356   0.00000  Uiso   1.00
H886   H     0.67270   0.75293   0.50644   0.00000  Uiso   1.00
H887   H     0.73260   0.66992   0.74447   0.00000  Uiso   1.00
H888   H     0.93407   0.99675   0.75553   0.00000  Uiso   1.00
N889   N     0.81362   0.81883   0.73740   0.00000  Uiso   1.00
N890   N     0.85305   0.84784   0.76261   0.00000  Uiso   1.00
O891   O     0.96386   0.91298   0.75310   0.00000  Uiso   1.00
O892   O     0.70281   0.75369   0.74691   0.00000  Uiso   1.00
O893   O     0.72488   0.90368   0.74502   0.00000  Uiso   1.00
O894   O     0.94178   0.76298   0.75499   0.00000  Uiso   1.00
O895   O     0.96995   0.84063   0.82247   0.00000  Uiso   1.00
O896   O     0.69672   0.82603   0.67753   0.00000  Uiso   1.00
O897   O     0.73098   0.83134   0.81439   0.00000  Uiso   1.00
O898   O     0.93569   0.83533   0.68561   0.00000  Uiso   1.00
Zn899  Zn    0.93700   0.83954   0.75540   0.00000  Uiso   1.00
Zn900  Zn    0.72967   0.82713   0.74461   0.00000  Uiso   1.00
loop_
_geom_bond_atom_site_label_1
_geom_bond_atom_site_label_2
_geom_bond_distance
_geom_bond_site_symmetry_2
_ccdc_geom_bond_type
C1     C22     1.402   .     S
C1     O43     1.290   .     A
C1     O141    1.277   1_455 S
C2     C4      1.455   .     S
C2     O48     1.300   .     A
C2     O96     1.293   .     S
C3     C9      1.389   .     A
C3     C24     1.455   .     S
C3     C107    1.402   1_455 S
C4     C10     1.389   .     A
C4     C58     1.402   .     S
C5     C14     1.403   .     A
C5     C107    1.392   1_455 S
C5     H135    1.084   1_455 S
C6     C15     1.403   .     A
C6     C58     1.392   .     S
C6     H86     1.084   .     S
C7     F26     1.357   .     S
C7     C53     1.402   .     S
C7     C55     1.392   .     S
C8     F25     1.357   .     S
C8     C104    1.402   1_455 S
C8     C106    1.392   1_455 S
C9     C11     1.392   .     A
C9     H34     1.075   .     S
C10    C13     1.392   .     A
C10    H33     1.075   .     S
C11    C16     1.419   .     A
C11    C14     1.417   .     A
C12    O44     1.290   .     A
C12    C23     1.402   .     S
C12    O92     1.277   .     S
C13    C17     1.419   .     A
C13    C15     1.417   .     A
C14    C470    1.386   .     S
C15    C471    1.386   1_554 S
C16    C19     1.425   .     A
C16    C467    1.420   .     S
C17    C18     1.425   .     A
C17    C466    1.420   1_554 S
C18    C20     1.386   .     A
C18    F27     1.357   .     S
C19    F28     1.357   .     S
C19    C21     1.386   .     A
C20    H31     1.084   .     S
C20    C464    1.386   1_554 S
C21    H32     1.084   .     S
C21    C465    1.386   .     S
C22    C273    1.338   1_455 S
C22    H187    1.088   .     S
C23    C372    1.338   1_545 S
C23    H338    1.088   1_545 S
C24    O47     1.300   .     A
C24    O145    1.293   1_455 S
F29    N39     1.335   .     S
F30    N40     1.335   .     S
H35    C55     1.084   .     S
H36    C106    1.084   1_455 S
H37    C322    1.088   1_545 S
H38    C173    1.088   .     S
N39    Zn50    2.022   .     S
N39    N40     1.293   .     D
N40    Zn49    2.022   .     S
O41    Zn49    1.951   .     S
O41    C51     1.277   .     S
O42    Zn50    1.951   .     S
O42    C112    1.277   1_455 S
O43    Zn50    1.977   .     S
O44    Zn49    1.977   .     S
O45    Zn49    1.970   .     S
O45    C74     1.293   .     S
O46    Zn50    1.970   .     S
O46    C102    1.293   1_455 S
O47    Zn50    1.919   .     S
O48    Zn49    1.919   .     S
C51    C72     1.402   .     S
C51    O93     1.290   .     A
C52    C54     1.455   .     S
C52    O98     1.300   .     A
C52    O146    1.293   .     S
C53    C59     1.389   .     A
C53    C74     1.455   .     S
C54    C60     1.389   .     A
C54    C108    1.402   .     S
C55    C64     1.403   .     A
C56    C65     1.403   .     A
C56    C108    1.392   .     S
C56    H136    1.084   .     S
C57    F76     1.357   .     S
C57    C103    1.402   .     S
C57    C105    1.392   .     S
C58    F75     1.357   .     S
C59    C61     1.392   .     A
C59    H84     1.075   .     S
C60    C63     1.392   .     A
C60    H83     1.075   .     S
C61    C66     1.419   .     A
C61    C64     1.417   .     A
C62    O94     1.290   .     A
C62    C73     1.402   .     S
C62    O142    1.277   .     S
C63    C67     1.419   .     A
C63    C65     1.417   .     A
C64    C520    1.386   .     S
C65    C521    1.386   1_554 S
C66    C69     1.425   .     A
C66    C517    1.420   .     S
C67    C68     1.425   .     A
C67    C516    1.420   1_554 S
C68    C70     1.386   .     A
C68    F77     1.357   .     S
C69    F78     1.357   .     S
C69    C71     1.386   .     A
C70    H81     1.084   .     S
C70    C514    1.386   1_554 S
C71    H82     1.084   .     S
C71    C515    1.386   .     S
C72    C173    1.338   .     S
C72    H237    1.088   .     S
C73    C422    1.338   1_545 S
C73    H388    1.088   1_545 S
C74    O97     1.300   .     A
F79    N89     1.335   .     S
F80    N90     1.335   .     S
H85    C105    1.084   .     S
H87    C372    1.088   1_545 S
H88    C223    1.088   .     S
N89    Zn100   2.022   .     S
N89    N90     1.293   .     D
N90    Zn99    2.022   .     S
O91    Zn99    1.951   .     S
O91    C101    1.277   .     S
O92    Zn100   1.951   .     S
O93    Zn100   1.977   .     S
O94    Zn99    1.977   .     S
O95    Zn99    1.970   .     S
O95    C124    1.293   .     S
O96    Zn100   1.970   .     S
O97    Zn100   1.919   .     S
O98    Zn99    1.919   .     S
C101   C122    1.402   .     S
C101   O143    1.290   .     A
C102   C104    1.455   .     S
C102   O148    1.300   .     A
C102   O46     1.293   1_655 S
C103   C109    1.389   .     A
C103   C124    1.455   .     S
C104   C110    1.389   .     A
C104   C8      1.402   1_655 S
C105   C114    1.403   .     A
C106   C115    1.403   .     A
C106   C8      1.392   1_655 S
C106   H36     1.084   1_655 S
C107   F126    1.357   .     S
C107   C3      1.402   1_655 S
C107   C5      1.392   1_655 S
C108   F125    1.357   .     S
C109   C111    1.392   .     A
C109   H134    1.075   .     S
C110   C113    1.392   .     A
C110   H133    1.075   .     S
C111   C116    1.419   .     A
C111   C114    1.417   .     A
C112   O144    1.290   .     A
C112   C123    1.402   .     S
C112   O42     1.277   1_655 S
C113   C117    1.419   .     A
C113   C115    1.417   .     A
C114   C570    1.386   .     S
C115   C571    1.386   1_554 S
C116   C119    1.425   .     A
C116   C567    1.420   .     S
C117   C118    1.425   .     A
C117   C566    1.420   1_554 S
C118   C120    1.386   .     A
C118   F127    1.357   .     S
C119   F128    1.357   .     S
C119   C121    1.386   .     A
C120   H131    1.084   .     S
C120   C564    1.386   1_554 S
C121   H132    1.084   .     S
C121   C565    1.386   .     S
C122   C223    1.338   .     S
C122   H287    1.088   .     S
C123   C322    1.338   1_645 S
C123   H438    1.088   1_545 S
C124   O147    1.300   .     A
F129   N139    1.335   .     S
F130   N140    1.335   .     S
H135   C5      1.084   1_655 S
H137   C422    1.088   1_545 S
H138   C273    1.088   .     S
N139   Zn150   2.022   .     S
N139   N140    1.293   .     D
N140   Zn149   2.022   .     S
O141   Zn149   1.951   .     S
O141   C1      1.277   1_655 S
O142   Zn150   1.951   .     S
O143   Zn150   1.977   .     S
O144   Zn149   1.977   .     S
O145   Zn149   1.970   .     S
O145   C24     1.293   1_655 S
O146   Zn150   1.970   .     S
O147   Zn150   1.919   .     S
O148   Zn149   1.919   .     S
C151   C172    1.402   .     S
C151   O193    1.290   .     A
C151   O291    1.277   1_455 S
C152   C154    1.455   .     S
C152   O198    1.300   .     A
C152   O246    1.293   .     S
C153   C159    1.389   .     A
C153   C174    1.455   .     S
C153   C257    1.402   1_455 S
C154   C160    1.389   .     A
C154   C208    1.402   .     S
C155   C164    1.403   .     A
C155   C257    1.392   1_455 S
C155   H285    1.084   1_455 S
C156   C165    1.403   .     A
C156   C208    1.392   .     S
C156   H236    1.084   .     S
C157   F176    1.357   .     S
C157   C203    1.402   .     S
C157   C205    1.392   .     S
C158   F175    1.357   .     S
C158   C254    1.402   1_455 S
C158   C256    1.392   1_455 S
C159   C161    1.392   .     A
C159   H184    1.075   .     S
C160   C163    1.392   .     A
C160   H183    1.075   .     S
C161   C166    1.419   .     A
C161   C164    1.417   .     A
C162   O194    1.290   .     A
C162   C173    1.402   .     S
C162   O242    1.277   .     S
C163   C167    1.419   .     A
C163   C165    1.417   .     A
C164   C620    1.386   .     S
C165   C621    1.386   1_554 S
C166   C169    1.425   .     A
C166   C617    1.420   .     S
C167   C168    1.425   .     A
C167   C616    1.420   1_554 S
C168   C170    1.386   .     A
C168   F177    1.357   .     S
C169   F178    1.357   .     S
C169   C171    1.386   .     A
C170   H181    1.084   .     S
C170   C614    1.386   1_554 S
C171   H182    1.084   .     S
C171   C615    1.386   .     S
C172   C423    1.338   1_455 S
C172   H337    1.088   .     S
C174   O197    1.300   .     A
C174   O295    1.293   1_455 S
F179   N189    1.335   .     S
F180   N190    1.335   .     S
H185   C205    1.084   .     S
H186   C256    1.084   1_455 S
H188   C323    1.088   .     S
N189   Zn200   2.022   .     S
N189   N190    1.293   .     D
N190   Zn199   2.022   .     S
O191   Zn199   1.951   .     S
O191   C201    1.277   .     S
O192   Zn200   1.951   .     S
O192   C262    1.277   1_455 S
O193   Zn200   1.977   .     S
O194   Zn199   1.977   .     S
O195   Zn199   1.970   .     S
O195   C224    1.293   .     S
O196   Zn200   1.970   .     S
O196   C252    1.293   1_455 S
O197   Zn200   1.919   .     S
O198   Zn199   1.919   .     S
C201   C222    1.402   .     S
C201   O243    1.290   .     A
C202   C204    1.455   .     S
C202   O248    1.300   .     A
C202   O296    1.293   .     S
C203   C209    1.389   .     A
C203   C224    1.455   .     S
C204   C210    1.389   .     A
C204   C258    1.402   .     S
C205   C214    1.403   .     A
C206   C215    1.403   .     A
C206   C258    1.392   .     S
C206   H286    1.084   .     S
C207   F226    1.357   .     S
C207   C253    1.402   .     S
C207   C255    1.392   .     S
C208   F225    1.357   .     S
C209   C211    1.392   .     A
C209   H234    1.075   .     S
C210   C213    1.392   .     A
C210   H233    1.075   .     S
C211   C216    1.419   .     A
C211   C214    1.417   .     A
C212   O244    1.290   .     A
C212   C223    1.402   .     S
C212   O292    1.277   .     S
C213   C217    1.419   .     A
C213   C215    1.417   .     A
C214   C670    1.386   .     S
C215   C671    1.386   1_554 S
C216   C219    1.425   .     A
C216   C667    1.420   .     S
C217   C218    1.425   .     A
C217   C666    1.420   1_554 S
C218   C220    1.386   .     A
C218   F227    1.357   .     S
C219   F228    1.357   .     S
C219   C221    1.386   .     A
C220   H231    1.084   .     S
C220   C664    1.386   1_554 S
C221   H232    1.084   .     S
C221   C665    1.386   .     S
C222   C323    1.338   .     S
C222   H387    1.088   .     S
C224   O247    1.300   .     A
F229   N239    1.335   .     S
F230   N240    1.335   .     S
H235   C255    1.084   .     S
H238   C373    1.088   .     S
N239   Zn250   2.022   .     S
N239   N240    1.293   .     D
N240   Zn249   2.022   .     S
O241   Zn249   1.951   .     S
O241   C251    1.277   .     S
O242   Zn250   1.951   .     S
O243   Zn250   1.977   .     S
O244   Zn249   1.977   .     S
O245   Zn249   1.970   .     S
O245   C274    1.293   .     S
O246   Zn250   1.970   .     S
O247   Zn250   1.919   .     S
O248   Zn249   1.919   .     S
C251   C272    1.402   .     S
C251   O293    1.290   .     A
C252   C254    1.455   .     S
C252   O298    1.300   .     A
C252   O196    1.293   1_655 S
C253   C259    1.389   .     A
C253   C274    1.455   .     S
C254   C260    1.389   .     A
C254   C158    1.402   1_655 S
C255   C264    1.403   .     A
C256   C265    1.403   .     A
C256   C158    1.392   1_655 S
C256   H186    1.084   1_655 S
C257   F276    1.357   .     S
C257   C153    1.402   1_655 S
C257   C155    1.392   1_655 S
C258   F275    1.357   .     S
C259   C261    1.392   .     A
C259   H284    1.075   .     S
C260   C263    1.392   .     A
C260   H283    1.075   .     S
C261   C266    1.419   .     A
C261   C264    1.417   .     A
C262   O294    1.290   .     A
C262   C273    1.402   .     S
C262   O192    1.277   1_655 S
C263   C267    1.419   .     A
C263   C265    1.417   .     A
C264   C720    1.386   .     S
C265   C721    1.386   1_554 S
C266   C269    1.425   .     A
C266   C717    1.420   .     S
C267   C268    1.425   .     A
C267   C716    1.420   1_554 S
C268   C270    1.386   .     A
C268   F277    1.357   .     S
C269   F278    1.357   .     S
C269   C271    1.386   .     A
C270   H281    1.084   .     S
C270   C714    1.386   1_554 S
C271   H282    1.084   .     S
C271   C715    1.386   .     S
C272   C373    1.338   .     S
C272   H437    1.088   .     S
C273   C22     1.338   1_655 S
C274   O297    1.300   .     A
F279   N289    1.335   .     S
F280   N290    1.335   .     S
H285   C155    1.084   1_655 S
H288   C423    1.088   .     S
N289   Zn300   2.022   .     S
N289   N290    1.293   .     D
N290   Zn299   2.022   .     S
O291   Zn299   1.951   .     S
O291   C151    1.277   1_655 S
O292   Zn300   1.951   .     S
O293   Zn300   1.977   .     S
O294   Zn299   1.977   .     S
O295   Zn299   1.970   .     S
O295   C174    1.293   1_655 S
O296   Zn300   1.970   .     S
O297   Zn300   1.919   .     S
O298   Zn299   1.919   .     S
C301   C322    1.402   .     S
C301   O343    1.290   .     A
C301   O441    1.277   1_455 S
C302   C304    1.455   .     S
C302   O348    1.300   .     A
C302   O396    1.293   .     S
C303   C309    1.389   .     A
C303   C324    1.455   .     S
C303   C407    1.402   1_455 S
C304   C310    1.389   .     A
C304   C358    1.402   .     S
C305   C314    1.403   .     A
C305   C407    1.392   1_455 S
C305   H435    1.084   1_455 S
C306   C315    1.403   .     A
C306   C358    1.392   .     S
C306   H386    1.084   .     S
C307   F326    1.357   .     S
C307   C353    1.402   .     S
C307   C355    1.392   .     S
C308   F325    1.357   .     S
C308   C404    1.402   1_455 S
C308   C406    1.392   1_455 S
C309   C311    1.392   .     A
C309   H334    1.075   .     S
C310   C313    1.392   .     A
C310   H333    1.075   .     S
C311   C316    1.419   .     A
C311   C314    1.417   .     A
C312   O344    1.290   .     A
C312   C323    1.402   .     S
C312   O392    1.277   .     S
C313   C317    1.419   .     A
C313   C315    1.417   .     A
C314   C770    1.386   .     S
C315   C771    1.386   1_554 S
C316   C319    1.425   .     A
C316   C767    1.420   .     S
C317   C318    1.425   .     A
C317   C766    1.420   1_554 S
C318   C320    1.386   .     A
C318   F327    1.357   .     S
C319   F328    1.357   .     S
C319   C321    1.386   .     A
C320   H331    1.084   .     S
C320   C764    1.386   1_554 S
C321   H332    1.084   .     S
C321   C765    1.386   .     S
C322   C123    1.338   1_465 S
C322   H37     1.088   1_565 S
C324   O347    1.300   .     A
C324   O445    1.293   1_455 S
F329   N339    1.335   .     S
F330   N340    1.335   .     S
H335   C355    1.084   .     S
H336   C406    1.084   1_455 S
H338   C23     1.088   1_565 S
N339   Zn350   2.022   .     S
N339   N340    1.293   .     D
N340   Zn349   2.022   .     S
O341   Zn349   1.951   .     S
O341   C351    1.277   .     S
O342   Zn350   1.951   .     S
O342   C412    1.277   1_455 S
O343   Zn350   1.977   .     S
O344   Zn349   1.977   .     S
O345   Zn349   1.970   .     S
O345   C374    1.293   .     S
O346   Zn350   1.970   .     S
O346   C402    1.293   1_455 S
O347   Zn350   1.919   .     S
O348   Zn349   1.919   .     S
C351   C372    1.402   .     S
C351   O393    1.290   .     A
C352   C354    1.455   .     S
C352   O398    1.300   .     A
C352   O446    1.293   .     S
C353   C359    1.389   .     A
C353   C374    1.455   .     S
C354   C360    1.389   .     A
C354   C408    1.402   .     S
C355   C364    1.403   .     A
C356   C365    1.403   .     A
C356   C408    1.392   .     S
C356   H436    1.084   .     S
C357   F376    1.357   .     S
C357   C403    1.402   .     S
C357   C405    1.392   .     S
C358   F375    1.357   .     S
C359   C361    1.392   .     A
C359   H384    1.075   .     S
C360   C363    1.392   .     A
C360   H383    1.075   .     S
C361   C366    1.419   .     A
C361   C364    1.417   .     A
C362   O394    1.290   .     A
C362   C373    1.402   .     S
C362   O442    1.277   .     S
C363   C367    1.419   .     A
C363   C365    1.417   .     A
C364   C820    1.386   .     S
C365   C821    1.386   1_554 S
C366   C369    1.425   .     A
C366   C817    1.420   .     S
C367   C368    1.425   .     A
C367   C816    1.420   1_554 S
C368   C370    1.386   .     A
C368   F377    1.357   .     S
C369   F378    1.357   .     S
C369   C371    1.386   .     A
C370   H381    1.084   .     S
C370   C814    1.386   1_554 S
C371   H382    1.084   .     S
C371   C815    1.386   .     S
C372   C23     1.338   1_565 S
C372   H87     1.088   1_565 S
C374   O397    1.300   .     A
F379   N389    1.335   .     S
F380   N390    1.335   .     S
H385   C405    1.084   .     S
H388   C73     1.088   1_565 S
N389   Zn400   2.022   .     S
N389   N390    1.293   .     D
N390   Zn399   2.022   .     S
O391   Zn399   1.951   .     S
O391   C401    1.277   .     S
O392   Zn400   1.951   .     S
O393   Zn400   1.977   .     S
O394   Zn399   1.977   .     S
O395   Zn399   1.970   .     S
O395   C424    1.293   .     S
O396   Zn400   1.970   .     S
O397   Zn400   1.919   .     S
O398   Zn399   1.919   .     S
C401   C422    1.402   .     S
C401   O443    1.290   .     A
C402   C404    1.455   .     S
C402   O448    1.300   .     A
C402   O346    1.293   1_655 S
C403   C409    1.389   .     A
C403   C424    1.455   .     S
C404   C410    1.389   .     A
C404   C308    1.402   1_655 S
C405   C414    1.403   .     A
C406   C415    1.403   .     A
C406   C308    1.392   1_655 S
C406   H336    1.084   1_655 S
C407   F426    1.357   .     S
C407   C303    1.402   1_655 S
C407   C305    1.392   1_655 S
C408   F425    1.357   .     S
C409   C411    1.392   .     A
C409   H434    1.075   .     S
C410   C413    1.392   .     A
C410   H433    1.075   .     S
C411   C416    1.419   .     A
C411   C414    1.417   .     A
C412   O444    1.290   .     A
C412   C423    1.402   .     S
C412   O342    1.277   1_655 S
C413   C417    1.419   .     A
C413   C415    1.417   .     A
C414   C870    1.386   .     S
C415   C871    1.386   1_554 S
C416   C419    1.425   .     A
C416   C867    1.420   .     S
C417   C418    1.425   .     A
C417   C866    1.420   1_554 S
C418   C420    1.386   .     A
C418   F427    1.357   .     S
C419   F428    1.357   .     S
C419   C421    1.386   .     A
C420   H431    1.084   .     S
C420   C864    1.386   1_554 S
C421   H432    1.084   .     S
C421   C865    1.386   .     S
C422   C73     1.338   1_565 S
C422   H137    1.088   1_565 S
C423   C172    1.338   1_655 S
C424   O447    1.300   .     A
F429   N439    1.335   .     S
F430   N440    1.335   .     S
H435   C305    1.084   1_655 S
H438   C123    1.088   1_565 S
N439   Zn450   2.022   .     S
N439   N440    1.293   .     D
N440   Zn449   2.022   .     S
O441   Zn449   1.951   .     S
O441   C301    1.277   1_655 S
O442   Zn450   1.951   .     S
O443   Zn450   1.977   .     S
O444   Zn449   1.977   .     S
O445   Zn449   1.970   .     S
O445   C324    1.293   1_655 S
O446   Zn450   1.970   .     S
O447   Zn450   1.919   .     S
O448   Zn449   1.919   .     S
C451   C472    1.402   .     S
C451   O493    1.290   .     A
C451   O591    1.277   1_455 S
C452   C454    1.455   .     S
C452   O498    1.300   .     A
C452   O546    1.293   .     S
C453   C459    1.389   .     A
C453   C474    1.455   .     S
C453   C557    1.402   1_455 S
C454   C460    1.389   .     A
C454   C508    1.402   .     S
C455   C464    1.403   .     A
C455   C557    1.392   1_455 S
C455   H585    1.084   1_455 S
C456   C465    1.403   .     A
C456   C508    1.392   .     S
C456   H536    1.084   .     S
C457   F476    1.357   .     S
C457   C503    1.402   .     S
C457   C505    1.392   .     S
C458   F475    1.357   .     S
C458   C554    1.402   1_455 S
C458   C556    1.392   1_455 S
C459   C461    1.392   .     A
C459   H484    1.075   .     S
C460   C463    1.392   .     A
C460   H483    1.075   .     S
C461   C466    1.419   .     A
C461   C464    1.417   .     A
C462   O494    1.290   .     A
C462   C473    1.402   .     S
C462   O542    1.277   .     S
C463   C467    1.419   .     A
C463   C465    1.417   .     A
C464   C20     1.386   1_556 S
C466   C469    1.425   .     A
C466   C17     1.420   1_556 S
C467   C468    1.425   .     A
C468   C470    1.386   .     A
C468   F477    1.357   .     S
C469   F478    1.357   .     S
C469   C471    1.386   .     A
C470   H481    1.084   .     S
C471   H482    1.084   .     S
C471   C15     1.386   1_556 S
C472   C723    1.338   1_455 S
C472   H637    1.088   .     S
C473   C822    1.338   1_545 S
C473   H788    1.088   1_545 S
C474   O497    1.300   .     A
C474   O595    1.293   1_455 S
F479   N489    1.335   .     S
F480   N490    1.335   .     S
H485   C505    1.084   .     S
H486   C556    1.084   1_455 S
H487   C772    1.088   1_545 S
H488   C623    1.088   .     S
N489   Zn500   2.022   .     S
N489   N490    1.293   .     D
N490   Zn499   2.022   .     S
O491   Zn499   1.951   .     S
O491   C501    1.277   .     S
O492   Zn500   1.951   .     S
O492   C562    1.277   1_455 S
O493   Zn500   1.977   .     S
O494   Zn499   1.977   .     S
O495   Zn499   1.970   .     S
O495   C524    1.293   .     S
O496   Zn500   1.970   .     S
O496   C552    1.293   1_455 S
O497   Zn500   1.919   .     S
O498   Zn499   1.919   .     S
C501   C522    1.402   .     S
C501   O543    1.290   .     A
C502   C504    1.455   .     S
C502   O548    1.300   .     A
C502   O596    1.293   .     S
C503   C509    1.389   .     A
C503   C524    1.455   .     S
C504   C510    1.389   .     A
C504   C558    1.402   .     S
C505   C514    1.403   .     A
C506   C515    1.403   .     A
C506   C558    1.392   .     S
C506   H586    1.084   .     S
C507   F526    1.357   .     S
C507   C553    1.402   .     S
C507   C555    1.392   .     S
C508   F525    1.357   .     S
C509   C511    1.392   .     A
C509   H534    1.075   .     S
C510   C513    1.392   .     A
C510   H533    1.075   .     S
C511   C516    1.419   .     A
C511   C514    1.417   .     A
C512   O544    1.290   .     A
C512   C523    1.402   .     S
C512   O592    1.277   .     S
C513   C517    1.419   .     A
C513   C515    1.417   .     A
C514   C70     1.386   1_556 S
C516   C519    1.425   .     A
C516   C67     1.420   1_556 S
C517   C518    1.425   .     A
C518   C520    1.386   .     A
C518   F527    1.357   .     S
C519   F528    1.357   .     S
C519   C521    1.386   .     A
C520   H531    1.084   .     S
C521   H532    1.084   .     S
C521   C65     1.386   1_556 S
C522   C623    1.338   .     S
C522   H687    1.088   .     S
C523   C872    1.338   1_545 S
C523   H838    1.088   1_545 S
C524   O547    1.300   .     A
F529   N539    1.335   .     S
F530   N540    1.335   .     S
H535   C555    1.084   .     S
H537   C822    1.088   1_545 S
H538   C673    1.088   .     S
N539   Zn550   2.022   .     S
N539   N540    1.293   .     D
N540   Zn549   2.022   .     S
O541   Zn549   1.951   .     S
O541   C551    1.277   .     S
O542   Zn550   1.951   .     S
O543   Zn550   1.977   .     S
O544   Zn549   1.977   .     S
O545   Zn549   1.970   .     S
O545   C574    1.293   .     S
O546   Zn550   1.970   .     S
O547   Zn550   1.919   .     S
O548   Zn549   1.919   .     S
C551   C572    1.402   .     S
C551   O593    1.290   .     A
C552   C554    1.455   .     S
C552   O598    1.300   .     A
C552   O496    1.293   1_655 S
C553   C559    1.389   .     A
C553   C574    1.455   .     S
C554   C560    1.389   .     A
C554   C458    1.402   1_655 S
C555   C564    1.403   .     A
C556   C565    1.403   .     A
C556   C458    1.392   1_655 S
C556   H486    1.084   1_655 S
C557   F576    1.357   .     S
C557   C453    1.402   1_655 S
C557   C455    1.392   1_655 S
C558   F575    1.357   .     S
C559   C561    1.392   .     A
C559   H584    1.075   .     S
C560   C563    1.392   .     A
C560   H583    1.075   .     S
C561   C566    1.419   .     A
C561   C564    1.417   .     A
C562   O594    1.290   .     A
C562   C573    1.402   .     S
C562   O492    1.277   1_655 S
C563   C567    1.419   .     A
C563   C565    1.417   .     A
C564   C120    1.386   1_556 S
C566   C569    1.425   .     A
C566   C117    1.420   1_556 S
C567   C568    1.425   .     A
C568   C570    1.386   .     A
C568   F577    1.357   .     S
C569   F578    1.357   .     S
C569   C571    1.386   .     A
C570   H581    1.084   .     S
C571   H582    1.084   .     S
C571   C115    1.386   1_556 S
C572   C673    1.338   .     S
C572   H737    1.088   .     S
C573   C772    1.338   1_645 S
C573   H888    1.088   1_545 S
C574   O597    1.300   .     A
F579   N589    1.335   .     S
F580   N590    1.335   .     S
H585   C455    1.084   1_655 S
H587   C872    1.088   1_545 S
H588   C723    1.088   .     S
N589   Zn600   2.022   .     S
N589   N590    1.293   .     D
N590   Zn599   2.022   .     S
O591   Zn599   1.951   .     S
O591   C451    1.277   1_655 S
O592   Zn600   1.951   .     S
O593   Zn600   1.977   .     S
O594   Zn599   1.977   .     S
O595   Zn599   1.970   .     S
O595   C474    1.293   1_655 S
O596   Zn600   1.970   .     S
O597   Zn600   1.919   .     S
O598   Zn599   1.919   .     S
C601   C622    1.402   .     S
C601   O643    1.290   .     A
C601   O741    1.277   1_455 S
C602   C604    1.455   .     S
C602   O648    1.300   .     A
C602   O696    1.293   .     S
C603   C609    1.389   .     A
C603   C624    1.455   .     S
C603   C707    1.402   1_455 S
C604   C610    1.389   .     A
C604   C658    1.402   .     S
C605   C614    1.403   .     A
C605   C707    1.392   1_455 S
C605   H735    1.084   1_455 S
C606   C615    1.403   .     A
C606   C658    1.392   .     S
C606   H686    1.084   .     S
C607   F626    1.357   .     S
C607   C653    1.402   .     S
C607   C655    1.392   .     S
C608   F625    1.357   .     S
C608   C704    1.402   1_455 S
C608   C706    1.392   1_455 S
C609   C611    1.392   .     A
C609   H634    1.075   .     S
C610   C613    1.392   .     A
C610   H633    1.075   .     S
C611   C616    1.419   .     A
C611   C614    1.417   .     A
C612   O644    1.290   .     A
C612   C623    1.402   .     S
C612   O692    1.277   .     S
C613   C617    1.419   .     A
C613   C615    1.417   .     A
C614   C170    1.386   1_556 S
C616   C619    1.425   .     A
C616   C167    1.420   1_556 S
C617   C618    1.425   .     A
C618   C620    1.386   .     A
C618   F627    1.357   .     S
C619   F628    1.357   .     S
C619   C621    1.386   .     A
C620   H631    1.084   .     S
C621   H632    1.084   .     S
C621   C165    1.386   1_556 S
C622   C873    1.338   1_455 S
C622   H787    1.088   .     S
C624   O647    1.300   .     A
C624   O745    1.293   1_455 S
F629   N639    1.335   .     S
F630   N640    1.335   .     S
H635   C655    1.084   .     S
H636   C706    1.084   1_455 S
H638   C773    1.088   .     S
N639   Zn650   2.022   .     S
N639   N640    1.293   .     D
N640   Zn649   2.022   .     S
O641   Zn649   1.951   .     S
O641   C651    1.277   .     S
O642   Zn650   1.951   .     S
O642   C712    1.277   1_455 S
O643   Zn650   1.977   .     S
O644   Zn649   1.977   .     S
O645   Zn649   1.970   .     S
O645   C674    1.293   .     S
O646   Zn650   1.970   .     S
O646   C702    1.293   1_455 S
O647   Zn650   1.919   .     S
O648   Zn649   1.919   .     S
C651   C672    1.402   .     S
C651   O693    1.290   .     A
C652   C654    1.455   .     S
C652   O698    1.300   .     A
C652   O746    1.293   .     S
C653   C659    1.389   .     A
C653   C674    1.455   .     S
C654   C660    1.389   .     A
C654   C708    1.402   .     S
C655   C664    1.403   .     A
C656   C665    1.403   .     A
C656   C708    1.392   .     S
C656   H736    1.084   .     S
C657   F676    1.357   .     S
C657   C703    1.402   .     S
C657   C705    1.392   .     S
C658   F675    1.357   .     S
C659   C661    1.392   .     A
C659   H684    1.075   .     S
C660   C663    1.392   .     A
C660   H683    1.075   .     S
C661   C666    1.419   .     A
C661   C664    1.417   .     A
C662   O694    1.290   .     A
C662   C673    1.402   .     S
C662   O742    1.277   .     S
C663   C667    1.419   .     A
C663   C665    1.417   .     A
C664   C220    1.386   1_556 S
C666   C669    1.425   .     A
C666   C217    1.420   1_556 S
C667   C668    1.425   .     A
C668   C670    1.386   .     A
C668   F677    1.357   .     S
C669   F678    1.357   .     S
C669   C671    1.386   .     A
C670   H681    1.084   .     S
C671   H682    1.084   .     S
C671   C215    1.386   1_556 S
C672   C773    1.338   .     S
C672   H837    1.088   .     S
C674   O697    1.300   .     A
F679   N689    1.335   .     S
F680   N690    1.335   .     S
H685   C705    1.084   .     S
H688   C823    1.088   .     S
N689   Zn700   2.022   .     S
N689   N690    1.293   .     D
N690   Zn699   2.022   .     S
O691   Zn699   1.951   .     S
O691   C701    1.277   .     S
O692   Zn700   1.951   .     S
O693   Zn700   1.977   .     S
O694   Zn699   1.977   .     S
O695   Zn699   1.970   .     S
O695   C724    1.293   .     S
O696   Zn700   1.970   .     S
O697   Zn700   1.919   .     S
O698   Zn699   1.919   .     S
C701   C722    1.402   .     S
C701   O743    1.290   .     A
C702   C704    1.455   .     S
C702   O748    1.300   .     A
C702   O646    1.293   1_655 S
C703   C709    1.389   .     A
C703   C724    1.455   .     S
C704   C710    1.389   .     A
C704   C608    1.402   1_655 S
C705   C714    1.403   .     A
C706   C715    1.403   .     A
C706   C608    1.392   1_655 S
C706   H636    1.084   1_655 S
C707   F726    1.357   .     S
C707   C603    1.402   1_655 S
C707   C605    1.392   1_655 S
C708   F725    1.357   .     S
C709   C711    1.392   .     A
C709   H734    1.075   .     S
C710   C713    1.392   .     A
C710   H733    1.075   .     S
C711   C716    1.419   .     A
C711   C714    1.417   .     A
C712   O744    1.290   .     A
C712   C723    1.402   .     S
C712   O642    1.277   1_655 S
C713   C717    1.419   .     A
C713   C715    1.417   .     A
C714   C270    1.386   1_556 S
C716   C719    1.425   .     A
C716   C267    1.420   1_556 S
C717   C718    1.425   .     A
C718   C720    1.386   .     A
C718   F727    1.357   .     S
C719   F728    1.357   .     S
C719   C721    1.386   .     A
C720   H731    1.084   .     S
C721   H732    1.084   .     S
C721   C265    1.386   1_556 S
C722   C823    1.338   .     S
C722   H887    1.088   .     S
C723   C472    1.338   1_655 S
C724   O747    1.300   .     A
F729   N739    1.335   .     S
F730   N740    1.335   .     S
H735   C605    1.084   1_655 S
H738   C873    1.088   .     S
N739   Zn750   2.022   .     S
N739   N740    1.293   .     D
N740   Zn749   2.022   .     S
O741   Zn749   1.951   .     S
O741   C601    1.277   1_655 S
O742   Zn750   1.951   .     S
O743   Zn750   1.977   .     S
O744   Zn749   1.977   .     S
O745   Zn749   1.970   .     S
O745   C624    1.293   1_655 S
O746   Zn750   1.970   .     S
O747   Zn750   1.919   .     S
O748   Zn749   1.919   .     S
C751   C772    1.402   .     S
C751   O793    1.290   .     A
C751   O891    1.277   1_455 S
C752   C754    1.455   .     S
C752   O798    1.300   .     A
C752   O846    1.293   .     S
C753   C759    1.389   .     A
C753   C774    1.455   .     S
C753   C857    1.402   1_455 S
C754   C760    1.389   .     A
C754   C808    1.402   .     S
C755   C764    1.403   .     A
C755   C857    1.392   1_455 S
C755   H885    1.084   1_455 S
C756   C765    1.403   .     A
C756   C808    1.392   .     S
C756   H836    1.084   .     S
C757   F776    1.357   .     S
C757   C803    1.402   .     S
C757   C805    1.392   .     S
C758   F775    1.357   .     S
C758   C854    1.402   1_455 S
C758   C856    1.392   1_455 S
C759   C761    1.392   .     A
C759   H784    1.075   .     S
C760   C763    1.392   .     A
C760   H783    1.075   .     S
C761   C766    1.419   .     A
C761   C764    1.417   .     A
C762   O794    1.290   .     A
C762   C773    1.402   .     S
C762   O842    1.277   .     S
C763   C767    1.419   .     A
C763   C765    1.417   .     A
C764   C320    1.386   1_556 S
C766   C769    1.425   .     A
C766   C317    1.420   1_556 S
C767   C768    1.425   .     A
C768   C770    1.386   .     A
C768   F777    1.357   .     S
C769   F778    1.357   .     S
C769   C771    1.386   .     A
C770   H781    1.084   .     S
C771   H782    1.084   .     S
C771   C315    1.386   1_556 S
C772   C573    1.338   1_465 S
C772   H487    1.088   1_565 S
C774   O797    1.300   .     A
C774   O895    1.293   1_455 S
F779   N789    1.335   .     S
F780   N790    1.335   .     S
H785   C805    1.084   .     S
H786   C856    1.084   1_455 S
H788   C473    1.088   1_565 S
N789   Zn800   2.022   .     S
N789   N790    1.293   .     D
N790   Zn799   2.022   .     S
O791   Zn799   1.951   .     S
O791   C801    1.277   .     S
O792   Zn800   1.951   .     S
O792   C862    1.277   1_455 S
O793   Zn800   1.977   .     S
O794   Zn799   1.977   .     S
O795   Zn799   1.970   .     S
O795   C824    1.293   .     S
O796   Zn800   1.970   .     S
O796   C852    1.293   1_455 S
O797   Zn800   1.919   .     S
O798   Zn799   1.919   .     S
C801   C822    1.402   .     S
C801   O843    1.290   .     A
C802   C804    1.455   .     S
C802   O848    1.300   .     A
C802   O896    1.293   .     S
C803   C809    1.389   .     A
C803   C824    1.455   .     S
C804   C810    1.389   .     A
C804   C858    1.402   .     S
C805   C814    1.403   .     A
C806   C815    1.403   .     A
C806   C858    1.392   .     S
C806   H886    1.084   .     S
C807   F826    1.357   .     S
C807   C853    1.402   .     S
C807   C855    1.392   .     S
C808   F825    1.357   .     S
C809   C811    1.392   .     A
C809   H834    1.075   .     S
C810   C813    1.392   .     A
C810   H833    1.075   .     S
C811   C816    1.419   .     A
C811   C814    1.417   .     A
C812   O844    1.290   .     A
C812   C823    1.402   .     S
C812   O892    1.277   .     S
C813   C817    1.419   .     A
C813   C815    1.417   .     A
C814   C370    1.386   1_556 S
C816   C819    1.425   .     A
C816   C367    1.420   1_556 S
C817   C818    1.425   .     A
C818   C820    1.386   .     A
C818   F827    1.357   .     S
C819   F828    1.357   .     S
C819   C821    1.386   .     A
C820   H831    1.084   .     S
C821   H832    1.084   .     S
C821   C365    1.386   1_556 S
C822   C473    1.338   1_565 S
C822   H537    1.088   1_565 S
C824   O847    1.300   .     A
F829   N839    1.335   .     S
F830   N840    1.335   .     S
H835   C855    1.084   .     S
H838   C523    1.088   1_565 S
N839   Zn850   2.022   .     S
N839   N840    1.293   .     D
N840   Zn849   2.022   .     S
O841   Zn849   1.951   .     S
O841   C851    1.277   .     S
O842   Zn850   1.951   .     S
O843   Zn850   1.977   .     S
O844   Zn849   1.977   .     S
O845   Zn849   1.970   .     S
O845   C874    1.293   .     S
O846   Zn850   1.970   .     S
O847   Zn850   1.919   .     S
O848   Zn849   1.919   .     S
C851   C872    1.402   .     S
C851   O893    1.290   .     A
C852   C854    1.455   .     S
C852   O898    1.300   .     A
C852   O796    1.293   1_655 S
C853   C859    1.389   .     A
C853   C874    1.455   .     S
C854   C860    1.389   .     A
C854   C758    1.402   1_655 S
C855   C864    1.403   .     A
C856   C865    1.403   .     A
C856   C758    1.392   1_655 S
C856   H786    1.084   1_655 S
C857   F876    1.357   .     S
C857   C753    1.402   1_655 S
C857   C755    1.392   1_655 S
C858   F875    1.357   .     S
C859   C861    1.392   .     A
C859   H884    1.075   .     S
C860   C863    1.392   .     A
C860   H883    1.075   .     S
C861   C866    1.419   .     A
C861   C864    1.417   .     A
C862   O894    1.290   .     A
C862   C873    1.402   .     S
C862   O792    1.277   1_655 S
C863   C867    1.419   .     A
C863   C865    1.417   .     A
C864   C420    1.386   1_556 S
C866   C869    1.425   .     A
C866   C417    1.420   1_556 S
C867   C868    1.425   .     A
C868   C870    1.386   .     A
C868   F877    1.357   .     S
C869   F878    1.357   .     S
C869   C871    1.386   .     A
C870   H881    1.084   .     S
C871   H882    1.084   .     S
C871   C415    1.386   1_556 S
C872   C523    1.338   1_565 S
C872   H587    1.088   1_565 S
C873   C622    1.338   1_655 S
C874   O897    1.300   .     A
F879   N889    1.335   .     S
F880   N890    1.335   .     S
H885   C755    1.084   1_655 S
H888   C573    1.088   1_565 S
N889   Zn900   2.022   .     S
N889   N890    1.293   .     D
N890   Zn899   2.022   .     S
O891   Zn899   1.951   .     S
O891   C751    1.277   1_655 S
O892   Zn900   1.951   .     S
O893   Zn900   1.977   .     S
O894   Zn899   1.977   .     S
O895   Zn899   1.970   .     S
O895   C774    1.293   1_655 S
O896   Zn900   1.970   .     S
O897   Zn900   1.919   .     S
O898   Zn899   1.919   .     S
