data_str_m3_o1_o17_pcu_sym.194
_audit_creation_date              2020-01-03
_audit_creation_method            'Materials Studio'
_symmetry_space_group_name_H-M    'P1'
_symmetry_Int_Tables_number       1
_symmetry_cell_setting            triclinic
loop_
_symmetry_equiv_pos_as_xyz
  x,y,z
_cell_length_a                    32.5239
_cell_length_b                    29.9792
_cell_length_c                    29.9442
_cell_angle_alpha                 92.0842
_cell_angle_beta                  88.3584
_cell_angle_gamma                 89.4430
loop_
_atom_site_label
_atom_site_type_symbol
_atom_site_fract_x
_atom_site_fract_y
_atom_site_fract_z
_atom_site_U_iso_or_equiv
_atom_site_adp_type
_atom_site_occupancy
C1     C     0.08683   0.16670   0.24831   0.00000  Uiso   1.00
C2     C     0.24665   0.16635   0.24865   0.00000  Uiso   1.00
C3     C     0.09318   0.18006   0.02550   0.00000  Uiso   1.00
C4     C     0.24167   0.15362   0.47365   0.00000  Uiso   1.00
C5     C     0.02214   0.12540   0.23709   0.00000  Uiso   1.00
C6     C     0.31200   0.20585   0.23821   0.00000  Uiso   1.00
C7     C     0.31341   0.12503   0.24505   0.00000  Uiso   1.00
C8     C     0.02039   0.20699   0.24483   0.00000  Uiso   1.00
C9     C     0.29102   0.16559   0.24410   0.00000  Uiso   1.00
C10    C     0.04284   0.16643   0.24312   0.00000  Uiso   1.00
C11    C     0.17031   0.02481   0.28881   0.00000  Uiso   1.00
C12    C     0.15845   0.30802   0.21185   0.00000  Uiso   1.00
C13    C     0.16239   0.02231   0.21123   0.00000  Uiso   1.00
C14    C     0.17445   0.31059   0.28794   0.00000  Uiso   1.00
C15    C     0.16736   0.16589   0.16363   0.00000  Uiso   1.00
C16    C     0.16634   0.16753   0.33627   0.00000  Uiso   1.00
C17    C     0.20449   0.16228   0.40463   0.00000  Uiso   1.00
C18    C     0.12968   0.16687   0.09472   0.00000  Uiso   1.00
C19    C     0.16727   0.17010   0.38394   0.00000  Uiso   1.00
C20    C     0.16750   0.16375   0.11577   0.00000  Uiso   1.00
C21    C     0.13111   0.18115   0.40827   0.00000  Uiso   1.00
C22    C     0.20508   0.16003   0.09146   0.00000  Uiso   1.00
C23    C     0.13130   0.18086   0.45504   0.00000  Uiso   1.00
C24    C     0.20418   0.15626   0.04480   0.00000  Uiso   1.00
C25    C     0.16766   0.16843   0.47641   0.00000  Uiso   1.00
C26    C     0.16712   0.16507   0.02314   0.00000  Uiso   1.00
C27    C     0.20496   0.16162   0.45137   0.00000  Uiso   1.00
C28    C     0.12950   0.17003   0.04799   0.00000  Uiso   1.00
C29    C     0.09570   0.19168   0.48103   0.00000  Uiso   1.00
C30    C     0.24008   0.14544   0.01929   0.00000  Uiso   1.00
N31    N     0.16667   0.28573   0.25000   0.00000  Uiso   1.00
N32    N     0.16667   0.04760   0.25000   0.00000  Uiso   1.00
O33    O     0.10559   0.20487   0.25000   0.00000  Uiso   1.00
O34    O     0.22774   0.12846   0.25001   0.00000  Uiso   1.00
O35    O     0.22774   0.20487   0.25001   0.00000  Uiso   1.00
O36    O     0.10559   0.12846   0.25000   0.00000  Uiso   1.00
O37    O     0.16666   0.20489   0.18393   0.00000  Uiso   1.00
O38    O     0.16667   0.12844   0.31608   0.00000  Uiso   1.00
O39    O     0.16667   0.20489   0.31608   0.00000  Uiso   1.00
O40    O     0.16666   0.12844   0.18393   0.00000  Uiso   1.00
Zn41   Zn    0.16667   0.21771   0.25000   0.00000  Uiso   1.00
Zn42   Zn    0.16667   0.11563   0.25000   0.00000  Uiso   1.00
O43    O     0.23892   0.14906   0.37908   0.00000  Uiso   1.00
C44    C     0.25929   0.18703   0.36342   0.00000  Uiso   1.00
H45    H     0.26161   0.21415   0.38939   0.00000  Uiso   1.00
H46    H     0.29107   0.17708   0.35259   0.00000  Uiso   1.00
H47    H     0.24385   0.20014   0.33425   0.00000  Uiso   1.00
O48    O     0.09330   0.16428   0.11986   0.00000  Uiso   1.00
C49    C     0.07917   0.20733   0.13412   0.00000  Uiso   1.00
H50    H     0.08473   0.23327   0.10901   0.00000  Uiso   1.00
H51    H     0.09281   0.21747   0.16616   0.00000  Uiso   1.00
H52    H     0.04549   0.20583   0.14032   0.00000  Uiso   1.00
O53    O     0.09592   0.19254   0.38601   0.00000  Uiso   1.00
C54    C     0.07210   0.15401   0.37867   0.00000  Uiso   1.00
H55    H     0.04134   0.16456   0.36767   0.00000  Uiso   1.00
H56    H     0.06723   0.13481   0.40950   0.00000  Uiso   1.00
H57    H     0.08625   0.13230   0.35153   0.00000  Uiso   1.00
O58    O     0.24141   0.17359   0.11087   0.00000  Uiso   1.00
C59    C     0.25939   0.13889   0.13428   0.00000  Uiso   1.00
H60    H     0.29150   0.14819   0.14131   0.00000  Uiso   1.00
H61    H     0.26046   0.10645   0.11535   0.00000  Uiso   1.00
H62    H     0.24343   0.13514   0.16661   0.00000  Uiso   1.00
O63    O     0.06382   0.21638   0.46458   0.00000  Uiso   1.00
C64    C     0.07506   0.26205   0.46499   0.00000  Uiso   1.00
H65    H     0.08188   0.27153   0.43005   0.00000  Uiso   1.00
H66    H     0.10290   0.27015   0.48477   0.00000  Uiso   1.00
C67    C     0.03943   0.29079   0.48459   0.00000  Uiso   1.00
H68    H     0.01116   0.28397   0.46571   0.00000  Uiso   1.00
H69    H     0.03334   0.28220   0.01996   0.00000  Uiso   1.00
C70    C     0.04944   0.00701   0.48268   0.00000  Uiso   1.00
H71    H     0.07592   0.01515   0.00402   0.00000  Uiso   1.00
H72    H     0.02250   0.02714   0.49502   0.00000  Uiso   1.00
H73    H     0.05692   0.01612   0.44778   0.00000  Uiso   1.00
O74    O     0.27342   0.12625   0.03931   0.00000  Uiso   1.00
C75    C     0.28241   0.08278   0.02071   0.00000  Uiso   1.00
H76    H     0.30913   0.06995   0.03862   0.00000  Uiso   1.00
H77    H     0.29236   0.08349   0.48498   0.00000  Uiso   1.00
C78    C     0.24718   0.04944   0.02699   0.00000  Uiso   1.00
H79    H     0.23960   0.04691   0.06308   0.00000  Uiso   1.00
H80    H     0.21926   0.06078   0.00994   0.00000  Uiso   1.00
C81    C     0.25936   0.00318   0.00768   0.00000  Uiso   1.00
H82    H     0.26616   0.00454   0.47118   0.00000  Uiso   1.00
H83    H     0.23368   0.31300   0.01315   0.00000  Uiso   1.00
H84    H     0.28692   0.32372   0.02434   0.00000  Uiso   1.00
O85    O     0.05525   0.18258   0.04720   0.00000  Uiso   1.00
C86    C     0.03801   0.13965   0.04510   0.00000  Uiso   1.00
H87    H     0.02806   0.13101   0.01067   0.00000  Uiso   1.00
H88    H     0.01094   0.13969   0.06835   0.00000  Uiso   1.00
H89    H     0.05955   0.11341   0.05602   0.00000  Uiso   1.00
O90    O     0.27932   0.15359   0.45105   0.00000  Uiso   1.00
C91    C     0.30066   0.19251   0.46409   0.00000  Uiso   1.00
H92    H     0.28112   0.22322   0.46330   0.00000  Uiso   1.00
H93    H     0.32667   0.19649   0.44002   0.00000  Uiso   1.00
H94    H     0.31314   0.18976   0.49796   0.00000  Uiso   1.00
O95    O     0.04221   0.08434   0.23322   0.00000  Uiso   1.00
C96    C     0.05892   0.07638   0.18941   0.00000  Uiso   1.00
H97    H     0.07935   0.04664   0.19095   0.00000  Uiso   1.00
H98    H     0.07858   0.10407   0.17802   0.00000  Uiso   1.00
C99    C     0.02600   0.06679   0.15480   0.00000  Uiso   1.00
H100   H     0.33277   0.04981   0.17044   0.00000  Uiso   1.00
H101   H     0.01485   0.09889   0.14210   0.00000  Uiso   1.00
C102   C     0.04365   0.03786   0.11560   0.00000  Uiso   1.00
H103   H     0.07253   0.05239   0.10216   0.00000  Uiso   1.00
H104   H     0.02121   0.03562   0.08848   0.00000  Uiso   1.00
H105   H     0.05039   0.00363   0.12663   0.00000  Uiso   1.00
O106   O     0.29201   0.24547   0.22996   0.00000  Uiso   1.00
C107   C     0.28729   0.24825   0.18329   0.00000  Uiso   1.00
H108   H     0.25598   0.23696   0.17470   0.00000  Uiso   1.00
H109   H     0.31017   0.22773   0.16271   0.00000  Uiso   1.00
C110   C     0.29218   0.29665   0.17063   0.00000  Uiso   1.00
H111   H     0.26771   0.31741   0.18798   0.00000  Uiso   1.00
H112   H     0.32252   0.30852   0.18197   0.00000  Uiso   1.00
C113   C     0.29003   0.30144   0.12014   0.00000  Uiso   1.00
H114   H     0.31723   0.28515   0.10293   0.00000  Uiso   1.00
H115   H     0.28964   0.00401   0.11245   0.00000  Uiso   1.00
H116   H     0.26171   0.28600   0.10707   0.00000  Uiso   1.00
O117   O     0.29513   0.08406   0.25142   0.00000  Uiso   1.00
C118   C     0.28802   0.07785   0.29777   0.00000  Uiso   1.00
H119   H     0.26900   0.04755   0.30084   0.00000  Uiso   1.00
H120   H     0.26972   0.10575   0.31361   0.00000  Uiso   1.00
C121   C     0.32775   0.07106   0.32356   0.00000  Uiso   1.00
H122   H     0.01223   0.04226   0.30856   0.00000  Uiso   1.00
H123   H     0.01389   0.10112   0.32188   0.00000  Uiso   1.00
C124   C     0.31815   0.06340   0.37283   0.00000  Uiso   1.00
H125   H     0.30358   0.09367   0.38893   0.00000  Uiso   1.00
H126   H     0.01376   0.05639   0.39017   0.00000  Uiso   1.00
H127   H     0.29700   0.03490   0.37658   0.00000  Uiso   1.00
O128   O     0.03848   0.24837   0.25105   0.00000  Uiso   1.00
C129   C     0.04309   0.25766   0.29746   0.00000  Uiso   1.00
H130   H     0.06541   0.28531   0.30103   0.00000  Uiso   1.00
H131   H     0.05648   0.22880   0.31463   0.00000  Uiso   1.00
C132   C     0.00243   0.27234   0.32106   0.00000  Uiso   1.00
H133   H     0.32330   0.30242   0.30546   0.00000  Uiso   1.00
H134   H     0.31283   0.24551   0.31795   0.00000  Uiso   1.00
C135   C     0.00837   0.28173   0.37071   0.00000  Uiso   1.00
H136   H     0.01987   0.25118   0.38627   0.00000  Uiso   1.00
H137   H     0.31183   0.29141   0.38730   0.00000  Uiso   1.00
H138   H     0.03073   0.30905   0.37580   0.00000  Uiso   1.00
O139   O     0.17075   0.04776   0.32948   0.00000  Uiso   1.00
C140   C     0.13155   0.04432   0.35058   0.00000  Uiso   1.00
H141   H     0.10658   0.05554   0.32872   0.00000  Uiso   1.00
H142   H     0.13057   0.06634   0.38120   0.00000  Uiso   1.00
H143   H     0.12561   0.00976   0.36116   0.00000  Uiso   1.00
O144   O     0.13902   0.28523   0.17740   0.00000  Uiso   1.00
C145   C     0.16291   0.28452   0.13726   0.00000  Uiso   1.00
H146   H     0.19617   0.27921   0.14298   0.00000  Uiso   1.00
H147   H     0.15653   0.31429   0.11764   0.00000  Uiso   1.00
H148   H     0.15340   0.25601   0.11572   0.00000  Uiso   1.00
O149   O     0.16009   0.04313   0.17131   0.00000  Uiso   1.00
C150   C     0.20068   0.04880   0.15463   0.00000  Uiso   1.00
H151   H     0.22063   0.06530   0.17973   0.00000  Uiso   1.00
H152   H     0.19906   0.06969   0.12505   0.00000  Uiso   1.00
H153   H     0.21550   0.01699   0.14332   0.00000  Uiso   1.00
O154   O     0.18152   0.28920   0.32702   0.00000  Uiso   1.00
C155   C     0.22284   0.29551   0.33846   0.00000  Uiso   1.00
H156   H     0.22991   0.33118   0.34539   0.00000  Uiso   1.00
H157   H     0.24418   0.28104   0.31197   0.00000  Uiso   1.00
H158   H     0.22817   0.27833   0.36988   0.00000  Uiso   1.00
C159   C     0.42016   0.16670   0.24831   0.00000  Uiso   1.00
C160   C     0.57998   0.16635   0.24865   0.00000  Uiso   1.00
C161   C     0.42651   0.18006   0.02550   0.00000  Uiso   1.00
C162   C     0.57500   0.15362   0.47365   0.00000  Uiso   1.00
C163   C     0.35547   0.12540   0.23709   0.00000  Uiso   1.00
C164   C     0.64533   0.20585   0.23821   0.00000  Uiso   1.00
C165   C     0.64674   0.12503   0.24505   0.00000  Uiso   1.00
C166   C     0.35373   0.20699   0.24483   0.00000  Uiso   1.00
C167   C     0.62435   0.16559   0.24410   0.00000  Uiso   1.00
C168   C     0.37617   0.16643   0.24312   0.00000  Uiso   1.00
C169   C     0.50364   0.02481   0.28881   0.00000  Uiso   1.00
C170   C     0.49179   0.30802   0.21185   0.00000  Uiso   1.00
C171   C     0.49573   0.02231   0.21123   0.00000  Uiso   1.00
C172   C     0.50778   0.31059   0.28794   0.00000  Uiso   1.00
C173   C     0.50069   0.16589   0.16363   0.00000  Uiso   1.00
C174   C     0.49967   0.16753   0.33627   0.00000  Uiso   1.00
C175   C     0.53783   0.16228   0.40463   0.00000  Uiso   1.00
C176   C     0.46302   0.16687   0.09472   0.00000  Uiso   1.00
C177   C     0.50060   0.17010   0.38394   0.00000  Uiso   1.00
C178   C     0.50083   0.16375   0.11577   0.00000  Uiso   1.00
C179   C     0.46444   0.18115   0.40827   0.00000  Uiso   1.00
C180   C     0.53841   0.16003   0.09146   0.00000  Uiso   1.00
C181   C     0.46463   0.18086   0.45504   0.00000  Uiso   1.00
C182   C     0.53752   0.15626   0.04480   0.00000  Uiso   1.00
C183   C     0.50099   0.16843   0.47641   0.00000  Uiso   1.00
C184   C     0.50046   0.16507   0.02314   0.00000  Uiso   1.00
C185   C     0.53830   0.16162   0.45137   0.00000  Uiso   1.00
C186   C     0.46283   0.17003   0.04799   0.00000  Uiso   1.00
C187   C     0.42903   0.19168   0.48103   0.00000  Uiso   1.00
C188   C     0.57342   0.14544   0.01929   0.00000  Uiso   1.00
N189   N     0.50000   0.28573   0.25000   0.00000  Uiso   1.00
N190   N     0.50000   0.04760   0.25000   0.00000  Uiso   1.00
O191   O     0.43892   0.20487   0.25000   0.00000  Uiso   1.00
O192   O     0.56108   0.12846   0.25001   0.00000  Uiso   1.00
O193   O     0.56108   0.20487   0.25001   0.00000  Uiso   1.00
O194   O     0.43892   0.12846   0.25000   0.00000  Uiso   1.00
O195   O     0.49999   0.20489   0.18393   0.00000  Uiso   1.00
O196   O     0.50001   0.12844   0.31608   0.00000  Uiso   1.00
O197   O     0.50001   0.20489   0.31608   0.00000  Uiso   1.00
O198   O     0.49999   0.12844   0.18393   0.00000  Uiso   1.00
Zn199  Zn    0.50000   0.21771   0.25000   0.00000  Uiso   1.00
Zn200  Zn    0.50000   0.11563   0.25000   0.00000  Uiso   1.00
O201   O     0.57225   0.14906   0.37908   0.00000  Uiso   1.00
C202   C     0.59263   0.18703   0.36342   0.00000  Uiso   1.00
H203   H     0.59495   0.21415   0.38939   0.00000  Uiso   1.00
H204   H     0.62441   0.17708   0.35259   0.00000  Uiso   1.00
H205   H     0.57718   0.20014   0.33425   0.00000  Uiso   1.00
O206   O     0.42663   0.16428   0.11986   0.00000  Uiso   1.00
C207   C     0.41251   0.20733   0.13412   0.00000  Uiso   1.00
H208   H     0.41806   0.23327   0.10901   0.00000  Uiso   1.00
H209   H     0.42614   0.21747   0.16616   0.00000  Uiso   1.00
H210   H     0.37882   0.20583   0.14032   0.00000  Uiso   1.00
O211   O     0.42926   0.19254   0.38601   0.00000  Uiso   1.00
C212   C     0.40544   0.15401   0.37867   0.00000  Uiso   1.00
H213   H     0.37467   0.16456   0.36767   0.00000  Uiso   1.00
H214   H     0.40057   0.13481   0.40950   0.00000  Uiso   1.00
H215   H     0.41958   0.13230   0.35153   0.00000  Uiso   1.00
O216   O     0.57474   0.17359   0.11087   0.00000  Uiso   1.00
C217   C     0.59273   0.13889   0.13428   0.00000  Uiso   1.00
H218   H     0.62483   0.14819   0.14131   0.00000  Uiso   1.00
H219   H     0.59379   0.10645   0.11535   0.00000  Uiso   1.00
H220   H     0.57676   0.13514   0.16661   0.00000  Uiso   1.00
O221   O     0.39716   0.21638   0.46458   0.00000  Uiso   1.00
C222   C     0.40839   0.26205   0.46499   0.00000  Uiso   1.00
H223   H     0.41522   0.27153   0.43005   0.00000  Uiso   1.00
H224   H     0.43623   0.27015   0.48477   0.00000  Uiso   1.00
C225   C     0.37277   0.29079   0.48459   0.00000  Uiso   1.00
H226   H     0.34450   0.28397   0.46571   0.00000  Uiso   1.00
H227   H     0.36667   0.28220   0.01996   0.00000  Uiso   1.00
C228   C     0.38277   0.00701   0.48268   0.00000  Uiso   1.00
H229   H     0.40926   0.01515   0.00402   0.00000  Uiso   1.00
H230   H     0.35583   0.02714   0.49502   0.00000  Uiso   1.00
H231   H     0.39026   0.01612   0.44778   0.00000  Uiso   1.00
O232   O     0.60675   0.12625   0.03931   0.00000  Uiso   1.00
C233   C     0.61575   0.08278   0.02071   0.00000  Uiso   1.00
H234   H     0.64246   0.06995   0.03862   0.00000  Uiso   1.00
H235   H     0.62570   0.08349   0.48498   0.00000  Uiso   1.00
C236   C     0.58051   0.04944   0.02699   0.00000  Uiso   1.00
H237   H     0.57293   0.04691   0.06308   0.00000  Uiso   1.00
H238   H     0.55259   0.06078   0.00994   0.00000  Uiso   1.00
C239   C     0.59269   0.00318   0.00768   0.00000  Uiso   1.00
H240   H     0.59950   0.00454   0.47118   0.00000  Uiso   1.00
H241   H     0.56701   0.31300   0.01315   0.00000  Uiso   1.00
H242   H     0.62025   0.32372   0.02434   0.00000  Uiso   1.00
O243   O     0.38859   0.18258   0.04720   0.00000  Uiso   1.00
C244   C     0.37134   0.13965   0.04510   0.00000  Uiso   1.00
H245   H     0.36139   0.13101   0.01067   0.00000  Uiso   1.00
H246   H     0.34427   0.13969   0.06835   0.00000  Uiso   1.00
H247   H     0.39288   0.11341   0.05602   0.00000  Uiso   1.00
O248   O     0.61265   0.15359   0.45105   0.00000  Uiso   1.00
C249   C     0.63399   0.19251   0.46409   0.00000  Uiso   1.00
H250   H     0.61446   0.22322   0.46330   0.00000  Uiso   1.00
H251   H     0.66000   0.19649   0.44002   0.00000  Uiso   1.00
H252   H     0.64647   0.18976   0.49796   0.00000  Uiso   1.00
O253   O     0.37554   0.08434   0.23322   0.00000  Uiso   1.00
C254   C     0.39225   0.07638   0.18941   0.00000  Uiso   1.00
H255   H     0.41268   0.04664   0.19095   0.00000  Uiso   1.00
H256   H     0.41192   0.10407   0.17802   0.00000  Uiso   1.00
C257   C     0.35933   0.06679   0.15480   0.00000  Uiso   1.00
H258   H     0.66610   0.04981   0.17044   0.00000  Uiso   1.00
H259   H     0.34818   0.09889   0.14210   0.00000  Uiso   1.00
C260   C     0.37698   0.03786   0.11560   0.00000  Uiso   1.00
H261   H     0.40586   0.05239   0.10216   0.00000  Uiso   1.00
H262   H     0.35454   0.03562   0.08848   0.00000  Uiso   1.00
H263   H     0.38372   0.00363   0.12663   0.00000  Uiso   1.00
O264   O     0.62534   0.24547   0.22996   0.00000  Uiso   1.00
C265   C     0.62062   0.24825   0.18329   0.00000  Uiso   1.00
H266   H     0.58931   0.23696   0.17470   0.00000  Uiso   1.00
H267   H     0.64350   0.22773   0.16271   0.00000  Uiso   1.00
C268   C     0.62551   0.29665   0.17063   0.00000  Uiso   1.00
H269   H     0.60104   0.31741   0.18798   0.00000  Uiso   1.00
H270   H     0.65585   0.30852   0.18197   0.00000  Uiso   1.00
C271   C     0.62336   0.30144   0.12014   0.00000  Uiso   1.00
H272   H     0.65057   0.28515   0.10293   0.00000  Uiso   1.00
H273   H     0.62297   0.00401   0.11245   0.00000  Uiso   1.00
H274   H     0.59504   0.28600   0.10707   0.00000  Uiso   1.00
O275   O     0.62846   0.08406   0.25142   0.00000  Uiso   1.00
C276   C     0.62135   0.07785   0.29777   0.00000  Uiso   1.00
H277   H     0.60233   0.04755   0.30084   0.00000  Uiso   1.00
H278   H     0.60305   0.10575   0.31361   0.00000  Uiso   1.00
C279   C     0.66108   0.07106   0.32356   0.00000  Uiso   1.00
H280   H     0.34557   0.04226   0.30856   0.00000  Uiso   1.00
H281   H     0.34722   0.10112   0.32188   0.00000  Uiso   1.00
C282   C     0.65149   0.06340   0.37283   0.00000  Uiso   1.00
H283   H     0.63691   0.09367   0.38893   0.00000  Uiso   1.00
H284   H     0.34709   0.05639   0.39017   0.00000  Uiso   1.00
H285   H     0.63033   0.03490   0.37658   0.00000  Uiso   1.00
O286   O     0.37182   0.24837   0.25105   0.00000  Uiso   1.00
C287   C     0.37642   0.25766   0.29746   0.00000  Uiso   1.00
H288   H     0.39874   0.28531   0.30103   0.00000  Uiso   1.00
H289   H     0.38981   0.22880   0.31463   0.00000  Uiso   1.00
C290   C     0.33576   0.27234   0.32106   0.00000  Uiso   1.00
H291   H     0.65664   0.30242   0.30546   0.00000  Uiso   1.00
H292   H     0.64616   0.24551   0.31795   0.00000  Uiso   1.00
C293   C     0.34170   0.28173   0.37071   0.00000  Uiso   1.00
H294   H     0.35321   0.25118   0.38627   0.00000  Uiso   1.00
H295   H     0.64516   0.29141   0.38730   0.00000  Uiso   1.00
H296   H     0.36406   0.30905   0.37580   0.00000  Uiso   1.00
O297   O     0.50408   0.04776   0.32948   0.00000  Uiso   1.00
C298   C     0.46488   0.04432   0.35058   0.00000  Uiso   1.00
H299   H     0.43991   0.05554   0.32872   0.00000  Uiso   1.00
H300   H     0.46391   0.06634   0.38120   0.00000  Uiso   1.00
H301   H     0.45895   0.00976   0.36116   0.00000  Uiso   1.00
O302   O     0.47235   0.28523   0.17740   0.00000  Uiso   1.00
C303   C     0.49624   0.28452   0.13726   0.00000  Uiso   1.00
H304   H     0.52951   0.27921   0.14298   0.00000  Uiso   1.00
H305   H     0.48986   0.31429   0.11764   0.00000  Uiso   1.00
H306   H     0.48673   0.25601   0.11572   0.00000  Uiso   1.00
O307   O     0.49342   0.04313   0.17131   0.00000  Uiso   1.00
C308   C     0.53402   0.04880   0.15463   0.00000  Uiso   1.00
H309   H     0.55397   0.06530   0.17973   0.00000  Uiso   1.00
H310   H     0.53239   0.06969   0.12505   0.00000  Uiso   1.00
H311   H     0.54884   0.01699   0.14332   0.00000  Uiso   1.00
O312   O     0.51485   0.28920   0.32702   0.00000  Uiso   1.00
C313   C     0.55617   0.29551   0.33846   0.00000  Uiso   1.00
H314   H     0.56325   0.33118   0.34539   0.00000  Uiso   1.00
H315   H     0.57751   0.28104   0.31197   0.00000  Uiso   1.00
H316   H     0.56150   0.27833   0.36988   0.00000  Uiso   1.00
C317   C     0.75349   0.16670   0.24831   0.00000  Uiso   1.00
C318   C     0.91332   0.16635   0.24865   0.00000  Uiso   1.00
C319   C     0.75985   0.18006   0.02550   0.00000  Uiso   1.00
C320   C     0.90833   0.15362   0.47365   0.00000  Uiso   1.00
C321   C     0.68881   0.12540   0.23709   0.00000  Uiso   1.00
C322   C     0.97867   0.20585   0.23821   0.00000  Uiso   1.00
C323   C     0.98008   0.12503   0.24505   0.00000  Uiso   1.00
C324   C     0.68706   0.20699   0.24483   0.00000  Uiso   1.00
C325   C     0.95769   0.16559   0.24410   0.00000  Uiso   1.00
C326   C     0.70950   0.16643   0.24312   0.00000  Uiso   1.00
C327   C     0.83698   0.02481   0.28881   0.00000  Uiso   1.00
C328   C     0.82512   0.30802   0.21185   0.00000  Uiso   1.00
C329   C     0.82906   0.02231   0.21123   0.00000  Uiso   1.00
C330   C     0.84111   0.31059   0.28794   0.00000  Uiso   1.00
C331   C     0.83402   0.16589   0.16363   0.00000  Uiso   1.00
C332   C     0.83300   0.16753   0.33627   0.00000  Uiso   1.00
C333   C     0.87116   0.16228   0.40463   0.00000  Uiso   1.00
C334   C     0.79635   0.16687   0.09472   0.00000  Uiso   1.00
C335   C     0.83393   0.17010   0.38394   0.00000  Uiso   1.00
C336   C     0.83416   0.16375   0.11577   0.00000  Uiso   1.00
C337   C     0.79778   0.18115   0.40827   0.00000  Uiso   1.00
C338   C     0.87174   0.16003   0.09146   0.00000  Uiso   1.00
C339   C     0.79797   0.18086   0.45504   0.00000  Uiso   1.00
C340   C     0.87085   0.15626   0.04480   0.00000  Uiso   1.00
C341   C     0.83433   0.16843   0.47641   0.00000  Uiso   1.00
C342   C     0.83379   0.16507   0.02314   0.00000  Uiso   1.00
C343   C     0.87163   0.16162   0.45137   0.00000  Uiso   1.00
C344   C     0.79616   0.17003   0.04799   0.00000  Uiso   1.00
C345   C     0.76236   0.19168   0.48103   0.00000  Uiso   1.00
C346   C     0.90675   0.14544   0.01929   0.00000  Uiso   1.00
N347   N     0.83333   0.28573   0.25000   0.00000  Uiso   1.00
N348   N     0.83333   0.04760   0.25000   0.00000  Uiso   1.00
O349   O     0.77226   0.20487   0.25000   0.00000  Uiso   1.00
O350   O     0.89441   0.12846   0.25001   0.00000  Uiso   1.00
O351   O     0.89441   0.20487   0.25001   0.00000  Uiso   1.00
O352   O     0.77226   0.12846   0.25000   0.00000  Uiso   1.00
O353   O     0.83333   0.20489   0.18393   0.00000  Uiso   1.00
O354   O     0.83334   0.12844   0.31608   0.00000  Uiso   1.00
O355   O     0.83334   0.20489   0.31608   0.00000  Uiso   1.00
O356   O     0.83333   0.12844   0.18393   0.00000  Uiso   1.00
Zn357  Zn    0.83333   0.21771   0.25000   0.00000  Uiso   1.00
Zn358  Zn    0.83333   0.11563   0.25000   0.00000  Uiso   1.00
O359   O     0.90559   0.14906   0.37908   0.00000  Uiso   1.00
C360   C     0.92596   0.18703   0.36342   0.00000  Uiso   1.00
H361   H     0.92828   0.21415   0.38939   0.00000  Uiso   1.00
H362   H     0.95774   0.17708   0.35259   0.00000  Uiso   1.00
H363   H     0.91052   0.20014   0.33425   0.00000  Uiso   1.00
O364   O     0.75996   0.16428   0.11986   0.00000  Uiso   1.00
C365   C     0.74584   0.20733   0.13412   0.00000  Uiso   1.00
H366   H     0.75139   0.23327   0.10901   0.00000  Uiso   1.00
H367   H     0.75947   0.21747   0.16616   0.00000  Uiso   1.00
H368   H     0.71215   0.20583   0.14032   0.00000  Uiso   1.00
O369   O     0.76259   0.19254   0.38601   0.00000  Uiso   1.00
C370   C     0.73877   0.15401   0.37867   0.00000  Uiso   1.00
H371   H     0.70801   0.16456   0.36767   0.00000  Uiso   1.00
H372   H     0.73390   0.13481   0.40950   0.00000  Uiso   1.00
H373   H     0.75291   0.13230   0.35153   0.00000  Uiso   1.00
O374   O     0.90807   0.17359   0.11087   0.00000  Uiso   1.00
C375   C     0.92606   0.13889   0.13428   0.00000  Uiso   1.00
H376   H     0.95816   0.14819   0.14131   0.00000  Uiso   1.00
H377   H     0.92712   0.10645   0.11535   0.00000  Uiso   1.00
H378   H     0.91010   0.13514   0.16661   0.00000  Uiso   1.00
O379   O     0.73049   0.21638   0.46458   0.00000  Uiso   1.00
C380   C     0.74172   0.26205   0.46499   0.00000  Uiso   1.00
H381   H     0.74855   0.27153   0.43005   0.00000  Uiso   1.00
H382   H     0.76957   0.27015   0.48477   0.00000  Uiso   1.00
C383   C     0.70610   0.29079   0.48459   0.00000  Uiso   1.00
H384   H     0.67783   0.28397   0.46571   0.00000  Uiso   1.00
H385   H     0.70000   0.28220   0.01996   0.00000  Uiso   1.00
C386   C     0.71611   0.00701   0.48268   0.00000  Uiso   1.00
H387   H     0.74259   0.01515   0.00402   0.00000  Uiso   1.00
H388   H     0.68916   0.02714   0.49502   0.00000  Uiso   1.00
H389   H     0.72359   0.01612   0.44778   0.00000  Uiso   1.00
O390   O     0.94009   0.12625   0.03931   0.00000  Uiso   1.00
C391   C     0.94908   0.08278   0.02071   0.00000  Uiso   1.00
H392   H     0.97579   0.06995   0.03862   0.00000  Uiso   1.00
H393   H     0.95903   0.08349   0.48498   0.00000  Uiso   1.00
C394   C     0.91384   0.04944   0.02699   0.00000  Uiso   1.00
H395   H     0.90626   0.04691   0.06308   0.00000  Uiso   1.00
H396   H     0.88593   0.06078   0.00994   0.00000  Uiso   1.00
C397   C     0.92602   0.00318   0.00768   0.00000  Uiso   1.00
H398   H     0.93283   0.00454   0.47118   0.00000  Uiso   1.00
H399   H     0.90035   0.31300   0.01315   0.00000  Uiso   1.00
H400   H     0.95358   0.32372   0.02434   0.00000  Uiso   1.00
O401   O     0.72192   0.18258   0.04720   0.00000  Uiso   1.00
C402   C     0.70467   0.13965   0.04510   0.00000  Uiso   1.00
H403   H     0.69473   0.13101   0.01067   0.00000  Uiso   1.00
H404   H     0.67760   0.13969   0.06835   0.00000  Uiso   1.00
H405   H     0.72622   0.11341   0.05602   0.00000  Uiso   1.00
O406   O     0.94599   0.15359   0.45105   0.00000  Uiso   1.00
C407   C     0.96732   0.19251   0.46409   0.00000  Uiso   1.00
H408   H     0.94779   0.22322   0.46330   0.00000  Uiso   1.00
H409   H     0.99334   0.19649   0.44002   0.00000  Uiso   1.00
H410   H     0.97981   0.18976   0.49796   0.00000  Uiso   1.00
O411   O     0.70887   0.08434   0.23322   0.00000  Uiso   1.00
C412   C     0.72559   0.07638   0.18941   0.00000  Uiso   1.00
H413   H     0.74601   0.04664   0.19095   0.00000  Uiso   1.00
H414   H     0.74525   0.10407   0.17802   0.00000  Uiso   1.00
C415   C     0.69266   0.06679   0.15480   0.00000  Uiso   1.00
H416   H     0.99944   0.04981   0.17044   0.00000  Uiso   1.00
H417   H     0.68151   0.09889   0.14210   0.00000  Uiso   1.00
C418   C     0.71031   0.03786   0.11560   0.00000  Uiso   1.00
H419   H     0.73920   0.05239   0.10216   0.00000  Uiso   1.00
H420   H     0.68788   0.03562   0.08848   0.00000  Uiso   1.00
H421   H     0.71705   0.00363   0.12663   0.00000  Uiso   1.00
O422   O     0.95868   0.24547   0.22996   0.00000  Uiso   1.00
C423   C     0.95396   0.24825   0.18329   0.00000  Uiso   1.00
H424   H     0.92265   0.23696   0.17470   0.00000  Uiso   1.00
H425   H     0.97684   0.22773   0.16271   0.00000  Uiso   1.00
C426   C     0.95885   0.29665   0.17063   0.00000  Uiso   1.00
H427   H     0.93437   0.31741   0.18798   0.00000  Uiso   1.00
H428   H     0.98918   0.30852   0.18197   0.00000  Uiso   1.00
C429   C     0.95669   0.30144   0.12014   0.00000  Uiso   1.00
H430   H     0.98390   0.28515   0.10293   0.00000  Uiso   1.00
H431   H     0.95630   0.00401   0.11245   0.00000  Uiso   1.00
H432   H     0.92838   0.28600   0.10707   0.00000  Uiso   1.00
O433   O     0.96179   0.08406   0.25142   0.00000  Uiso   1.00
C434   C     0.95469   0.07785   0.29777   0.00000  Uiso   1.00
H435   H     0.93566   0.04755   0.30084   0.00000  Uiso   1.00
H436   H     0.93638   0.10575   0.31361   0.00000  Uiso   1.00
C437   C     0.99441   0.07106   0.32356   0.00000  Uiso   1.00
H438   H     0.67890   0.04226   0.30856   0.00000  Uiso   1.00
H439   H     0.68056   0.10112   0.32188   0.00000  Uiso   1.00
C440   C     0.98482   0.06340   0.37283   0.00000  Uiso   1.00
H441   H     0.97025   0.09367   0.38893   0.00000  Uiso   1.00
H442   H     0.68043   0.05639   0.39017   0.00000  Uiso   1.00
H443   H     0.96367   0.03490   0.37658   0.00000  Uiso   1.00
O444   O     0.70515   0.24837   0.25105   0.00000  Uiso   1.00
C445   C     0.70975   0.25766   0.29746   0.00000  Uiso   1.00
H446   H     0.73208   0.28531   0.30103   0.00000  Uiso   1.00
H447   H     0.72314   0.22880   0.31463   0.00000  Uiso   1.00
C448   C     0.66909   0.27234   0.32106   0.00000  Uiso   1.00
H449   H     0.98997   0.30242   0.30546   0.00000  Uiso   1.00
H450   H     0.97950   0.24551   0.31795   0.00000  Uiso   1.00
C451   C     0.67504   0.28173   0.37071   0.00000  Uiso   1.00
H452   H     0.68654   0.25118   0.38627   0.00000  Uiso   1.00
H453   H     0.97849   0.29141   0.38730   0.00000  Uiso   1.00
H454   H     0.69740   0.30905   0.37580   0.00000  Uiso   1.00
O455   O     0.83741   0.04776   0.32948   0.00000  Uiso   1.00
C456   C     0.79822   0.04432   0.35058   0.00000  Uiso   1.00
H457   H     0.77325   0.05554   0.32872   0.00000  Uiso   1.00
H458   H     0.79724   0.06634   0.38120   0.00000  Uiso   1.00
H459   H     0.79228   0.00976   0.36116   0.00000  Uiso   1.00
O460   O     0.80568   0.28523   0.17740   0.00000  Uiso   1.00
C461   C     0.82957   0.28452   0.13726   0.00000  Uiso   1.00
H462   H     0.86284   0.27921   0.14298   0.00000  Uiso   1.00
H463   H     0.82319   0.31429   0.11764   0.00000  Uiso   1.00
H464   H     0.82006   0.25601   0.11572   0.00000  Uiso   1.00
O465   O     0.82676   0.04313   0.17131   0.00000  Uiso   1.00
C466   C     0.86735   0.04880   0.15463   0.00000  Uiso   1.00
H467   H     0.88730   0.06530   0.17973   0.00000  Uiso   1.00
H468   H     0.86573   0.06969   0.12505   0.00000  Uiso   1.00
H469   H     0.88217   0.01699   0.14332   0.00000  Uiso   1.00
O470   O     0.84818   0.28920   0.32702   0.00000  Uiso   1.00
C471   C     0.88950   0.29551   0.33846   0.00000  Uiso   1.00
H472   H     0.89658   0.33118   0.34539   0.00000  Uiso   1.00
H473   H     0.91085   0.28104   0.31197   0.00000  Uiso   1.00
H474   H     0.89483   0.27833   0.36988   0.00000  Uiso   1.00
C475   C     0.08683   0.50004   0.24831   0.00000  Uiso   1.00
C476   C     0.24665   0.49968   0.24865   0.00000  Uiso   1.00
C477   C     0.09318   0.51340   0.02550   0.00000  Uiso   1.00
C478   C     0.24167   0.48695   0.47365   0.00000  Uiso   1.00
C479   C     0.02214   0.45874   0.23709   0.00000  Uiso   1.00
C480   C     0.31200   0.53918   0.23821   0.00000  Uiso   1.00
C481   C     0.31341   0.45837   0.24505   0.00000  Uiso   1.00
C482   C     0.02039   0.54032   0.24483   0.00000  Uiso   1.00
C483   C     0.29102   0.49892   0.24410   0.00000  Uiso   1.00
C484   C     0.04284   0.49977   0.24312   0.00000  Uiso   1.00
C485   C     0.17031   0.35814   0.28881   0.00000  Uiso   1.00
C486   C     0.15845   0.64135   0.21185   0.00000  Uiso   1.00
C487   C     0.16239   0.35564   0.21123   0.00000  Uiso   1.00
C488   C     0.17445   0.64393   0.28794   0.00000  Uiso   1.00
C489   C     0.16736   0.49922   0.16363   0.00000  Uiso   1.00
C490   C     0.16634   0.50086   0.33627   0.00000  Uiso   1.00
C491   C     0.20449   0.49561   0.40463   0.00000  Uiso   1.00
C492   C     0.12968   0.50020   0.09472   0.00000  Uiso   1.00
C493   C     0.16727   0.50344   0.38394   0.00000  Uiso   1.00
C494   C     0.16750   0.49709   0.11577   0.00000  Uiso   1.00
C495   C     0.13111   0.51448   0.40827   0.00000  Uiso   1.00
C496   C     0.20508   0.49336   0.09146   0.00000  Uiso   1.00
C497   C     0.13130   0.51420   0.45504   0.00000  Uiso   1.00
C498   C     0.20418   0.48959   0.04480   0.00000  Uiso   1.00
C499   C     0.16766   0.50177   0.47641   0.00000  Uiso   1.00
C500   C     0.16712   0.49840   0.02314   0.00000  Uiso   1.00
C501   C     0.20496   0.49496   0.45137   0.00000  Uiso   1.00
C502   C     0.12950   0.50336   0.04799   0.00000  Uiso   1.00
C503   C     0.09570   0.52502   0.48103   0.00000  Uiso   1.00
C504   C     0.24008   0.47877   0.01929   0.00000  Uiso   1.00
N505   N     0.16667   0.61907   0.25000   0.00000  Uiso   1.00
N506   N     0.16667   0.38093   0.25000   0.00000  Uiso   1.00
O507   O     0.10559   0.53821   0.25000   0.00000  Uiso   1.00
O508   O     0.22774   0.46179   0.25001   0.00000  Uiso   1.00
O509   O     0.22774   0.53821   0.25001   0.00000  Uiso   1.00
O510   O     0.10559   0.46179   0.25000   0.00000  Uiso   1.00
O511   O     0.16666   0.53823   0.18393   0.00000  Uiso   1.00
O512   O     0.16667   0.46177   0.31608   0.00000  Uiso   1.00
O513   O     0.16667   0.53823   0.31608   0.00000  Uiso   1.00
O514   O     0.16666   0.46177   0.18393   0.00000  Uiso   1.00
Zn515  Zn    0.16667   0.55104   0.25000   0.00000  Uiso   1.00
Zn516  Zn    0.16667   0.44896   0.25000   0.00000  Uiso   1.00
O517   O     0.23892   0.48239   0.37908   0.00000  Uiso   1.00
C518   C     0.25929   0.52037   0.36342   0.00000  Uiso   1.00
H519   H     0.26161   0.54748   0.38939   0.00000  Uiso   1.00
H520   H     0.29107   0.51042   0.35259   0.00000  Uiso   1.00
H521   H     0.24385   0.53348   0.33425   0.00000  Uiso   1.00
O522   O     0.09330   0.49761   0.11986   0.00000  Uiso   1.00
C523   C     0.07917   0.54066   0.13412   0.00000  Uiso   1.00
H524   H     0.08473   0.56661   0.10901   0.00000  Uiso   1.00
H525   H     0.09281   0.55081   0.16616   0.00000  Uiso   1.00
H526   H     0.04549   0.53916   0.14032   0.00000  Uiso   1.00
O527   O     0.09592   0.52587   0.38601   0.00000  Uiso   1.00
C528   C     0.07210   0.48734   0.37867   0.00000  Uiso   1.00
H529   H     0.04134   0.49789   0.36767   0.00000  Uiso   1.00
H530   H     0.06723   0.46814   0.40950   0.00000  Uiso   1.00
H531   H     0.08625   0.46563   0.35153   0.00000  Uiso   1.00
O532   O     0.24141   0.50692   0.11087   0.00000  Uiso   1.00
C533   C     0.25939   0.47223   0.13428   0.00000  Uiso   1.00
H534   H     0.29150   0.48152   0.14131   0.00000  Uiso   1.00
H535   H     0.26046   0.43979   0.11535   0.00000  Uiso   1.00
H536   H     0.24343   0.46848   0.16661   0.00000  Uiso   1.00
O537   O     0.06382   0.54972   0.46458   0.00000  Uiso   1.00
C538   C     0.07506   0.59539   0.46499   0.00000  Uiso   1.00
H539   H     0.08188   0.60486   0.43005   0.00000  Uiso   1.00
H540   H     0.10290   0.60348   0.48477   0.00000  Uiso   1.00
C541   C     0.03943   0.62412   0.48459   0.00000  Uiso   1.00
H542   H     0.01116   0.61731   0.46571   0.00000  Uiso   1.00
H543   H     0.03334   0.61554   0.01996   0.00000  Uiso   1.00
C544   C     0.04944   0.34034   0.48268   0.00000  Uiso   1.00
H545   H     0.07592   0.34848   0.00402   0.00000  Uiso   1.00
H546   H     0.02250   0.36047   0.49502   0.00000  Uiso   1.00
H547   H     0.05692   0.34945   0.44778   0.00000  Uiso   1.00
O548   O     0.27342   0.45958   0.03931   0.00000  Uiso   1.00
C549   C     0.28241   0.41611   0.02071   0.00000  Uiso   1.00
H550   H     0.30913   0.40328   0.03862   0.00000  Uiso   1.00
H551   H     0.29236   0.41682   0.48498   0.00000  Uiso   1.00
C552   C     0.24718   0.38277   0.02699   0.00000  Uiso   1.00
H553   H     0.23960   0.38024   0.06308   0.00000  Uiso   1.00
H554   H     0.21926   0.39412   0.00994   0.00000  Uiso   1.00
C555   C     0.25936   0.33651   0.00768   0.00000  Uiso   1.00
H556   H     0.26616   0.33787   0.47118   0.00000  Uiso   1.00
H557   H     0.23368   0.64633   0.01315   0.00000  Uiso   1.00
H558   H     0.28692   0.65706   0.02434   0.00000  Uiso   1.00
O559   O     0.05525   0.51591   0.04720   0.00000  Uiso   1.00
C560   C     0.03801   0.47298   0.04510   0.00000  Uiso   1.00
H561   H     0.02806   0.46434   0.01067   0.00000  Uiso   1.00
H562   H     0.01094   0.47303   0.06835   0.00000  Uiso   1.00
H563   H     0.05955   0.44675   0.05602   0.00000  Uiso   1.00
O564   O     0.27932   0.48692   0.45105   0.00000  Uiso   1.00
C565   C     0.30066   0.52584   0.46409   0.00000  Uiso   1.00
H566   H     0.28112   0.55655   0.46330   0.00000  Uiso   1.00
H567   H     0.32667   0.52983   0.44002   0.00000  Uiso   1.00
H568   H     0.31314   0.52309   0.49796   0.00000  Uiso   1.00
O569   O     0.04221   0.41767   0.23322   0.00000  Uiso   1.00
C570   C     0.05892   0.40971   0.18941   0.00000  Uiso   1.00
H571   H     0.07935   0.37998   0.19095   0.00000  Uiso   1.00
H572   H     0.07858   0.43740   0.17802   0.00000  Uiso   1.00
C573   C     0.02600   0.40012   0.15480   0.00000  Uiso   1.00
H574   H     0.33277   0.38314   0.17044   0.00000  Uiso   1.00
H575   H     0.01485   0.43222   0.14210   0.00000  Uiso   1.00
C576   C     0.04365   0.37119   0.11560   0.00000  Uiso   1.00
H577   H     0.07253   0.38572   0.10216   0.00000  Uiso   1.00
H578   H     0.02121   0.36895   0.08848   0.00000  Uiso   1.00
H579   H     0.05039   0.33696   0.12663   0.00000  Uiso   1.00
O580   O     0.29201   0.57880   0.22996   0.00000  Uiso   1.00
C581   C     0.28729   0.58158   0.18329   0.00000  Uiso   1.00
H582   H     0.25598   0.57029   0.17470   0.00000  Uiso   1.00
H583   H     0.31017   0.56106   0.16271   0.00000  Uiso   1.00
C584   C     0.29218   0.62998   0.17063   0.00000  Uiso   1.00
H585   H     0.26771   0.65075   0.18798   0.00000  Uiso   1.00
H586   H     0.32252   0.64186   0.18197   0.00000  Uiso   1.00
C587   C     0.29003   0.63477   0.12014   0.00000  Uiso   1.00
H588   H     0.31723   0.61848   0.10293   0.00000  Uiso   1.00
H589   H     0.28964   0.33735   0.11245   0.00000  Uiso   1.00
H590   H     0.26171   0.61934   0.10707   0.00000  Uiso   1.00
O591   O     0.29513   0.41739   0.25142   0.00000  Uiso   1.00
C592   C     0.28802   0.41118   0.29777   0.00000  Uiso   1.00
H593   H     0.26900   0.38088   0.30084   0.00000  Uiso   1.00
H594   H     0.26972   0.43908   0.31361   0.00000  Uiso   1.00
C595   C     0.32775   0.40440   0.32356   0.00000  Uiso   1.00
H596   H     0.01223   0.37559   0.30856   0.00000  Uiso   1.00
H597   H     0.01389   0.43445   0.32188   0.00000  Uiso   1.00
C598   C     0.31815   0.39673   0.37283   0.00000  Uiso   1.00
H599   H     0.30358   0.42701   0.38893   0.00000  Uiso   1.00
H600   H     0.01376   0.38972   0.39017   0.00000  Uiso   1.00
H601   H     0.29700   0.36824   0.37658   0.00000  Uiso   1.00
O602   O     0.03848   0.58170   0.25105   0.00000  Uiso   1.00
C603   C     0.04309   0.59099   0.29746   0.00000  Uiso   1.00
H604   H     0.06541   0.61864   0.30103   0.00000  Uiso   1.00
H605   H     0.05648   0.56214   0.31463   0.00000  Uiso   1.00
C606   C     0.00243   0.60567   0.32106   0.00000  Uiso   1.00
H607   H     0.32330   0.63575   0.30546   0.00000  Uiso   1.00
H608   H     0.31283   0.57884   0.31795   0.00000  Uiso   1.00
C609   C     0.00837   0.61507   0.37071   0.00000  Uiso   1.00
H610   H     0.01987   0.58452   0.38627   0.00000  Uiso   1.00
H611   H     0.31183   0.62474   0.38730   0.00000  Uiso   1.00
H612   H     0.03073   0.64238   0.37580   0.00000  Uiso   1.00
O613   O     0.17075   0.38109   0.32948   0.00000  Uiso   1.00
C614   C     0.13155   0.37766   0.35058   0.00000  Uiso   1.00
H615   H     0.10658   0.38887   0.32872   0.00000  Uiso   1.00
H616   H     0.13057   0.39968   0.38120   0.00000  Uiso   1.00
H617   H     0.12561   0.34309   0.36116   0.00000  Uiso   1.00
O618   O     0.13902   0.61856   0.17740   0.00000  Uiso   1.00
C619   C     0.16291   0.61785   0.13726   0.00000  Uiso   1.00
H620   H     0.19617   0.61254   0.14298   0.00000  Uiso   1.00
H621   H     0.15653   0.64762   0.11764   0.00000  Uiso   1.00
H622   H     0.15340   0.58934   0.11572   0.00000  Uiso   1.00
O623   O     0.16009   0.37646   0.17131   0.00000  Uiso   1.00
C624   C     0.20068   0.38214   0.15463   0.00000  Uiso   1.00
H625   H     0.22063   0.39863   0.17973   0.00000  Uiso   1.00
H626   H     0.19906   0.40302   0.12505   0.00000  Uiso   1.00
H627   H     0.21550   0.35032   0.14332   0.00000  Uiso   1.00
O628   O     0.18152   0.62253   0.32702   0.00000  Uiso   1.00
C629   C     0.22284   0.62885   0.33846   0.00000  Uiso   1.00
H630   H     0.22991   0.66452   0.34539   0.00000  Uiso   1.00
H631   H     0.24418   0.61437   0.31197   0.00000  Uiso   1.00
H632   H     0.22817   0.61166   0.36988   0.00000  Uiso   1.00
C633   C     0.42016   0.50004   0.24831   0.00000  Uiso   1.00
C634   C     0.57998   0.49968   0.24865   0.00000  Uiso   1.00
C635   C     0.42651   0.51340   0.02550   0.00000  Uiso   1.00
C636   C     0.57500   0.48695   0.47365   0.00000  Uiso   1.00
C637   C     0.35547   0.45874   0.23709   0.00000  Uiso   1.00
C638   C     0.64533   0.53918   0.23821   0.00000  Uiso   1.00
C639   C     0.64674   0.45837   0.24505   0.00000  Uiso   1.00
C640   C     0.35373   0.54032   0.24483   0.00000  Uiso   1.00
C641   C     0.62435   0.49892   0.24410   0.00000  Uiso   1.00
C642   C     0.37617   0.49977   0.24312   0.00000  Uiso   1.00
C643   C     0.50364   0.35814   0.28881   0.00000  Uiso   1.00
C644   C     0.49179   0.64135   0.21185   0.00000  Uiso   1.00
C645   C     0.49573   0.35564   0.21123   0.00000  Uiso   1.00
C646   C     0.50778   0.64393   0.28794   0.00000  Uiso   1.00
C647   C     0.50069   0.49922   0.16363   0.00000  Uiso   1.00
C648   C     0.49967   0.50086   0.33627   0.00000  Uiso   1.00
C649   C     0.53783   0.49561   0.40463   0.00000  Uiso   1.00
C650   C     0.46302   0.50020   0.09472   0.00000  Uiso   1.00
C651   C     0.50060   0.50344   0.38394   0.00000  Uiso   1.00
C652   C     0.50083   0.49709   0.11577   0.00000  Uiso   1.00
C653   C     0.46444   0.51448   0.40827   0.00000  Uiso   1.00
C654   C     0.53841   0.49336   0.09146   0.00000  Uiso   1.00
C655   C     0.46463   0.51420   0.45504   0.00000  Uiso   1.00
C656   C     0.53752   0.48959   0.04480   0.00000  Uiso   1.00
C657   C     0.50099   0.50177   0.47641   0.00000  Uiso   1.00
C658   C     0.50046   0.49840   0.02314   0.00000  Uiso   1.00
C659   C     0.53830   0.49496   0.45137   0.00000  Uiso   1.00
C660   C     0.46283   0.50336   0.04799   0.00000  Uiso   1.00
C661   C     0.42903   0.52502   0.48103   0.00000  Uiso   1.00
C662   C     0.57342   0.47877   0.01929   0.00000  Uiso   1.00
N663   N     0.50000   0.61907   0.25000   0.00000  Uiso   1.00
N664   N     0.50000   0.38093   0.25000   0.00000  Uiso   1.00
O665   O     0.43892   0.53821   0.25000   0.00000  Uiso   1.00
O666   O     0.56108   0.46179   0.25001   0.00000  Uiso   1.00
O667   O     0.56108   0.53821   0.25001   0.00000  Uiso   1.00
O668   O     0.43892   0.46179   0.25000   0.00000  Uiso   1.00
O669   O     0.49999   0.53823   0.18393   0.00000  Uiso   1.00
O670   O     0.50001   0.46177   0.31608   0.00000  Uiso   1.00
O671   O     0.50001   0.53823   0.31608   0.00000  Uiso   1.00
O672   O     0.49999   0.46177   0.18393   0.00000  Uiso   1.00
Zn673  Zn    0.50000   0.55104   0.25000   0.00000  Uiso   1.00
Zn674  Zn    0.50000   0.44896   0.25000   0.00000  Uiso   1.00
O675   O     0.57225   0.48239   0.37908   0.00000  Uiso   1.00
C676   C     0.59263   0.52037   0.36342   0.00000  Uiso   1.00
H677   H     0.59495   0.54748   0.38939   0.00000  Uiso   1.00
H678   H     0.62441   0.51042   0.35259   0.00000  Uiso   1.00
H679   H     0.57718   0.53348   0.33425   0.00000  Uiso   1.00
O680   O     0.42663   0.49761   0.11986   0.00000  Uiso   1.00
C681   C     0.41251   0.54066   0.13412   0.00000  Uiso   1.00
H682   H     0.41806   0.56661   0.10901   0.00000  Uiso   1.00
H683   H     0.42614   0.55081   0.16616   0.00000  Uiso   1.00
H684   H     0.37882   0.53916   0.14032   0.00000  Uiso   1.00
O685   O     0.42926   0.52587   0.38601   0.00000  Uiso   1.00
C686   C     0.40544   0.48734   0.37867   0.00000  Uiso   1.00
H687   H     0.37467   0.49789   0.36767   0.00000  Uiso   1.00
H688   H     0.40057   0.46814   0.40950   0.00000  Uiso   1.00
H689   H     0.41958   0.46563   0.35153   0.00000  Uiso   1.00
O690   O     0.57474   0.50692   0.11087   0.00000  Uiso   1.00
C691   C     0.59273   0.47223   0.13428   0.00000  Uiso   1.00
H692   H     0.62483   0.48152   0.14131   0.00000  Uiso   1.00
H693   H     0.59379   0.43979   0.11535   0.00000  Uiso   1.00
H694   H     0.57676   0.46848   0.16661   0.00000  Uiso   1.00
O695   O     0.39716   0.54972   0.46458   0.00000  Uiso   1.00
C696   C     0.40839   0.59539   0.46499   0.00000  Uiso   1.00
H697   H     0.41522   0.60486   0.43005   0.00000  Uiso   1.00
H698   H     0.43623   0.60348   0.48477   0.00000  Uiso   1.00
C699   C     0.37277   0.62412   0.48459   0.00000  Uiso   1.00
H700   H     0.34450   0.61731   0.46571   0.00000  Uiso   1.00
H701   H     0.36667   0.61554   0.01996   0.00000  Uiso   1.00
C702   C     0.38277   0.34034   0.48268   0.00000  Uiso   1.00
H703   H     0.40926   0.34848   0.00402   0.00000  Uiso   1.00
H704   H     0.35583   0.36047   0.49502   0.00000  Uiso   1.00
H705   H     0.39026   0.34945   0.44778   0.00000  Uiso   1.00
O706   O     0.60675   0.45958   0.03931   0.00000  Uiso   1.00
C707   C     0.61575   0.41611   0.02071   0.00000  Uiso   1.00
H708   H     0.64246   0.40328   0.03862   0.00000  Uiso   1.00
H709   H     0.62570   0.41682   0.48498   0.00000  Uiso   1.00
C710   C     0.58051   0.38277   0.02699   0.00000  Uiso   1.00
H711   H     0.57293   0.38024   0.06308   0.00000  Uiso   1.00
H712   H     0.55259   0.39412   0.00994   0.00000  Uiso   1.00
C713   C     0.59269   0.33651   0.00768   0.00000  Uiso   1.00
H714   H     0.59950   0.33787   0.47118   0.00000  Uiso   1.00
H715   H     0.56701   0.64633   0.01315   0.00000  Uiso   1.00
H716   H     0.62025   0.65706   0.02434   0.00000  Uiso   1.00
O717   O     0.38859   0.51591   0.04720   0.00000  Uiso   1.00
C718   C     0.37134   0.47298   0.04510   0.00000  Uiso   1.00
H719   H     0.36139   0.46434   0.01067   0.00000  Uiso   1.00
H720   H     0.34427   0.47303   0.06835   0.00000  Uiso   1.00
H721   H     0.39288   0.44675   0.05602   0.00000  Uiso   1.00
O722   O     0.61265   0.48692   0.45105   0.00000  Uiso   1.00
C723   C     0.63399   0.52584   0.46409   0.00000  Uiso   1.00
H724   H     0.61446   0.55655   0.46330   0.00000  Uiso   1.00
H725   H     0.66000   0.52983   0.44002   0.00000  Uiso   1.00
H726   H     0.64647   0.52309   0.49796   0.00000  Uiso   1.00
O727   O     0.37554   0.41767   0.23322   0.00000  Uiso   1.00
C728   C     0.39225   0.40971   0.18941   0.00000  Uiso   1.00
H729   H     0.41268   0.37998   0.19095   0.00000  Uiso   1.00
H730   H     0.41192   0.43740   0.17802   0.00000  Uiso   1.00
C731   C     0.35933   0.40012   0.15480   0.00000  Uiso   1.00
H732   H     0.66610   0.38314   0.17044   0.00000  Uiso   1.00
H733   H     0.34818   0.43222   0.14210   0.00000  Uiso   1.00
C734   C     0.37698   0.37119   0.11560   0.00000  Uiso   1.00
H735   H     0.40586   0.38572   0.10216   0.00000  Uiso   1.00
H736   H     0.35454   0.36895   0.08848   0.00000  Uiso   1.00
H737   H     0.38372   0.33696   0.12663   0.00000  Uiso   1.00
O738   O     0.62534   0.57880   0.22996   0.00000  Uiso   1.00
C739   C     0.62062   0.58158   0.18329   0.00000  Uiso   1.00
H740   H     0.58931   0.57029   0.17470   0.00000  Uiso   1.00
H741   H     0.64350   0.56106   0.16271   0.00000  Uiso   1.00
C742   C     0.62551   0.62998   0.17063   0.00000  Uiso   1.00
H743   H     0.60104   0.65075   0.18798   0.00000  Uiso   1.00
H744   H     0.65585   0.64186   0.18197   0.00000  Uiso   1.00
C745   C     0.62336   0.63477   0.12014   0.00000  Uiso   1.00
H746   H     0.65057   0.61848   0.10293   0.00000  Uiso   1.00
H747   H     0.62297   0.33735   0.11245   0.00000  Uiso   1.00
H748   H     0.59504   0.61934   0.10707   0.00000  Uiso   1.00
O749   O     0.62846   0.41739   0.25142   0.00000  Uiso   1.00
C750   C     0.62135   0.41118   0.29777   0.00000  Uiso   1.00
H751   H     0.60233   0.38088   0.30084   0.00000  Uiso   1.00
H752   H     0.60305   0.43908   0.31361   0.00000  Uiso   1.00
C753   C     0.66108   0.40440   0.32356   0.00000  Uiso   1.00
H754   H     0.34557   0.37559   0.30856   0.00000  Uiso   1.00
H755   H     0.34722   0.43445   0.32188   0.00000  Uiso   1.00
C756   C     0.65149   0.39673   0.37283   0.00000  Uiso   1.00
H757   H     0.63691   0.42701   0.38893   0.00000  Uiso   1.00
H758   H     0.34709   0.38972   0.39017   0.00000  Uiso   1.00
H759   H     0.63033   0.36824   0.37658   0.00000  Uiso   1.00
O760   O     0.37182   0.58170   0.25105   0.00000  Uiso   1.00
C761   C     0.37642   0.59099   0.29746   0.00000  Uiso   1.00
H762   H     0.39874   0.61864   0.30103   0.00000  Uiso   1.00
H763   H     0.38981   0.56214   0.31463   0.00000  Uiso   1.00
C764   C     0.33576   0.60567   0.32106   0.00000  Uiso   1.00
H765   H     0.65664   0.63575   0.30546   0.00000  Uiso   1.00
H766   H     0.64616   0.57884   0.31795   0.00000  Uiso   1.00
C767   C     0.34170   0.61507   0.37071   0.00000  Uiso   1.00
H768   H     0.35321   0.58452   0.38627   0.00000  Uiso   1.00
H769   H     0.64516   0.62474   0.38730   0.00000  Uiso   1.00
H770   H     0.36406   0.64238   0.37580   0.00000  Uiso   1.00
O771   O     0.50408   0.38109   0.32948   0.00000  Uiso   1.00
C772   C     0.46488   0.37766   0.35058   0.00000  Uiso   1.00
H773   H     0.43991   0.38887   0.32872   0.00000  Uiso   1.00
H774   H     0.46391   0.39968   0.38120   0.00000  Uiso   1.00
H775   H     0.45895   0.34309   0.36116   0.00000  Uiso   1.00
O776   O     0.47235   0.61856   0.17740   0.00000  Uiso   1.00
C777   C     0.49624   0.61785   0.13726   0.00000  Uiso   1.00
H778   H     0.52951   0.61254   0.14298   0.00000  Uiso   1.00
H779   H     0.48986   0.64762   0.11764   0.00000  Uiso   1.00
H780   H     0.48673   0.58934   0.11572   0.00000  Uiso   1.00
O781   O     0.49342   0.37646   0.17131   0.00000  Uiso   1.00
C782   C     0.53402   0.38214   0.15463   0.00000  Uiso   1.00
H783   H     0.55397   0.39863   0.17973   0.00000  Uiso   1.00
H784   H     0.53239   0.40302   0.12505   0.00000  Uiso   1.00
H785   H     0.54884   0.35032   0.14332   0.00000  Uiso   1.00
O786   O     0.51485   0.62253   0.32702   0.00000  Uiso   1.00
C787   C     0.55617   0.62885   0.33846   0.00000  Uiso   1.00
H788   H     0.56325   0.66452   0.34539   0.00000  Uiso   1.00
H789   H     0.57751   0.61437   0.31197   0.00000  Uiso   1.00
H790   H     0.56150   0.61166   0.36988   0.00000  Uiso   1.00
C791   C     0.75349   0.50004   0.24831   0.00000  Uiso   1.00
C792   C     0.91332   0.49968   0.24865   0.00000  Uiso   1.00
C793   C     0.75985   0.51340   0.02550   0.00000  Uiso   1.00
C794   C     0.90833   0.48695   0.47365   0.00000  Uiso   1.00
C795   C     0.68881   0.45874   0.23709   0.00000  Uiso   1.00
C796   C     0.97867   0.53918   0.23821   0.00000  Uiso   1.00
C797   C     0.98008   0.45837   0.24505   0.00000  Uiso   1.00
C798   C     0.68706   0.54032   0.24483   0.00000  Uiso   1.00
C799   C     0.95769   0.49892   0.24410   0.00000  Uiso   1.00
C800   C     0.70950   0.49977   0.24312   0.00000  Uiso   1.00
C801   C     0.83698   0.35814   0.28881   0.00000  Uiso   1.00
C802   C     0.82512   0.64135   0.21185   0.00000  Uiso   1.00
C803   C     0.82906   0.35564   0.21123   0.00000  Uiso   1.00
C804   C     0.84111   0.64393   0.28794   0.00000  Uiso   1.00
C805   C     0.83402   0.49922   0.16363   0.00000  Uiso   1.00
C806   C     0.83300   0.50086   0.33627   0.00000  Uiso   1.00
C807   C     0.87116   0.49561   0.40463   0.00000  Uiso   1.00
C808   C     0.79635   0.50020   0.09472   0.00000  Uiso   1.00
C809   C     0.83393   0.50344   0.38394   0.00000  Uiso   1.00
C810   C     0.83416   0.49709   0.11577   0.00000  Uiso   1.00
C811   C     0.79778   0.51448   0.40827   0.00000  Uiso   1.00
C812   C     0.87174   0.49336   0.09146   0.00000  Uiso   1.00
C813   C     0.79797   0.51420   0.45504   0.00000  Uiso   1.00
C814   C     0.87085   0.48959   0.04480   0.00000  Uiso   1.00
C815   C     0.83433   0.50177   0.47641   0.00000  Uiso   1.00
C816   C     0.83379   0.49840   0.02314   0.00000  Uiso   1.00
C817   C     0.87163   0.49496   0.45137   0.00000  Uiso   1.00
C818   C     0.79616   0.50336   0.04799   0.00000  Uiso   1.00
C819   C     0.76236   0.52502   0.48103   0.00000  Uiso   1.00
C820   C     0.90675   0.47877   0.01929   0.00000  Uiso   1.00
N821   N     0.83333   0.61907   0.25000   0.00000  Uiso   1.00
N822   N     0.83333   0.38093   0.25000   0.00000  Uiso   1.00
O823   O     0.77226   0.53821   0.25000   0.00000  Uiso   1.00
O824   O     0.89441   0.46179   0.25001   0.00000  Uiso   1.00
O825   O     0.89441   0.53821   0.25001   0.00000  Uiso   1.00
O826   O     0.77226   0.46179   0.25000   0.00000  Uiso   1.00
O827   O     0.83333   0.53823   0.18393   0.00000  Uiso   1.00
O828   O     0.83334   0.46177   0.31608   0.00000  Uiso   1.00
O829   O     0.83334   0.53823   0.31608   0.00000  Uiso   1.00
O830   O     0.83333   0.46177   0.18393   0.00000  Uiso   1.00
Zn831  Zn    0.83333   0.55104   0.25000   0.00000  Uiso   1.00
Zn832  Zn    0.83333   0.44896   0.25000   0.00000  Uiso   1.00
O833   O     0.90559   0.48239   0.37908   0.00000  Uiso   1.00
C834   C     0.92596   0.52037   0.36342   0.00000  Uiso   1.00
H835   H     0.92828   0.54748   0.38939   0.00000  Uiso   1.00
H836   H     0.95774   0.51042   0.35259   0.00000  Uiso   1.00
H837   H     0.91052   0.53348   0.33425   0.00000  Uiso   1.00
O838   O     0.75996   0.49761   0.11986   0.00000  Uiso   1.00
C839   C     0.74584   0.54066   0.13412   0.00000  Uiso   1.00
H840   H     0.75139   0.56661   0.10901   0.00000  Uiso   1.00
H841   H     0.75947   0.55081   0.16616   0.00000  Uiso   1.00
H842   H     0.71215   0.53916   0.14032   0.00000  Uiso   1.00
O843   O     0.76259   0.52587   0.38601   0.00000  Uiso   1.00
C844   C     0.73877   0.48734   0.37867   0.00000  Uiso   1.00
H845   H     0.70801   0.49789   0.36767   0.00000  Uiso   1.00
H846   H     0.73390   0.46814   0.40950   0.00000  Uiso   1.00
H847   H     0.75291   0.46563   0.35153   0.00000  Uiso   1.00
O848   O     0.90807   0.50692   0.11087   0.00000  Uiso   1.00
C849   C     0.92606   0.47223   0.13428   0.00000  Uiso   1.00
H850   H     0.95816   0.48152   0.14131   0.00000  Uiso   1.00
H851   H     0.92712   0.43979   0.11535   0.00000  Uiso   1.00
H852   H     0.91010   0.46848   0.16661   0.00000  Uiso   1.00
O853   O     0.73049   0.54972   0.46458   0.00000  Uiso   1.00
C854   C     0.74172   0.59539   0.46499   0.00000  Uiso   1.00
H855   H     0.74855   0.60486   0.43005   0.00000  Uiso   1.00
H856   H     0.76957   0.60348   0.48477   0.00000  Uiso   1.00
C857   C     0.70610   0.62412   0.48459   0.00000  Uiso   1.00
H858   H     0.67783   0.61731   0.46571   0.00000  Uiso   1.00
H859   H     0.70000   0.61554   0.01996   0.00000  Uiso   1.00
C860   C     0.71611   0.34034   0.48268   0.00000  Uiso   1.00
H861   H     0.74259   0.34848   0.00402   0.00000  Uiso   1.00
H862   H     0.68916   0.36047   0.49502   0.00000  Uiso   1.00
H863   H     0.72359   0.34945   0.44778   0.00000  Uiso   1.00
O864   O     0.94009   0.45958   0.03931   0.00000  Uiso   1.00
C865   C     0.94908   0.41611   0.02071   0.00000  Uiso   1.00
H866   H     0.97579   0.40328   0.03862   0.00000  Uiso   1.00
H867   H     0.95903   0.41682   0.48498   0.00000  Uiso   1.00
C868   C     0.91384   0.38277   0.02699   0.00000  Uiso   1.00
H869   H     0.90626   0.38024   0.06308   0.00000  Uiso   1.00
H870   H     0.88593   0.39412   0.00994   0.00000  Uiso   1.00
C871   C     0.92602   0.33651   0.00768   0.00000  Uiso   1.00
H872   H     0.93283   0.33787   0.47118   0.00000  Uiso   1.00
H873   H     0.90035   0.64633   0.01315   0.00000  Uiso   1.00
H874   H     0.95358   0.65706   0.02434   0.00000  Uiso   1.00
O875   O     0.72192   0.51591   0.04720   0.00000  Uiso   1.00
C876   C     0.70467   0.47298   0.04510   0.00000  Uiso   1.00
H877   H     0.69473   0.46434   0.01067   0.00000  Uiso   1.00
H878   H     0.67760   0.47303   0.06835   0.00000  Uiso   1.00
H879   H     0.72622   0.44675   0.05602   0.00000  Uiso   1.00
O880   O     0.94599   0.48692   0.45105   0.00000  Uiso   1.00
C881   C     0.96732   0.52584   0.46409   0.00000  Uiso   1.00
H882   H     0.94779   0.55655   0.46330   0.00000  Uiso   1.00
H883   H     0.99334   0.52983   0.44002   0.00000  Uiso   1.00
H884   H     0.97981   0.52309   0.49796   0.00000  Uiso   1.00
O885   O     0.70887   0.41767   0.23322   0.00000  Uiso   1.00
C886   C     0.72559   0.40971   0.18941   0.00000  Uiso   1.00
H887   H     0.74601   0.37998   0.19095   0.00000  Uiso   1.00
H888   H     0.74525   0.43740   0.17802   0.00000  Uiso   1.00
C889   C     0.69266   0.40012   0.15480   0.00000  Uiso   1.00
H890   H     0.99944   0.38314   0.17044   0.00000  Uiso   1.00
H891   H     0.68151   0.43222   0.14210   0.00000  Uiso   1.00
C892   C     0.71031   0.37119   0.11560   0.00000  Uiso   1.00
H893   H     0.73920   0.38572   0.10216   0.00000  Uiso   1.00
H894   H     0.68788   0.36895   0.08848   0.00000  Uiso   1.00
H895   H     0.71705   0.33696   0.12663   0.00000  Uiso   1.00
O896   O     0.95868   0.57880   0.22996   0.00000  Uiso   1.00
C897   C     0.95396   0.58158   0.18329   0.00000  Uiso   1.00
H898   H     0.92265   0.57029   0.17470   0.00000  Uiso   1.00
H899   H     0.97684   0.56106   0.16271   0.00000  Uiso   1.00
C900   C     0.95885   0.62998   0.17063   0.00000  Uiso   1.00
H901   H     0.93437   0.65075   0.18798   0.00000  Uiso   1.00
H902   H     0.98918   0.64186   0.18197   0.00000  Uiso   1.00
C903   C     0.95669   0.63477   0.12014   0.00000  Uiso   1.00
H904   H     0.98390   0.61848   0.10293   0.00000  Uiso   1.00
H905   H     0.95630   0.33735   0.11245   0.00000  Uiso   1.00
H906   H     0.92838   0.61934   0.10707   0.00000  Uiso   1.00
O907   O     0.96179   0.41739   0.25142   0.00000  Uiso   1.00
C908   C     0.95469   0.41118   0.29777   0.00000  Uiso   1.00
H909   H     0.93566   0.38088   0.30084   0.00000  Uiso   1.00
H910   H     0.93638   0.43908   0.31361   0.00000  Uiso   1.00
C911   C     0.99441   0.40440   0.32356   0.00000  Uiso   1.00
H912   H     0.67890   0.37559   0.30856   0.00000  Uiso   1.00
H913   H     0.68056   0.43445   0.32188   0.00000  Uiso   1.00
C914   C     0.98482   0.39673   0.37283   0.00000  Uiso   1.00
H915   H     0.97025   0.42701   0.38893   0.00000  Uiso   1.00
H916   H     0.68043   0.38972   0.39017   0.00000  Uiso   1.00
H917   H     0.96367   0.36824   0.37658   0.00000  Uiso   1.00
O918   O     0.70515   0.58170   0.25105   0.00000  Uiso   1.00
C919   C     0.70975   0.59099   0.29746   0.00000  Uiso   1.00
H920   H     0.73208   0.61864   0.30103   0.00000  Uiso   1.00
H921   H     0.72314   0.56214   0.31463   0.00000  Uiso   1.00
C922   C     0.66909   0.60567   0.32106   0.00000  Uiso   1.00
H923   H     0.98997   0.63575   0.30546   0.00000  Uiso   1.00
H924   H     0.97950   0.57884   0.31795   0.00000  Uiso   1.00
C925   C     0.67504   0.61507   0.37071   0.00000  Uiso   1.00
H926   H     0.68654   0.58452   0.38627   0.00000  Uiso   1.00
H927   H     0.97849   0.62474   0.38730   0.00000  Uiso   1.00
H928   H     0.69740   0.64238   0.37580   0.00000  Uiso   1.00
O929   O     0.83741   0.38109   0.32948   0.00000  Uiso   1.00
C930   C     0.79822   0.37766   0.35058   0.00000  Uiso   1.00
H931   H     0.77325   0.38887   0.32872   0.00000  Uiso   1.00
H932   H     0.79724   0.39968   0.38120   0.00000  Uiso   1.00
H933   H     0.79228   0.34309   0.36116   0.00000  Uiso   1.00
O934   O     0.80568   0.61856   0.17740   0.00000  Uiso   1.00
C935   C     0.82957   0.61785   0.13726   0.00000  Uiso   1.00
H936   H     0.86284   0.61254   0.14298   0.00000  Uiso   1.00
H937   H     0.82319   0.64762   0.11764   0.00000  Uiso   1.00
H938   H     0.82006   0.58934   0.11572   0.00000  Uiso   1.00
O939   O     0.82676   0.37646   0.17131   0.00000  Uiso   1.00
C940   C     0.86735   0.38214   0.15463   0.00000  Uiso   1.00
H941   H     0.88730   0.39863   0.17973   0.00000  Uiso   1.00
H942   H     0.86573   0.40302   0.12505   0.00000  Uiso   1.00
H943   H     0.88217   0.35032   0.14332   0.00000  Uiso   1.00
O944   O     0.84818   0.62253   0.32702   0.00000  Uiso   1.00
C945   C     0.88950   0.62885   0.33846   0.00000  Uiso   1.00
H946   H     0.89658   0.66452   0.34539   0.00000  Uiso   1.00
H947   H     0.91085   0.61437   0.31197   0.00000  Uiso   1.00
H948   H     0.89483   0.61166   0.36988   0.00000  Uiso   1.00
C949   C     0.08683   0.83337   0.24831   0.00000  Uiso   1.00
C950   C     0.24665   0.83302   0.24865   0.00000  Uiso   1.00
C951   C     0.09318   0.84673   0.02550   0.00000  Uiso   1.00
C952   C     0.24167   0.82028   0.47365   0.00000  Uiso   1.00
C953   C     0.02214   0.79207   0.23709   0.00000  Uiso   1.00
C954   C     0.31200   0.87251   0.23821   0.00000  Uiso   1.00
C955   C     0.31341   0.79170   0.24505   0.00000  Uiso   1.00
C956   C     0.02039   0.87365   0.24483   0.00000  Uiso   1.00
C957   C     0.29102   0.83226   0.24410   0.00000  Uiso   1.00
C958   C     0.04284   0.83310   0.24312   0.00000  Uiso   1.00
C959   C     0.17031   0.69148   0.28881   0.00000  Uiso   1.00
C960   C     0.15845   0.97469   0.21185   0.00000  Uiso   1.00
C961   C     0.16239   0.68898   0.21123   0.00000  Uiso   1.00
C962   C     0.17445   0.97726   0.28794   0.00000  Uiso   1.00
C963   C     0.16736   0.83256   0.16363   0.00000  Uiso   1.00
C964   C     0.16634   0.83420   0.33627   0.00000  Uiso   1.00
C965   C     0.20449   0.82895   0.40463   0.00000  Uiso   1.00
C966   C     0.12968   0.83354   0.09472   0.00000  Uiso   1.00
C967   C     0.16727   0.83677   0.38394   0.00000  Uiso   1.00
C968   C     0.16750   0.83042   0.11577   0.00000  Uiso   1.00
C969   C     0.13111   0.84781   0.40827   0.00000  Uiso   1.00
C970   C     0.20508   0.82669   0.09146   0.00000  Uiso   1.00
C971   C     0.13130   0.84753   0.45504   0.00000  Uiso   1.00
C972   C     0.20418   0.82293   0.04480   0.00000  Uiso   1.00
C973   C     0.16766   0.83510   0.47641   0.00000  Uiso   1.00
C974   C     0.16712   0.83173   0.02314   0.00000  Uiso   1.00
C975   C     0.20496   0.82829   0.45137   0.00000  Uiso   1.00
C976   C     0.12950   0.83669   0.04799   0.00000  Uiso   1.00
C977   C     0.09570   0.85835   0.48103   0.00000  Uiso   1.00
C978   C     0.24008   0.81211   0.01929   0.00000  Uiso   1.00
N979   N     0.16667   0.95240   0.25000   0.00000  Uiso   1.00
N980   N     0.16667   0.71427   0.25000   0.00000  Uiso   1.00
O981   O     0.10559   0.87154   0.25000   0.00000  Uiso   1.00
O982   O     0.22774   0.79513   0.25001   0.00000  Uiso   1.00
O983   O     0.22774   0.87154   0.25001   0.00000  Uiso   1.00
O984   O     0.10559   0.79513   0.25000   0.00000  Uiso   1.00
O985   O     0.16666   0.87156   0.18393   0.00000  Uiso   1.00
O986   O     0.16667   0.79511   0.31608   0.00000  Uiso   1.00
O987   O     0.16667   0.87156   0.31608   0.00000  Uiso   1.00
O988   O     0.16666   0.79511   0.18393   0.00000  Uiso   1.00
Zn989  Zn    0.16667   0.88437   0.25000   0.00000  Uiso   1.00
Zn990  Zn    0.16667   0.78229   0.25000   0.00000  Uiso   1.00
O991   O     0.23892   0.81573   0.37908   0.00000  Uiso   1.00
C992   C     0.25929   0.85370   0.36342   0.00000  Uiso   1.00
H993   H     0.26161   0.88082   0.38939   0.00000  Uiso   1.00
H994   H     0.29107   0.84375   0.35259   0.00000  Uiso   1.00
H995   H     0.24385   0.86681   0.33425   0.00000  Uiso   1.00
O996   O     0.09330   0.83094   0.11986   0.00000  Uiso   1.00
C997   C     0.07917   0.87400   0.13412   0.00000  Uiso   1.00
H998   H     0.08473   0.89994   0.10901   0.00000  Uiso   1.00
H999   H     0.09281   0.88414   0.16616   0.00000  Uiso   1.00
H1000  H     0.04549   0.87249   0.14032   0.00000  Uiso   1.00
O1001  O     0.09592   0.85921   0.38601   0.00000  Uiso   1.00
C1002  C     0.07210   0.82068   0.37867   0.00000  Uiso   1.00
H1003  H     0.04134   0.83123   0.36767   0.00000  Uiso   1.00
H1004  H     0.06723   0.80147   0.40950   0.00000  Uiso   1.00
H1005  H     0.08625   0.79896   0.35153   0.00000  Uiso   1.00
O1006  O     0.24141   0.84025   0.11087   0.00000  Uiso   1.00
C1007  C     0.25939   0.80556   0.13428   0.00000  Uiso   1.00
H1008  H     0.29150   0.81485   0.14131   0.00000  Uiso   1.00
H1009  H     0.26046   0.77312   0.11535   0.00000  Uiso   1.00
H1010  H     0.24343   0.80181   0.16661   0.00000  Uiso   1.00
O1011  O     0.06382   0.88305   0.46458   0.00000  Uiso   1.00
C1012  C     0.07506   0.92872   0.46499   0.00000  Uiso   1.00
H1013  H     0.08188   0.93819   0.43005   0.00000  Uiso   1.00
H1014  H     0.10290   0.93681   0.48477   0.00000  Uiso   1.00
C1015  C     0.03943   0.95745   0.48459   0.00000  Uiso   1.00
H1016  H     0.01116   0.95064   0.46571   0.00000  Uiso   1.00
H1017  H     0.03334   0.94887   0.01996   0.00000  Uiso   1.00
C1018  C     0.04944   0.67368   0.48268   0.00000  Uiso   1.00
H1019  H     0.07592   0.68181   0.00402   0.00000  Uiso   1.00
H1020  H     0.02250   0.69381   0.49502   0.00000  Uiso   1.00
H1021  H     0.05692   0.68278   0.44778   0.00000  Uiso   1.00
O1022  O     0.27342   0.79291   0.03931   0.00000  Uiso   1.00
C1023  C     0.28241   0.74944   0.02071   0.00000  Uiso   1.00
H1024  H     0.30913   0.73661   0.03862   0.00000  Uiso   1.00
H1025  H     0.29236   0.75016   0.48498   0.00000  Uiso   1.00
C1026  C     0.24718   0.71611   0.02699   0.00000  Uiso   1.00
H1027  H     0.23960   0.71357   0.06308   0.00000  Uiso   1.00
H1028  H     0.21926   0.72745   0.00994   0.00000  Uiso   1.00
C1029  C     0.25936   0.66985   0.00768   0.00000  Uiso   1.00
H1030  H     0.26616   0.67121   0.47118   0.00000  Uiso   1.00
H1031  H     0.23368   0.97966   0.01315   0.00000  Uiso   1.00
H1032  H     0.28692   0.99039   0.02434   0.00000  Uiso   1.00
O1033  O     0.05525   0.84924   0.04720   0.00000  Uiso   1.00
C1034  C     0.03801   0.80632   0.04510   0.00000  Uiso   1.00
H1035  H     0.02806   0.79768   0.01067   0.00000  Uiso   1.00
H1036  H     0.01094   0.80636   0.06835   0.00000  Uiso   1.00
H1037  H     0.05955   0.78008   0.05602   0.00000  Uiso   1.00
O1038  O     0.27932   0.82025   0.45105   0.00000  Uiso   1.00
C1039  C     0.30066   0.85918   0.46409   0.00000  Uiso   1.00
H1040  H     0.28112   0.88988   0.46330   0.00000  Uiso   1.00
H1041  H     0.32667   0.86316   0.44002   0.00000  Uiso   1.00
H1042  H     0.31314   0.85643   0.49796   0.00000  Uiso   1.00
O1043  O     0.04221   0.75100   0.23322   0.00000  Uiso   1.00
C1044  C     0.05892   0.74304   0.18941   0.00000  Uiso   1.00
H1045  H     0.07935   0.71331   0.19095   0.00000  Uiso   1.00
H1046  H     0.07858   0.77073   0.17802   0.00000  Uiso   1.00
C1047  C     0.02600   0.73346   0.15480   0.00000  Uiso   1.00
H1048  H     0.33277   0.71648   0.17044   0.00000  Uiso   1.00
H1049  H     0.01485   0.76556   0.14210   0.00000  Uiso   1.00
C1050  C     0.04365   0.70452   0.11560   0.00000  Uiso   1.00
H1051  H     0.07253   0.71905   0.10216   0.00000  Uiso   1.00
H1052  H     0.02121   0.70228   0.08848   0.00000  Uiso   1.00
H1053  H     0.05039   0.67030   0.12663   0.00000  Uiso   1.00
O1054  O     0.29201   0.91213   0.22996   0.00000  Uiso   1.00
C1055  C     0.28729   0.91492   0.18329   0.00000  Uiso   1.00
H1056  H     0.25598   0.90362   0.17470   0.00000  Uiso   1.00
H1057  H     0.31017   0.89439   0.16271   0.00000  Uiso   1.00
C1058  C     0.29218   0.96331   0.17063   0.00000  Uiso   1.00
H1059  H     0.26771   0.98408   0.18798   0.00000  Uiso   1.00
H1060  H     0.32252   0.97519   0.18197   0.00000  Uiso   1.00
C1061  C     0.29003   0.96810   0.12014   0.00000  Uiso   1.00
H1062  H     0.31723   0.95181   0.10293   0.00000  Uiso   1.00
H1063  H     0.28964   0.67068   0.11245   0.00000  Uiso   1.00
H1064  H     0.26171   0.95267   0.10707   0.00000  Uiso   1.00
O1065  O     0.29513   0.75073   0.25142   0.00000  Uiso   1.00
C1066  C     0.28802   0.74451   0.29777   0.00000  Uiso   1.00
H1067  H     0.26900   0.71422   0.30084   0.00000  Uiso   1.00
H1068  H     0.26972   0.77241   0.31361   0.00000  Uiso   1.00
C1069  C     0.32775   0.73773   0.32356   0.00000  Uiso   1.00
H1070  H     0.01223   0.70893   0.30856   0.00000  Uiso   1.00
H1071  H     0.01389   0.76779   0.32188   0.00000  Uiso   1.00
C1072  C     0.31815   0.73007   0.37283   0.00000  Uiso   1.00
H1073  H     0.30358   0.76034   0.38893   0.00000  Uiso   1.00
H1074  H     0.01376   0.72305   0.39017   0.00000  Uiso   1.00
H1075  H     0.29700   0.70157   0.37658   0.00000  Uiso   1.00
O1076  O     0.03848   0.91503   0.25105   0.00000  Uiso   1.00
C1077  C     0.04309   0.92433   0.29746   0.00000  Uiso   1.00
H1078  H     0.06541   0.95198   0.30103   0.00000  Uiso   1.00
H1079  H     0.05648   0.89547   0.31463   0.00000  Uiso   1.00
C1080  C     0.00243   0.93900   0.32106   0.00000  Uiso   1.00
H1081  H     0.32330   0.96908   0.30546   0.00000  Uiso   1.00
H1082  H     0.31283   0.91217   0.31795   0.00000  Uiso   1.00
C1083  C     0.00837   0.94840   0.37071   0.00000  Uiso   1.00
H1084  H     0.01987   0.91785   0.38627   0.00000  Uiso   1.00
H1085  H     0.31183   0.95807   0.38730   0.00000  Uiso   1.00
H1086  H     0.03073   0.97572   0.37580   0.00000  Uiso   1.00
O1087  O     0.17075   0.71442   0.32948   0.00000  Uiso   1.00
C1088  C     0.13155   0.71099   0.35058   0.00000  Uiso   1.00
H1089  H     0.10658   0.72221   0.32872   0.00000  Uiso   1.00
H1090  H     0.13057   0.73301   0.38120   0.00000  Uiso   1.00
H1091  H     0.12561   0.67642   0.36116   0.00000  Uiso   1.00
O1092  O     0.13902   0.95190   0.17740   0.00000  Uiso   1.00
C1093  C     0.16291   0.95118   0.13726   0.00000  Uiso   1.00
H1094  H     0.19617   0.94587   0.14298   0.00000  Uiso   1.00
H1095  H     0.15653   0.98096   0.11764   0.00000  Uiso   1.00
H1096  H     0.15340   0.92267   0.11572   0.00000  Uiso   1.00
O1097  O     0.16009   0.70980   0.17131   0.00000  Uiso   1.00
C1098  C     0.20068   0.71547   0.15463   0.00000  Uiso   1.00
H1099  H     0.22063   0.73197   0.17973   0.00000  Uiso   1.00
H1100  H     0.19906   0.73636   0.12505   0.00000  Uiso   1.00
H1101  H     0.21550   0.68365   0.14332   0.00000  Uiso   1.00
O1102  O     0.18152   0.95587   0.32702   0.00000  Uiso   1.00
C1103  C     0.22284   0.96218   0.33846   0.00000  Uiso   1.00
H1104  H     0.22991   0.99785   0.34539   0.00000  Uiso   1.00
H1105  H     0.24418   0.94771   0.31197   0.00000  Uiso   1.00
H1106  H     0.22817   0.94499   0.36988   0.00000  Uiso   1.00
C1107  C     0.42016   0.83337   0.24831   0.00000  Uiso   1.00
C1108  C     0.57998   0.83302   0.24865   0.00000  Uiso   1.00
C1109  C     0.42651   0.84673   0.02550   0.00000  Uiso   1.00
C1110  C     0.57500   0.82028   0.47365   0.00000  Uiso   1.00
C1111  C     0.35547   0.79207   0.23709   0.00000  Uiso   1.00
C1112  C     0.64533   0.87251   0.23821   0.00000  Uiso   1.00
C1113  C     0.64674   0.79170   0.24505   0.00000  Uiso   1.00
C1114  C     0.35373   0.87365   0.24483   0.00000  Uiso   1.00
C1115  C     0.62435   0.83226   0.24410   0.00000  Uiso   1.00
C1116  C     0.37617   0.83310   0.24312   0.00000  Uiso   1.00
C1117  C     0.50364   0.69148   0.28881   0.00000  Uiso   1.00
C1118  C     0.49179   0.97469   0.21185   0.00000  Uiso   1.00
C1119  C     0.49573   0.68898   0.21123   0.00000  Uiso   1.00
C1120  C     0.50778   0.97726   0.28794   0.00000  Uiso   1.00
C1121  C     0.50069   0.83256   0.16363   0.00000  Uiso   1.00
C1122  C     0.49967   0.83420   0.33627   0.00000  Uiso   1.00
C1123  C     0.53783   0.82895   0.40463   0.00000  Uiso   1.00
C1124  C     0.46302   0.83354   0.09472   0.00000  Uiso   1.00
C1125  C     0.50060   0.83677   0.38394   0.00000  Uiso   1.00
C1126  C     0.50083   0.83042   0.11577   0.00000  Uiso   1.00
C1127  C     0.46444   0.84781   0.40827   0.00000  Uiso   1.00
C1128  C     0.53841   0.82669   0.09146   0.00000  Uiso   1.00
C1129  C     0.46463   0.84753   0.45504   0.00000  Uiso   1.00
C1130  C     0.53752   0.82293   0.04480   0.00000  Uiso   1.00
C1131  C     0.50099   0.83510   0.47641   0.00000  Uiso   1.00
C1132  C     0.50046   0.83173   0.02314   0.00000  Uiso   1.00
C1133  C     0.53830   0.82829   0.45137   0.00000  Uiso   1.00
C1134  C     0.46283   0.83669   0.04799   0.00000  Uiso   1.00
C1135  C     0.42903   0.85835   0.48103   0.00000  Uiso   1.00
C1136  C     0.57342   0.81211   0.01929   0.00000  Uiso   1.00
N1137  N     0.50000   0.95240   0.25000   0.00000  Uiso   1.00
N1138  N     0.50000   0.71427   0.25000   0.00000  Uiso   1.00
O1139  O     0.43892   0.87154   0.25000   0.00000  Uiso   1.00
O1140  O     0.56108   0.79513   0.25001   0.00000  Uiso   1.00
O1141  O     0.56108   0.87154   0.25001   0.00000  Uiso   1.00
O1142  O     0.43892   0.79513   0.25000   0.00000  Uiso   1.00
O1143  O     0.49999   0.87156   0.18393   0.00000  Uiso   1.00
O1144  O     0.50001   0.79511   0.31608   0.00000  Uiso   1.00
O1145  O     0.50001   0.87156   0.31608   0.00000  Uiso   1.00
O1146  O     0.49999   0.79511   0.18393   0.00000  Uiso   1.00
Zn1147 Zn    0.50000   0.88437   0.25000   0.00000  Uiso   1.00
Zn1148 Zn    0.50000   0.78229   0.25000   0.00000  Uiso   1.00
O1149  O     0.57225   0.81573   0.37908   0.00000  Uiso   1.00
C1150  C     0.59263   0.85370   0.36342   0.00000  Uiso   1.00
H1151  H     0.59495   0.88082   0.38939   0.00000  Uiso   1.00
H1152  H     0.62441   0.84375   0.35259   0.00000  Uiso   1.00
H1153  H     0.57718   0.86681   0.33425   0.00000  Uiso   1.00
O1154  O     0.42663   0.83094   0.11986   0.00000  Uiso   1.00
C1155  C     0.41251   0.87400   0.13412   0.00000  Uiso   1.00
H1156  H     0.41806   0.89994   0.10901   0.00000  Uiso   1.00
H1157  H     0.42614   0.88414   0.16616   0.00000  Uiso   1.00
H1158  H     0.37882   0.87249   0.14032   0.00000  Uiso   1.00
O1159  O     0.42926   0.85921   0.38601   0.00000  Uiso   1.00
C1160  C     0.40544   0.82068   0.37867   0.00000  Uiso   1.00
H1161  H     0.37467   0.83123   0.36767   0.00000  Uiso   1.00
H1162  H     0.40057   0.80147   0.40950   0.00000  Uiso   1.00
H1163  H     0.41958   0.79896   0.35153   0.00000  Uiso   1.00
O1164  O     0.57474   0.84025   0.11087   0.00000  Uiso   1.00
C1165  C     0.59273   0.80556   0.13428   0.00000  Uiso   1.00
H1166  H     0.62483   0.81485   0.14131   0.00000  Uiso   1.00
H1167  H     0.59379   0.77312   0.11535   0.00000  Uiso   1.00
H1168  H     0.57676   0.80181   0.16661   0.00000  Uiso   1.00
O1169  O     0.39716   0.88305   0.46458   0.00000  Uiso   1.00
C1170  C     0.40839   0.92872   0.46499   0.00000  Uiso   1.00
H1171  H     0.41522   0.93819   0.43005   0.00000  Uiso   1.00
H1172  H     0.43623   0.93681   0.48477   0.00000  Uiso   1.00
C1173  C     0.37277   0.95745   0.48459   0.00000  Uiso   1.00
H1174  H     0.34450   0.95064   0.46571   0.00000  Uiso   1.00
H1175  H     0.36667   0.94887   0.01996   0.00000  Uiso   1.00
C1176  C     0.38277   0.67368   0.48268   0.00000  Uiso   1.00
H1177  H     0.40926   0.68181   0.00402   0.00000  Uiso   1.00
H1178  H     0.35583   0.69381   0.49502   0.00000  Uiso   1.00
H1179  H     0.39026   0.68278   0.44778   0.00000  Uiso   1.00
O1180  O     0.60675   0.79291   0.03931   0.00000  Uiso   1.00
C1181  C     0.61575   0.74944   0.02071   0.00000  Uiso   1.00
H1182  H     0.64246   0.73661   0.03862   0.00000  Uiso   1.00
H1183  H     0.62570   0.75016   0.48498   0.00000  Uiso   1.00
C1184  C     0.58051   0.71611   0.02699   0.00000  Uiso   1.00
H1185  H     0.57293   0.71357   0.06308   0.00000  Uiso   1.00
H1186  H     0.55259   0.72745   0.00994   0.00000  Uiso   1.00
C1187  C     0.59269   0.66985   0.00768   0.00000  Uiso   1.00
H1188  H     0.59950   0.67121   0.47118   0.00000  Uiso   1.00
H1189  H     0.56701   0.97966   0.01315   0.00000  Uiso   1.00
H1190  H     0.62025   0.99039   0.02434   0.00000  Uiso   1.00
O1191  O     0.38859   0.84924   0.04720   0.00000  Uiso   1.00
C1192  C     0.37134   0.80632   0.04510   0.00000  Uiso   1.00
H1193  H     0.36139   0.79768   0.01067   0.00000  Uiso   1.00
H1194  H     0.34427   0.80636   0.06835   0.00000  Uiso   1.00
H1195  H     0.39288   0.78008   0.05602   0.00000  Uiso   1.00
O1196  O     0.61265   0.82025   0.45105   0.00000  Uiso   1.00
C1197  C     0.63399   0.85918   0.46409   0.00000  Uiso   1.00
H1198  H     0.61446   0.88988   0.46330   0.00000  Uiso   1.00
H1199  H     0.66000   0.86316   0.44002   0.00000  Uiso   1.00
H1200  H     0.64647   0.85643   0.49796   0.00000  Uiso   1.00
O1201  O     0.37554   0.75100   0.23322   0.00000  Uiso   1.00
C1202  C     0.39225   0.74304   0.18941   0.00000  Uiso   1.00
H1203  H     0.41268   0.71331   0.19095   0.00000  Uiso   1.00
H1204  H     0.41192   0.77073   0.17802   0.00000  Uiso   1.00
C1205  C     0.35933   0.73346   0.15480   0.00000  Uiso   1.00
H1206  H     0.66610   0.71648   0.17044   0.00000  Uiso   1.00
H1207  H     0.34818   0.76556   0.14210   0.00000  Uiso   1.00
C1208  C     0.37698   0.70452   0.11560   0.00000  Uiso   1.00
H1209  H     0.40586   0.71905   0.10216   0.00000  Uiso   1.00
H1210  H     0.35454   0.70228   0.08848   0.00000  Uiso   1.00
H1211  H     0.38372   0.67030   0.12663   0.00000  Uiso   1.00
O1212  O     0.62534   0.91213   0.22996   0.00000  Uiso   1.00
C1213  C     0.62062   0.91492   0.18329   0.00000  Uiso   1.00
H1214  H     0.58931   0.90362   0.17470   0.00000  Uiso   1.00
H1215  H     0.64350   0.89439   0.16271   0.00000  Uiso   1.00
C1216  C     0.62551   0.96331   0.17063   0.00000  Uiso   1.00
H1217  H     0.60104   0.98408   0.18798   0.00000  Uiso   1.00
H1218  H     0.65585   0.97519   0.18197   0.00000  Uiso   1.00
C1219  C     0.62336   0.96810   0.12014   0.00000  Uiso   1.00
H1220  H     0.65057   0.95181   0.10293   0.00000  Uiso   1.00
H1221  H     0.62297   0.67068   0.11245   0.00000  Uiso   1.00
H1222  H     0.59504   0.95267   0.10707   0.00000  Uiso   1.00
O1223  O     0.62846   0.75073   0.25142   0.00000  Uiso   1.00
C1224  C     0.62135   0.74451   0.29777   0.00000  Uiso   1.00
H1225  H     0.60233   0.71422   0.30084   0.00000  Uiso   1.00
H1226  H     0.60305   0.77241   0.31361   0.00000  Uiso   1.00
C1227  C     0.66108   0.73773   0.32356   0.00000  Uiso   1.00
H1228  H     0.34557   0.70893   0.30856   0.00000  Uiso   1.00
H1229  H     0.34722   0.76779   0.32188   0.00000  Uiso   1.00
C1230  C     0.65149   0.73007   0.37283   0.00000  Uiso   1.00
H1231  H     0.63691   0.76034   0.38893   0.00000  Uiso   1.00
H1232  H     0.34709   0.72305   0.39017   0.00000  Uiso   1.00
H1233  H     0.63033   0.70157   0.37658   0.00000  Uiso   1.00
O1234  O     0.37182   0.91503   0.25105   0.00000  Uiso   1.00
C1235  C     0.37642   0.92433   0.29746   0.00000  Uiso   1.00
H1236  H     0.39874   0.95198   0.30103   0.00000  Uiso   1.00
H1237  H     0.38981   0.89547   0.31463   0.00000  Uiso   1.00
C1238  C     0.33576   0.93900   0.32106   0.00000  Uiso   1.00
H1239  H     0.65664   0.96908   0.30546   0.00000  Uiso   1.00
H1240  H     0.64616   0.91217   0.31795   0.00000  Uiso   1.00
C1241  C     0.34170   0.94840   0.37071   0.00000  Uiso   1.00
H1242  H     0.35321   0.91785   0.38627   0.00000  Uiso   1.00
H1243  H     0.64516   0.95807   0.38730   0.00000  Uiso   1.00
H1244  H     0.36406   0.97572   0.37580   0.00000  Uiso   1.00
O1245  O     0.50408   0.71442   0.32948   0.00000  Uiso   1.00
C1246  C     0.46488   0.71099   0.35058   0.00000  Uiso   1.00
H1247  H     0.43991   0.72221   0.32872   0.00000  Uiso   1.00
H1248  H     0.46391   0.73301   0.38120   0.00000  Uiso   1.00
H1249  H     0.45895   0.67642   0.36116   0.00000  Uiso   1.00
O1250  O     0.47235   0.95190   0.17740   0.00000  Uiso   1.00
C1251  C     0.49624   0.95118   0.13726   0.00000  Uiso   1.00
H1252  H     0.52951   0.94587   0.14298   0.00000  Uiso   1.00
H1253  H     0.48986   0.98096   0.11764   0.00000  Uiso   1.00
H1254  H     0.48673   0.92267   0.11572   0.00000  Uiso   1.00
O1255  O     0.49342   0.70980   0.17131   0.00000  Uiso   1.00
C1256  C     0.53402   0.71547   0.15463   0.00000  Uiso   1.00
H1257  H     0.55397   0.73197   0.17973   0.00000  Uiso   1.00
H1258  H     0.53239   0.73636   0.12505   0.00000  Uiso   1.00
H1259  H     0.54884   0.68365   0.14332   0.00000  Uiso   1.00
O1260  O     0.51485   0.95587   0.32702   0.00000  Uiso   1.00
C1261  C     0.55617   0.96218   0.33846   0.00000  Uiso   1.00
H1262  H     0.56325   0.99785   0.34539   0.00000  Uiso   1.00
H1263  H     0.57751   0.94771   0.31197   0.00000  Uiso   1.00
H1264  H     0.56150   0.94499   0.36988   0.00000  Uiso   1.00
C1265  C     0.75349   0.83337   0.24831   0.00000  Uiso   1.00
C1266  C     0.91332   0.83302   0.24865   0.00000  Uiso   1.00
C1267  C     0.75985   0.84673   0.02550   0.00000  Uiso   1.00
C1268  C     0.90833   0.82028   0.47365   0.00000  Uiso   1.00
C1269  C     0.68881   0.79207   0.23709   0.00000  Uiso   1.00
C1270  C     0.97867   0.87251   0.23821   0.00000  Uiso   1.00
C1271  C     0.98008   0.79170   0.24505   0.00000  Uiso   1.00
C1272  C     0.68706   0.87365   0.24483   0.00000  Uiso   1.00
C1273  C     0.95769   0.83226   0.24410   0.00000  Uiso   1.00
C1274  C     0.70950   0.83310   0.24312   0.00000  Uiso   1.00
C1275  C     0.83698   0.69148   0.28881   0.00000  Uiso   1.00
C1276  C     0.82512   0.97469   0.21185   0.00000  Uiso   1.00
C1277  C     0.82906   0.68898   0.21123   0.00000  Uiso   1.00
C1278  C     0.84111   0.97726   0.28794   0.00000  Uiso   1.00
C1279  C     0.83402   0.83256   0.16363   0.00000  Uiso   1.00
C1280  C     0.83300   0.83420   0.33627   0.00000  Uiso   1.00
C1281  C     0.87116   0.82895   0.40463   0.00000  Uiso   1.00
C1282  C     0.79635   0.83354   0.09472   0.00000  Uiso   1.00
C1283  C     0.83393   0.83677   0.38394   0.00000  Uiso   1.00
C1284  C     0.83416   0.83042   0.11577   0.00000  Uiso   1.00
C1285  C     0.79778   0.84781   0.40827   0.00000  Uiso   1.00
C1286  C     0.87174   0.82669   0.09146   0.00000  Uiso   1.00
C1287  C     0.79797   0.84753   0.45504   0.00000  Uiso   1.00
C1288  C     0.87085   0.82293   0.04480   0.00000  Uiso   1.00
C1289  C     0.83433   0.83510   0.47641   0.00000  Uiso   1.00
C1290  C     0.83379   0.83173   0.02314   0.00000  Uiso   1.00
C1291  C     0.87163   0.82829   0.45137   0.00000  Uiso   1.00
C1292  C     0.79616   0.83669   0.04799   0.00000  Uiso   1.00
C1293  C     0.76236   0.85835   0.48103   0.00000  Uiso   1.00
C1294  C     0.90675   0.81211   0.01929   0.00000  Uiso   1.00
N1295  N     0.83333   0.95240   0.25000   0.00000  Uiso   1.00
N1296  N     0.83333   0.71427   0.25000   0.00000  Uiso   1.00
O1297  O     0.77226   0.87154   0.25000   0.00000  Uiso   1.00
O1298  O     0.89441   0.79513   0.25001   0.00000  Uiso   1.00
O1299  O     0.89441   0.87154   0.25001   0.00000  Uiso   1.00
O1300  O     0.77226   0.79513   0.25000   0.00000  Uiso   1.00
O1301  O     0.83333   0.87156   0.18393   0.00000  Uiso   1.00
O1302  O     0.83334   0.79511   0.31608   0.00000  Uiso   1.00
O1303  O     0.83334   0.87156   0.31608   0.00000  Uiso   1.00
O1304  O     0.83333   0.79511   0.18393   0.00000  Uiso   1.00
Zn1305 Zn    0.83333   0.88437   0.25000   0.00000  Uiso   1.00
Zn1306 Zn    0.83333   0.78229   0.25000   0.00000  Uiso   1.00
O1307  O     0.90559   0.81573   0.37908   0.00000  Uiso   1.00
C1308  C     0.92596   0.85370   0.36342   0.00000  Uiso   1.00
H1309  H     0.92828   0.88082   0.38939   0.00000  Uiso   1.00
H1310  H     0.95774   0.84375   0.35259   0.00000  Uiso   1.00
H1311  H     0.91052   0.86681   0.33425   0.00000  Uiso   1.00
O1312  O     0.75996   0.83094   0.11986   0.00000  Uiso   1.00
C1313  C     0.74584   0.87400   0.13412   0.00000  Uiso   1.00
H1314  H     0.75139   0.89994   0.10901   0.00000  Uiso   1.00
H1315  H     0.75947   0.88414   0.16616   0.00000  Uiso   1.00
H1316  H     0.71215   0.87249   0.14032   0.00000  Uiso   1.00
O1317  O     0.76259   0.85921   0.38601   0.00000  Uiso   1.00
C1318  C     0.73877   0.82068   0.37867   0.00000  Uiso   1.00
H1319  H     0.70801   0.83123   0.36767   0.00000  Uiso   1.00
H1320  H     0.73390   0.80147   0.40950   0.00000  Uiso   1.00
H1321  H     0.75291   0.79896   0.35153   0.00000  Uiso   1.00
O1322  O     0.90807   0.84025   0.11087   0.00000  Uiso   1.00
C1323  C     0.92606   0.80556   0.13428   0.00000  Uiso   1.00
H1324  H     0.95816   0.81485   0.14131   0.00000  Uiso   1.00
H1325  H     0.92712   0.77312   0.11535   0.00000  Uiso   1.00
H1326  H     0.91010   0.80181   0.16661   0.00000  Uiso   1.00
O1327  O     0.73049   0.88305   0.46458   0.00000  Uiso   1.00
C1328  C     0.74172   0.92872   0.46499   0.00000  Uiso   1.00
H1329  H     0.74855   0.93819   0.43005   0.00000  Uiso   1.00
H1330  H     0.76957   0.93681   0.48477   0.00000  Uiso   1.00
C1331  C     0.70610   0.95745   0.48459   0.00000  Uiso   1.00
H1332  H     0.67783   0.95064   0.46571   0.00000  Uiso   1.00
H1333  H     0.70000   0.94887   0.01996   0.00000  Uiso   1.00
C1334  C     0.71611   0.67368   0.48268   0.00000  Uiso   1.00
H1335  H     0.74259   0.68181   0.00402   0.00000  Uiso   1.00
H1336  H     0.68916   0.69381   0.49502   0.00000  Uiso   1.00
H1337  H     0.72359   0.68278   0.44778   0.00000  Uiso   1.00
O1338  O     0.94009   0.79291   0.03931   0.00000  Uiso   1.00
C1339  C     0.94908   0.74944   0.02071   0.00000  Uiso   1.00
H1340  H     0.97579   0.73661   0.03862   0.00000  Uiso   1.00
H1341  H     0.95903   0.75016   0.48498   0.00000  Uiso   1.00
C1342  C     0.91384   0.71611   0.02699   0.00000  Uiso   1.00
H1343  H     0.90626   0.71357   0.06308   0.00000  Uiso   1.00
H1344  H     0.88593   0.72745   0.00994   0.00000  Uiso   1.00
C1345  C     0.92602   0.66985   0.00768   0.00000  Uiso   1.00
H1346  H     0.93283   0.67121   0.47118   0.00000  Uiso   1.00
H1347  H     0.90035   0.97966   0.01315   0.00000  Uiso   1.00
H1348  H     0.95358   0.99039   0.02434   0.00000  Uiso   1.00
O1349  O     0.72192   0.84924   0.04720   0.00000  Uiso   1.00
C1350  C     0.70467   0.80632   0.04510   0.00000  Uiso   1.00
H1351  H     0.69473   0.79768   0.01067   0.00000  Uiso   1.00
H1352  H     0.67760   0.80636   0.06835   0.00000  Uiso   1.00
H1353  H     0.72622   0.78008   0.05602   0.00000  Uiso   1.00
O1354  O     0.94599   0.82025   0.45105   0.00000  Uiso   1.00
C1355  C     0.96732   0.85918   0.46409   0.00000  Uiso   1.00
H1356  H     0.94779   0.88988   0.46330   0.00000  Uiso   1.00
H1357  H     0.99334   0.86316   0.44002   0.00000  Uiso   1.00
H1358  H     0.97981   0.85643   0.49796   0.00000  Uiso   1.00
O1359  O     0.70887   0.75100   0.23322   0.00000  Uiso   1.00
C1360  C     0.72559   0.74304   0.18941   0.00000  Uiso   1.00
H1361  H     0.74601   0.71331   0.19095   0.00000  Uiso   1.00
H1362  H     0.74525   0.77073   0.17802   0.00000  Uiso   1.00
C1363  C     0.69266   0.73346   0.15480   0.00000  Uiso   1.00
H1364  H     0.99944   0.71648   0.17044   0.00000  Uiso   1.00
H1365  H     0.68151   0.76556   0.14210   0.00000  Uiso   1.00
C1366  C     0.71031   0.70452   0.11560   0.00000  Uiso   1.00
H1367  H     0.73920   0.71905   0.10216   0.00000  Uiso   1.00
H1368  H     0.68788   0.70228   0.08848   0.00000  Uiso   1.00
H1369  H     0.71705   0.67030   0.12663   0.00000  Uiso   1.00
O1370  O     0.95868   0.91213   0.22996   0.00000  Uiso   1.00
C1371  C     0.95396   0.91492   0.18329   0.00000  Uiso   1.00
H1372  H     0.92265   0.90362   0.17470   0.00000  Uiso   1.00
H1373  H     0.97684   0.89439   0.16271   0.00000  Uiso   1.00
C1374  C     0.95885   0.96331   0.17063   0.00000  Uiso   1.00
H1375  H     0.93437   0.98408   0.18798   0.00000  Uiso   1.00
H1376  H     0.98918   0.97519   0.18197   0.00000  Uiso   1.00
C1377  C     0.95669   0.96810   0.12014   0.00000  Uiso   1.00
H1378  H     0.98390   0.95181   0.10293   0.00000  Uiso   1.00
H1379  H     0.95630   0.67068   0.11245   0.00000  Uiso   1.00
H1380  H     0.92838   0.95267   0.10707   0.00000  Uiso   1.00
O1381  O     0.96179   0.75073   0.25142   0.00000  Uiso   1.00
C1382  C     0.95469   0.74451   0.29777   0.00000  Uiso   1.00
H1383  H     0.93566   0.71422   0.30084   0.00000  Uiso   1.00
H1384  H     0.93638   0.77241   0.31361   0.00000  Uiso   1.00
C1385  C     0.99441   0.73773   0.32356   0.00000  Uiso   1.00
H1386  H     0.67890   0.70893   0.30856   0.00000  Uiso   1.00
H1387  H     0.68056   0.76779   0.32188   0.00000  Uiso   1.00
C1388  C     0.98482   0.73007   0.37283   0.00000  Uiso   1.00
H1389  H     0.97025   0.76034   0.38893   0.00000  Uiso   1.00
H1390  H     0.68043   0.72305   0.39017   0.00000  Uiso   1.00
H1391  H     0.96367   0.70157   0.37658   0.00000  Uiso   1.00
O1392  O     0.70515   0.91503   0.25105   0.00000  Uiso   1.00
C1393  C     0.70975   0.92433   0.29746   0.00000  Uiso   1.00
H1394  H     0.73208   0.95198   0.30103   0.00000  Uiso   1.00
H1395  H     0.72314   0.89547   0.31463   0.00000  Uiso   1.00
C1396  C     0.66909   0.93900   0.32106   0.00000  Uiso   1.00
H1397  H     0.98997   0.96908   0.30546   0.00000  Uiso   1.00
H1398  H     0.97950   0.91217   0.31795   0.00000  Uiso   1.00
C1399  C     0.67504   0.94840   0.37071   0.00000  Uiso   1.00
H1400  H     0.68654   0.91785   0.38627   0.00000  Uiso   1.00
H1401  H     0.97849   0.95807   0.38730   0.00000  Uiso   1.00
H1402  H     0.69740   0.97572   0.37580   0.00000  Uiso   1.00
O1403  O     0.83741   0.71442   0.32948   0.00000  Uiso   1.00
C1404  C     0.79822   0.71099   0.35058   0.00000  Uiso   1.00
H1405  H     0.77325   0.72221   0.32872   0.00000  Uiso   1.00
H1406  H     0.79724   0.73301   0.38120   0.00000  Uiso   1.00
H1407  H     0.79228   0.67642   0.36116   0.00000  Uiso   1.00
O1408  O     0.80568   0.95190   0.17740   0.00000  Uiso   1.00
C1409  C     0.82957   0.95118   0.13726   0.00000  Uiso   1.00
H1410  H     0.86284   0.94587   0.14298   0.00000  Uiso   1.00
H1411  H     0.82319   0.98096   0.11764   0.00000  Uiso   1.00
H1412  H     0.82006   0.92267   0.11572   0.00000  Uiso   1.00
O1413  O     0.82676   0.70980   0.17131   0.00000  Uiso   1.00
C1414  C     0.86735   0.71547   0.15463   0.00000  Uiso   1.00
H1415  H     0.88730   0.73197   0.17973   0.00000  Uiso   1.00
H1416  H     0.86573   0.73636   0.12505   0.00000  Uiso   1.00
H1417  H     0.88217   0.68365   0.14332   0.00000  Uiso   1.00
O1418  O     0.84818   0.95587   0.32702   0.00000  Uiso   1.00
C1419  C     0.88950   0.96218   0.33846   0.00000  Uiso   1.00
H1420  H     0.89658   0.99785   0.34539   0.00000  Uiso   1.00
H1421  H     0.91085   0.94771   0.31197   0.00000  Uiso   1.00
H1422  H     0.89483   0.94499   0.36988   0.00000  Uiso   1.00
C1423  C     0.08683   0.16670   0.74831   0.00000  Uiso   1.00
C1424  C     0.24665   0.16635   0.74865   0.00000  Uiso   1.00
C1425  C     0.09318   0.18006   0.52550   0.00000  Uiso   1.00
C1426  C     0.24167   0.15362   0.97365   0.00000  Uiso   1.00
C1427  C     0.02214   0.12540   0.73709   0.00000  Uiso   1.00
C1428  C     0.31200   0.20585   0.73821   0.00000  Uiso   1.00
C1429  C     0.31341   0.12503   0.74505   0.00000  Uiso   1.00
C1430  C     0.02039   0.20699   0.74483   0.00000  Uiso   1.00
C1431  C     0.29102   0.16559   0.74410   0.00000  Uiso   1.00
C1432  C     0.04284   0.16643   0.74312   0.00000  Uiso   1.00
C1433  C     0.17031   0.02481   0.78881   0.00000  Uiso   1.00
C1434  C     0.15845   0.30802   0.71185   0.00000  Uiso   1.00
C1435  C     0.16239   0.02231   0.71123   0.00000  Uiso   1.00
C1436  C     0.17445   0.31059   0.78794   0.00000  Uiso   1.00
C1437  C     0.16736   0.16589   0.66363   0.00000  Uiso   1.00
C1438  C     0.16634   0.16753   0.83627   0.00000  Uiso   1.00
C1439  C     0.20449   0.16228   0.90463   0.00000  Uiso   1.00
C1440  C     0.12968   0.16687   0.59472   0.00000  Uiso   1.00
C1441  C     0.16727   0.17010   0.88394   0.00000  Uiso   1.00
C1442  C     0.16750   0.16375   0.61577   0.00000  Uiso   1.00
C1443  C     0.13111   0.18115   0.90827   0.00000  Uiso   1.00
C1444  C     0.20508   0.16003   0.59146   0.00000  Uiso   1.00
C1445  C     0.13130   0.18086   0.95504   0.00000  Uiso   1.00
C1446  C     0.20418   0.15626   0.54480   0.00000  Uiso   1.00
C1447  C     0.16766   0.16843   0.97641   0.00000  Uiso   1.00
C1448  C     0.16712   0.16507   0.52314   0.00000  Uiso   1.00
C1449  C     0.20496   0.16162   0.95137   0.00000  Uiso   1.00
C1450  C     0.12950   0.17003   0.54799   0.00000  Uiso   1.00
C1451  C     0.09570   0.19168   0.98103   0.00000  Uiso   1.00
C1452  C     0.24008   0.14544   0.51929   0.00000  Uiso   1.00
N1453  N     0.16667   0.28573   0.75000   0.00000  Uiso   1.00
N1454  N     0.16667   0.04760   0.75000   0.00000  Uiso   1.00
O1455  O     0.10559   0.20487   0.75000   0.00000  Uiso   1.00
O1456  O     0.22774   0.12846   0.75001   0.00000  Uiso   1.00
O1457  O     0.22774   0.20487   0.75001   0.00000  Uiso   1.00
O1458  O     0.10559   0.12846   0.75000   0.00000  Uiso   1.00
O1459  O     0.16666   0.20489   0.68393   0.00000  Uiso   1.00
O1460  O     0.16667   0.12844   0.81608   0.00000  Uiso   1.00
O1461  O     0.16667   0.20489   0.81608   0.00000  Uiso   1.00
O1462  O     0.16666   0.12844   0.68393   0.00000  Uiso   1.00
Zn1463 Zn    0.16667   0.21771   0.75000   0.00000  Uiso   1.00
Zn1464 Zn    0.16667   0.11563   0.75000   0.00000  Uiso   1.00
O1465  O     0.23892   0.14906   0.87908   0.00000  Uiso   1.00
C1466  C     0.25929   0.18703   0.86342   0.00000  Uiso   1.00
H1467  H     0.26161   0.21415   0.88939   0.00000  Uiso   1.00
H1468  H     0.29107   0.17708   0.85259   0.00000  Uiso   1.00
H1469  H     0.24385   0.20014   0.83425   0.00000  Uiso   1.00
O1470  O     0.09330   0.16428   0.61986   0.00000  Uiso   1.00
C1471  C     0.07917   0.20733   0.63412   0.00000  Uiso   1.00
H1472  H     0.08473   0.23327   0.60901   0.00000  Uiso   1.00
H1473  H     0.09281   0.21747   0.66616   0.00000  Uiso   1.00
H1474  H     0.04549   0.20583   0.64032   0.00000  Uiso   1.00
O1475  O     0.09592   0.19254   0.88601   0.00000  Uiso   1.00
C1476  C     0.07210   0.15401   0.87867   0.00000  Uiso   1.00
H1477  H     0.04134   0.16456   0.86767   0.00000  Uiso   1.00
H1478  H     0.06723   0.13481   0.90950   0.00000  Uiso   1.00
H1479  H     0.08625   0.13230   0.85153   0.00000  Uiso   1.00
O1480  O     0.24141   0.17359   0.61087   0.00000  Uiso   1.00
C1481  C     0.25939   0.13889   0.63428   0.00000  Uiso   1.00
H1482  H     0.29150   0.14819   0.64131   0.00000  Uiso   1.00
H1483  H     0.26046   0.10645   0.61535   0.00000  Uiso   1.00
H1484  H     0.24343   0.13514   0.66661   0.00000  Uiso   1.00
O1485  O     0.06382   0.21638   0.96458   0.00000  Uiso   1.00
C1486  C     0.07506   0.26205   0.96499   0.00000  Uiso   1.00
H1487  H     0.08188   0.27153   0.93005   0.00000  Uiso   1.00
H1488  H     0.10290   0.27015   0.98477   0.00000  Uiso   1.00
C1489  C     0.03943   0.29079   0.98459   0.00000  Uiso   1.00
H1490  H     0.01116   0.28397   0.96571   0.00000  Uiso   1.00
H1491  H     0.03334   0.28220   0.51996   0.00000  Uiso   1.00
C1492  C     0.04944   0.00701   0.98268   0.00000  Uiso   1.00
H1493  H     0.07592   0.01515   0.50402   0.00000  Uiso   1.00
H1494  H     0.02250   0.02714   0.99502   0.00000  Uiso   1.00
H1495  H     0.05692   0.01612   0.94778   0.00000  Uiso   1.00
O1496  O     0.27342   0.12625   0.53931   0.00000  Uiso   1.00
C1497  C     0.28241   0.08278   0.52071   0.00000  Uiso   1.00
H1498  H     0.30913   0.06995   0.53862   0.00000  Uiso   1.00
H1499  H     0.29236   0.08349   0.98498   0.00000  Uiso   1.00
C1500  C     0.24718   0.04944   0.52699   0.00000  Uiso   1.00
H1501  H     0.23960   0.04691   0.56308   0.00000  Uiso   1.00
H1502  H     0.21926   0.06078   0.50994   0.00000  Uiso   1.00
C1503  C     0.25936   0.00318   0.50768   0.00000  Uiso   1.00
H1504  H     0.26616   0.00454   0.97118   0.00000  Uiso   1.00
H1505  H     0.23368   0.31300   0.51315   0.00000  Uiso   1.00
H1506  H     0.28692   0.32372   0.52434   0.00000  Uiso   1.00
O1507  O     0.05525   0.18258   0.54720   0.00000  Uiso   1.00
C1508  C     0.03801   0.13965   0.54510   0.00000  Uiso   1.00
H1509  H     0.02806   0.13101   0.51067   0.00000  Uiso   1.00
H1510  H     0.01094   0.13969   0.56835   0.00000  Uiso   1.00
H1511  H     0.05955   0.11341   0.55602   0.00000  Uiso   1.00
O1512  O     0.27932   0.15359   0.95105   0.00000  Uiso   1.00
C1513  C     0.30066   0.19251   0.96409   0.00000  Uiso   1.00
H1514  H     0.28112   0.22322   0.96330   0.00000  Uiso   1.00
H1515  H     0.32667   0.19649   0.94002   0.00000  Uiso   1.00
H1516  H     0.31314   0.18976   0.99796   0.00000  Uiso   1.00
O1517  O     0.04221   0.08434   0.73322   0.00000  Uiso   1.00
C1518  C     0.05892   0.07638   0.68941   0.00000  Uiso   1.00
H1519  H     0.07935   0.04664   0.69095   0.00000  Uiso   1.00
H1520  H     0.07858   0.10407   0.67802   0.00000  Uiso   1.00
C1521  C     0.02600   0.06679   0.65480   0.00000  Uiso   1.00
H1522  H     0.33277   0.04981   0.67044   0.00000  Uiso   1.00
H1523  H     0.01485   0.09889   0.64210   0.00000  Uiso   1.00
C1524  C     0.04365   0.03786   0.61560   0.00000  Uiso   1.00
H1525  H     0.07253   0.05239   0.60216   0.00000  Uiso   1.00
H1526  H     0.02121   0.03562   0.58848   0.00000  Uiso   1.00
H1527  H     0.05039   0.00363   0.62663   0.00000  Uiso   1.00
O1528  O     0.29201   0.24547   0.72996   0.00000  Uiso   1.00
C1529  C     0.28729   0.24825   0.68329   0.00000  Uiso   1.00
H1530  H     0.25598   0.23696   0.67470   0.00000  Uiso   1.00
H1531  H     0.31017   0.22773   0.66271   0.00000  Uiso   1.00
C1532  C     0.29218   0.29665   0.67063   0.00000  Uiso   1.00
H1533  H     0.26771   0.31741   0.68798   0.00000  Uiso   1.00
H1534  H     0.32252   0.30852   0.68197   0.00000  Uiso   1.00
C1535  C     0.29003   0.30144   0.62014   0.00000  Uiso   1.00
H1536  H     0.31723   0.28515   0.60293   0.00000  Uiso   1.00
H1537  H     0.28964   0.00401   0.61245   0.00000  Uiso   1.00
H1538  H     0.26171   0.28600   0.60707   0.00000  Uiso   1.00
O1539  O     0.29513   0.08406   0.75142   0.00000  Uiso   1.00
C1540  C     0.28802   0.07785   0.79777   0.00000  Uiso   1.00
H1541  H     0.26900   0.04755   0.80084   0.00000  Uiso   1.00
H1542  H     0.26972   0.10575   0.81361   0.00000  Uiso   1.00
C1543  C     0.32775   0.07106   0.82356   0.00000  Uiso   1.00
H1544  H     0.01223   0.04226   0.80856   0.00000  Uiso   1.00
H1545  H     0.01389   0.10112   0.82188   0.00000  Uiso   1.00
C1546  C     0.31815   0.06340   0.87283   0.00000  Uiso   1.00
H1547  H     0.30358   0.09367   0.88893   0.00000  Uiso   1.00
H1548  H     0.01376   0.05639   0.89017   0.00000  Uiso   1.00
H1549  H     0.29700   0.03490   0.87658   0.00000  Uiso   1.00
O1550  O     0.03848   0.24837   0.75105   0.00000  Uiso   1.00
C1551  C     0.04309   0.25766   0.79746   0.00000  Uiso   1.00
H1552  H     0.06541   0.28531   0.80103   0.00000  Uiso   1.00
H1553  H     0.05648   0.22880   0.81463   0.00000  Uiso   1.00
C1554  C     0.00243   0.27234   0.82106   0.00000  Uiso   1.00
H1555  H     0.32330   0.30242   0.80546   0.00000  Uiso   1.00
H1556  H     0.31283   0.24551   0.81795   0.00000  Uiso   1.00
C1557  C     0.00837   0.28173   0.87071   0.00000  Uiso   1.00
H1558  H     0.01987   0.25118   0.88627   0.00000  Uiso   1.00
H1559  H     0.31183   0.29141   0.88730   0.00000  Uiso   1.00
H1560  H     0.03073   0.30905   0.87580   0.00000  Uiso   1.00
O1561  O     0.17075   0.04776   0.82948   0.00000  Uiso   1.00
C1562  C     0.13155   0.04432   0.85058   0.00000  Uiso   1.00
H1563  H     0.10658   0.05554   0.82872   0.00000  Uiso   1.00
H1564  H     0.13057   0.06634   0.88120   0.00000  Uiso   1.00
H1565  H     0.12561   0.00976   0.86116   0.00000  Uiso   1.00
O1566  O     0.13902   0.28523   0.67740   0.00000  Uiso   1.00
C1567  C     0.16291   0.28452   0.63726   0.00000  Uiso   1.00
H1568  H     0.19617   0.27921   0.64298   0.00000  Uiso   1.00
H1569  H     0.15653   0.31429   0.61764   0.00000  Uiso   1.00
H1570  H     0.15340   0.25601   0.61572   0.00000  Uiso   1.00
O1571  O     0.16009   0.04313   0.67131   0.00000  Uiso   1.00
C1572  C     0.20068   0.04880   0.65463   0.00000  Uiso   1.00
H1573  H     0.22063   0.06530   0.67973   0.00000  Uiso   1.00
H1574  H     0.19906   0.06969   0.62505   0.00000  Uiso   1.00
H1575  H     0.21550   0.01699   0.64332   0.00000  Uiso   1.00
O1576  O     0.18152   0.28920   0.82702   0.00000  Uiso   1.00
C1577  C     0.22284   0.29551   0.83846   0.00000  Uiso   1.00
H1578  H     0.22991   0.33118   0.84539   0.00000  Uiso   1.00
H1579  H     0.24418   0.28104   0.81197   0.00000  Uiso   1.00
H1580  H     0.22817   0.27833   0.86988   0.00000  Uiso   1.00
C1581  C     0.42016   0.16670   0.74831   0.00000  Uiso   1.00
C1582  C     0.57998   0.16635   0.74865   0.00000  Uiso   1.00
C1583  C     0.42651   0.18006   0.52550   0.00000  Uiso   1.00
C1584  C     0.57500   0.15362   0.97365   0.00000  Uiso   1.00
C1585  C     0.35547   0.12540   0.73709   0.00000  Uiso   1.00
C1586  C     0.64533   0.20585   0.73821   0.00000  Uiso   1.00
C1587  C     0.64674   0.12503   0.74505   0.00000  Uiso   1.00
C1588  C     0.35373   0.20699   0.74483   0.00000  Uiso   1.00
C1589  C     0.62435   0.16559   0.74410   0.00000  Uiso   1.00
C1590  C     0.37617   0.16643   0.74312   0.00000  Uiso   1.00
C1591  C     0.50364   0.02481   0.78881   0.00000  Uiso   1.00
C1592  C     0.49179   0.30802   0.71185   0.00000  Uiso   1.00
C1593  C     0.49573   0.02231   0.71123   0.00000  Uiso   1.00
C1594  C     0.50778   0.31059   0.78794   0.00000  Uiso   1.00
C1595  C     0.50069   0.16589   0.66363   0.00000  Uiso   1.00
C1596  C     0.49967   0.16753   0.83627   0.00000  Uiso   1.00
C1597  C     0.53783   0.16228   0.90463   0.00000  Uiso   1.00
C1598  C     0.46302   0.16687   0.59472   0.00000  Uiso   1.00
C1599  C     0.50060   0.17010   0.88394   0.00000  Uiso   1.00
C1600  C     0.50083   0.16375   0.61577   0.00000  Uiso   1.00
C1601  C     0.46444   0.18115   0.90827   0.00000  Uiso   1.00
C1602  C     0.53841   0.16003   0.59146   0.00000  Uiso   1.00
C1603  C     0.46463   0.18086   0.95504   0.00000  Uiso   1.00
C1604  C     0.53752   0.15626   0.54480   0.00000  Uiso   1.00
C1605  C     0.50099   0.16843   0.97641   0.00000  Uiso   1.00
C1606  C     0.50046   0.16507   0.52314   0.00000  Uiso   1.00
C1607  C     0.53830   0.16162   0.95137   0.00000  Uiso   1.00
C1608  C     0.46283   0.17003   0.54799   0.00000  Uiso   1.00
C1609  C     0.42903   0.19168   0.98103   0.00000  Uiso   1.00
C1610  C     0.57342   0.14544   0.51929   0.00000  Uiso   1.00
N1611  N     0.50000   0.28573   0.75000   0.00000  Uiso   1.00
N1612  N     0.50000   0.04760   0.75000   0.00000  Uiso   1.00
O1613  O     0.43892   0.20487   0.75000   0.00000  Uiso   1.00
O1614  O     0.56108   0.12846   0.75001   0.00000  Uiso   1.00
O1615  O     0.56108   0.20487   0.75001   0.00000  Uiso   1.00
O1616  O     0.43892   0.12846   0.75000   0.00000  Uiso   1.00
O1617  O     0.49999   0.20489   0.68393   0.00000  Uiso   1.00
O1618  O     0.50001   0.12844   0.81608   0.00000  Uiso   1.00
O1619  O     0.50001   0.20489   0.81608   0.00000  Uiso   1.00
O1620  O     0.49999   0.12844   0.68393   0.00000  Uiso   1.00
Zn1621 Zn    0.50000   0.21771   0.75000   0.00000  Uiso   1.00
Zn1622 Zn    0.50000   0.11563   0.75000   0.00000  Uiso   1.00
O1623  O     0.57225   0.14906   0.87908   0.00000  Uiso   1.00
C1624  C     0.59263   0.18703   0.86342   0.00000  Uiso   1.00
H1625  H     0.59495   0.21415   0.88939   0.00000  Uiso   1.00
H1626  H     0.62441   0.17708   0.85259   0.00000  Uiso   1.00
H1627  H     0.57718   0.20014   0.83425   0.00000  Uiso   1.00
O1628  O     0.42663   0.16428   0.61986   0.00000  Uiso   1.00
C1629  C     0.41251   0.20733   0.63412   0.00000  Uiso   1.00
H1630  H     0.41806   0.23327   0.60901   0.00000  Uiso   1.00
H1631  H     0.42614   0.21747   0.66616   0.00000  Uiso   1.00
H1632  H     0.37882   0.20583   0.64032   0.00000  Uiso   1.00
O1633  O     0.42926   0.19254   0.88601   0.00000  Uiso   1.00
C1634  C     0.40544   0.15401   0.87867   0.00000  Uiso   1.00
H1635  H     0.37467   0.16456   0.86767   0.00000  Uiso   1.00
H1636  H     0.40057   0.13481   0.90950   0.00000  Uiso   1.00
H1637  H     0.41958   0.13230   0.85153   0.00000  Uiso   1.00
O1638  O     0.57474   0.17359   0.61087   0.00000  Uiso   1.00
C1639  C     0.59273   0.13889   0.63428   0.00000  Uiso   1.00
H1640  H     0.62483   0.14819   0.64131   0.00000  Uiso   1.00
H1641  H     0.59379   0.10645   0.61535   0.00000  Uiso   1.00
H1642  H     0.57676   0.13514   0.66661   0.00000  Uiso   1.00
O1643  O     0.39716   0.21638   0.96458   0.00000  Uiso   1.00
C1644  C     0.40839   0.26205   0.96499   0.00000  Uiso   1.00
H1645  H     0.41522   0.27153   0.93005   0.00000  Uiso   1.00
H1646  H     0.43623   0.27015   0.98477   0.00000  Uiso   1.00
C1647  C     0.37277   0.29079   0.98459   0.00000  Uiso   1.00
H1648  H     0.34450   0.28397   0.96571   0.00000  Uiso   1.00
H1649  H     0.36667   0.28220   0.51996   0.00000  Uiso   1.00
C1650  C     0.38277   0.00701   0.98268   0.00000  Uiso   1.00
H1651  H     0.40926   0.01515   0.50402   0.00000  Uiso   1.00
H1652  H     0.35583   0.02714   0.99502   0.00000  Uiso   1.00
H1653  H     0.39026   0.01612   0.94778   0.00000  Uiso   1.00
O1654  O     0.60675   0.12625   0.53931   0.00000  Uiso   1.00
C1655  C     0.61575   0.08278   0.52071   0.00000  Uiso   1.00
H1656  H     0.64246   0.06995   0.53862   0.00000  Uiso   1.00
H1657  H     0.62570   0.08349   0.98498   0.00000  Uiso   1.00
C1658  C     0.58051   0.04944   0.52699   0.00000  Uiso   1.00
H1659  H     0.57293   0.04691   0.56308   0.00000  Uiso   1.00
H1660  H     0.55259   0.06078   0.50994   0.00000  Uiso   1.00
C1661  C     0.59269   0.00318   0.50768   0.00000  Uiso   1.00
H1662  H     0.59950   0.00454   0.97118   0.00000  Uiso   1.00
H1663  H     0.56701   0.31300   0.51315   0.00000  Uiso   1.00
H1664  H     0.62025   0.32372   0.52434   0.00000  Uiso   1.00
O1665  O     0.38859   0.18258   0.54720   0.00000  Uiso   1.00
C1666  C     0.37134   0.13965   0.54510   0.00000  Uiso   1.00
H1667  H     0.36139   0.13101   0.51067   0.00000  Uiso   1.00
H1668  H     0.34427   0.13969   0.56835   0.00000  Uiso   1.00
H1669  H     0.39288   0.11341   0.55602   0.00000  Uiso   1.00
O1670  O     0.61265   0.15359   0.95105   0.00000  Uiso   1.00
C1671  C     0.63399   0.19251   0.96409   0.00000  Uiso   1.00
H1672  H     0.61446   0.22322   0.96330   0.00000  Uiso   1.00
H1673  H     0.66000   0.19649   0.94002   0.00000  Uiso   1.00
H1674  H     0.64647   0.18976   0.99796   0.00000  Uiso   1.00
O1675  O     0.37554   0.08434   0.73322   0.00000  Uiso   1.00
C1676  C     0.39225   0.07638   0.68941   0.00000  Uiso   1.00
H1677  H     0.41268   0.04664   0.69095   0.00000  Uiso   1.00
H1678  H     0.41192   0.10407   0.67802   0.00000  Uiso   1.00
C1679  C     0.35933   0.06679   0.65480   0.00000  Uiso   1.00
H1680  H     0.66610   0.04981   0.67044   0.00000  Uiso   1.00
H1681  H     0.34818   0.09889   0.64210   0.00000  Uiso   1.00
C1682  C     0.37698   0.03786   0.61560   0.00000  Uiso   1.00
H1683  H     0.40586   0.05239   0.60216   0.00000  Uiso   1.00
H1684  H     0.35454   0.03562   0.58848   0.00000  Uiso   1.00
H1685  H     0.38372   0.00363   0.62663   0.00000  Uiso   1.00
O1686  O     0.62534   0.24547   0.72996   0.00000  Uiso   1.00
C1687  C     0.62062   0.24825   0.68329   0.00000  Uiso   1.00
H1688  H     0.58931   0.23696   0.67470   0.00000  Uiso   1.00
H1689  H     0.64350   0.22773   0.66271   0.00000  Uiso   1.00
C1690  C     0.62551   0.29665   0.67063   0.00000  Uiso   1.00
H1691  H     0.60104   0.31741   0.68798   0.00000  Uiso   1.00
H1692  H     0.65585   0.30852   0.68197   0.00000  Uiso   1.00
C1693  C     0.62336   0.30144   0.62014   0.00000  Uiso   1.00
H1694  H     0.65057   0.28515   0.60293   0.00000  Uiso   1.00
H1695  H     0.62297   0.00401   0.61245   0.00000  Uiso   1.00
H1696  H     0.59504   0.28600   0.60707   0.00000  Uiso   1.00
O1697  O     0.62846   0.08406   0.75142   0.00000  Uiso   1.00
C1698  C     0.62135   0.07785   0.79777   0.00000  Uiso   1.00
H1699  H     0.60233   0.04755   0.80084   0.00000  Uiso   1.00
H1700  H     0.60305   0.10575   0.81361   0.00000  Uiso   1.00
C1701  C     0.66108   0.07106   0.82356   0.00000  Uiso   1.00
H1702  H     0.34557   0.04226   0.80856   0.00000  Uiso   1.00
H1703  H     0.34722   0.10112   0.82188   0.00000  Uiso   1.00
C1704  C     0.65149   0.06340   0.87283   0.00000  Uiso   1.00
H1705  H     0.63691   0.09367   0.88893   0.00000  Uiso   1.00
H1706  H     0.34709   0.05639   0.89017   0.00000  Uiso   1.00
H1707  H     0.63033   0.03490   0.87658   0.00000  Uiso   1.00
O1708  O     0.37182   0.24837   0.75105   0.00000  Uiso   1.00
C1709  C     0.37642   0.25766   0.79746   0.00000  Uiso   1.00
H1710  H     0.39874   0.28531   0.80103   0.00000  Uiso   1.00
H1711  H     0.38981   0.22880   0.81463   0.00000  Uiso   1.00
C1712  C     0.33576   0.27234   0.82106   0.00000  Uiso   1.00
H1713  H     0.65664   0.30242   0.80546   0.00000  Uiso   1.00
H1714  H     0.64616   0.24551   0.81795   0.00000  Uiso   1.00
C1715  C     0.34170   0.28173   0.87071   0.00000  Uiso   1.00
H1716  H     0.35321   0.25118   0.88627   0.00000  Uiso   1.00
H1717  H     0.64516   0.29141   0.88730   0.00000  Uiso   1.00
H1718  H     0.36406   0.30905   0.87580   0.00000  Uiso   1.00
O1719  O     0.50408   0.04776   0.82948   0.00000  Uiso   1.00
C1720  C     0.46488   0.04432   0.85058   0.00000  Uiso   1.00
H1721  H     0.43991   0.05554   0.82872   0.00000  Uiso   1.00
H1722  H     0.46391   0.06634   0.88120   0.00000  Uiso   1.00
H1723  H     0.45895   0.00976   0.86116   0.00000  Uiso   1.00
O1724  O     0.47235   0.28523   0.67740   0.00000  Uiso   1.00
C1725  C     0.49624   0.28452   0.63726   0.00000  Uiso   1.00
H1726  H     0.52951   0.27921   0.64298   0.00000  Uiso   1.00
H1727  H     0.48986   0.31429   0.61764   0.00000  Uiso   1.00
H1728  H     0.48673   0.25601   0.61572   0.00000  Uiso   1.00
O1729  O     0.49342   0.04313   0.67131   0.00000  Uiso   1.00
C1730  C     0.53402   0.04880   0.65463   0.00000  Uiso   1.00
H1731  H     0.55397   0.06530   0.67973   0.00000  Uiso   1.00
H1732  H     0.53239   0.06969   0.62505   0.00000  Uiso   1.00
H1733  H     0.54884   0.01699   0.64332   0.00000  Uiso   1.00
O1734  O     0.51485   0.28920   0.82702   0.00000  Uiso   1.00
C1735  C     0.55617   0.29551   0.83846   0.00000  Uiso   1.00
H1736  H     0.56325   0.33118   0.84539   0.00000  Uiso   1.00
H1737  H     0.57751   0.28104   0.81197   0.00000  Uiso   1.00
H1738  H     0.56150   0.27833   0.86988   0.00000  Uiso   1.00
C1739  C     0.75349   0.16670   0.74831   0.00000  Uiso   1.00
C1740  C     0.91332   0.16635   0.74865   0.00000  Uiso   1.00
C1741  C     0.75985   0.18006   0.52550   0.00000  Uiso   1.00
C1742  C     0.90833   0.15362   0.97365   0.00000  Uiso   1.00
C1743  C     0.68881   0.12540   0.73709   0.00000  Uiso   1.00
C1744  C     0.97867   0.20585   0.73821   0.00000  Uiso   1.00
C1745  C     0.98008   0.12503   0.74505   0.00000  Uiso   1.00
C1746  C     0.68706   0.20699   0.74483   0.00000  Uiso   1.00
C1747  C     0.95769   0.16559   0.74410   0.00000  Uiso   1.00
C1748  C     0.70950   0.16643   0.74312   0.00000  Uiso   1.00
C1749  C     0.83698   0.02481   0.78881   0.00000  Uiso   1.00
C1750  C     0.82512   0.30802   0.71185   0.00000  Uiso   1.00
C1751  C     0.82906   0.02231   0.71123   0.00000  Uiso   1.00
C1752  C     0.84111   0.31059   0.78794   0.00000  Uiso   1.00
C1753  C     0.83402   0.16589   0.66363   0.00000  Uiso   1.00
C1754  C     0.83300   0.16753   0.83627   0.00000  Uiso   1.00
C1755  C     0.87116   0.16228   0.90463   0.00000  Uiso   1.00
C1756  C     0.79635   0.16687   0.59472   0.00000  Uiso   1.00
C1757  C     0.83393   0.17010   0.88394   0.00000  Uiso   1.00
C1758  C     0.83416   0.16375   0.61577   0.00000  Uiso   1.00
C1759  C     0.79778   0.18115   0.90827   0.00000  Uiso   1.00
C1760  C     0.87174   0.16003   0.59146   0.00000  Uiso   1.00
C1761  C     0.79797   0.18086   0.95504   0.00000  Uiso   1.00
C1762  C     0.87085   0.15626   0.54480   0.00000  Uiso   1.00
C1763  C     0.83433   0.16843   0.97641   0.00000  Uiso   1.00
C1764  C     0.83379   0.16507   0.52314   0.00000  Uiso   1.00
C1765  C     0.87163   0.16162   0.95137   0.00000  Uiso   1.00
C1766  C     0.79616   0.17003   0.54799   0.00000  Uiso   1.00
C1767  C     0.76236   0.19168   0.98103   0.00000  Uiso   1.00
C1768  C     0.90675   0.14544   0.51929   0.00000  Uiso   1.00
N1769  N     0.83333   0.28573   0.75000   0.00000  Uiso   1.00
N1770  N     0.83333   0.04760   0.75000   0.00000  Uiso   1.00
O1771  O     0.77226   0.20487   0.75000   0.00000  Uiso   1.00
O1772  O     0.89441   0.12846   0.75001   0.00000  Uiso   1.00
O1773  O     0.89441   0.20487   0.75001   0.00000  Uiso   1.00
O1774  O     0.77226   0.12846   0.75000   0.00000  Uiso   1.00
O1775  O     0.83333   0.20489   0.68393   0.00000  Uiso   1.00
O1776  O     0.83334   0.12844   0.81608   0.00000  Uiso   1.00
O1777  O     0.83334   0.20489   0.81608   0.00000  Uiso   1.00
O1778  O     0.83333   0.12844   0.68393   0.00000  Uiso   1.00
Zn1779 Zn    0.83333   0.21771   0.75000   0.00000  Uiso   1.00
Zn1780 Zn    0.83333   0.11563   0.75000   0.00000  Uiso   1.00
O1781  O     0.90559   0.14906   0.87908   0.00000  Uiso   1.00
C1782  C     0.92596   0.18703   0.86342   0.00000  Uiso   1.00
H1783  H     0.92828   0.21415   0.88939   0.00000  Uiso   1.00
H1784  H     0.95774   0.17708   0.85259   0.00000  Uiso   1.00
H1785  H     0.91052   0.20014   0.83425   0.00000  Uiso   1.00
O1786  O     0.75996   0.16428   0.61986   0.00000  Uiso   1.00
C1787  C     0.74584   0.20733   0.63412   0.00000  Uiso   1.00
H1788  H     0.75139   0.23327   0.60901   0.00000  Uiso   1.00
H1789  H     0.75947   0.21747   0.66616   0.00000  Uiso   1.00
H1790  H     0.71215   0.20583   0.64032   0.00000  Uiso   1.00
O1791  O     0.76259   0.19254   0.88601   0.00000  Uiso   1.00
C1792  C     0.73877   0.15401   0.87867   0.00000  Uiso   1.00
H1793  H     0.70801   0.16456   0.86767   0.00000  Uiso   1.00
H1794  H     0.73390   0.13481   0.90950   0.00000  Uiso   1.00
H1795  H     0.75291   0.13230   0.85153   0.00000  Uiso   1.00
O1796  O     0.90807   0.17359   0.61087   0.00000  Uiso   1.00
C1797  C     0.92606   0.13889   0.63428   0.00000  Uiso   1.00
H1798  H     0.95816   0.14819   0.64131   0.00000  Uiso   1.00
H1799  H     0.92712   0.10645   0.61535   0.00000  Uiso   1.00
H1800  H     0.91010   0.13514   0.66661   0.00000  Uiso   1.00
O1801  O     0.73049   0.21638   0.96458   0.00000  Uiso   1.00
C1802  C     0.74172   0.26205   0.96499   0.00000  Uiso   1.00
H1803  H     0.74855   0.27153   0.93005   0.00000  Uiso   1.00
H1804  H     0.76957   0.27015   0.98477   0.00000  Uiso   1.00
C1805  C     0.70610   0.29079   0.98459   0.00000  Uiso   1.00
H1806  H     0.67783   0.28397   0.96571   0.00000  Uiso   1.00
H1807  H     0.70000   0.28220   0.51996   0.00000  Uiso   1.00
C1808  C     0.71611   0.00701   0.98268   0.00000  Uiso   1.00
H1809  H     0.74259   0.01515   0.50402   0.00000  Uiso   1.00
H1810  H     0.68916   0.02714   0.99502   0.00000  Uiso   1.00
H1811  H     0.72359   0.01612   0.94778   0.00000  Uiso   1.00
O1812  O     0.94009   0.12625   0.53931   0.00000  Uiso   1.00
C1813  C     0.94908   0.08278   0.52071   0.00000  Uiso   1.00
H1814  H     0.97579   0.06995   0.53862   0.00000  Uiso   1.00
H1815  H     0.95903   0.08349   0.98498   0.00000  Uiso   1.00
C1816  C     0.91384   0.04944   0.52699   0.00000  Uiso   1.00
H1817  H     0.90626   0.04691   0.56308   0.00000  Uiso   1.00
H1818  H     0.88593   0.06078   0.50994   0.00000  Uiso   1.00
C1819  C     0.92602   0.00318   0.50768   0.00000  Uiso   1.00
H1820  H     0.93283   0.00454   0.97118   0.00000  Uiso   1.00
H1821  H     0.90035   0.31300   0.51315   0.00000  Uiso   1.00
H1822  H     0.95358   0.32372   0.52434   0.00000  Uiso   1.00
O1823  O     0.72192   0.18258   0.54720   0.00000  Uiso   1.00
C1824  C     0.70467   0.13965   0.54510   0.00000  Uiso   1.00
H1825  H     0.69473   0.13101   0.51067   0.00000  Uiso   1.00
H1826  H     0.67760   0.13969   0.56835   0.00000  Uiso   1.00
H1827  H     0.72622   0.11341   0.55602   0.00000  Uiso   1.00
O1828  O     0.94599   0.15359   0.95105   0.00000  Uiso   1.00
C1829  C     0.96732   0.19251   0.96409   0.00000  Uiso   1.00
H1830  H     0.94779   0.22322   0.96330   0.00000  Uiso   1.00
H1831  H     0.99334   0.19649   0.94002   0.00000  Uiso   1.00
H1832  H     0.97981   0.18976   0.99796   0.00000  Uiso   1.00
O1833  O     0.70887   0.08434   0.73322   0.00000  Uiso   1.00
C1834  C     0.72559   0.07638   0.68941   0.00000  Uiso   1.00
H1835  H     0.74601   0.04664   0.69095   0.00000  Uiso   1.00
H1836  H     0.74525   0.10407   0.67802   0.00000  Uiso   1.00
C1837  C     0.69266   0.06679   0.65480   0.00000  Uiso   1.00
H1838  H     0.99944   0.04981   0.67044   0.00000  Uiso   1.00
H1839  H     0.68151   0.09889   0.64210   0.00000  Uiso   1.00
C1840  C     0.71031   0.03786   0.61560   0.00000  Uiso   1.00
H1841  H     0.73920   0.05239   0.60216   0.00000  Uiso   1.00
H1842  H     0.68788   0.03562   0.58848   0.00000  Uiso   1.00
H1843  H     0.71705   0.00363   0.62663   0.00000  Uiso   1.00
O1844  O     0.95868   0.24547   0.72996   0.00000  Uiso   1.00
C1845  C     0.95396   0.24825   0.68329   0.00000  Uiso   1.00
H1846  H     0.92265   0.23696   0.67470   0.00000  Uiso   1.00
H1847  H     0.97684   0.22773   0.66271   0.00000  Uiso   1.00
C1848  C     0.95885   0.29665   0.67063   0.00000  Uiso   1.00
H1849  H     0.93437   0.31741   0.68798   0.00000  Uiso   1.00
H1850  H     0.98918   0.30852   0.68197   0.00000  Uiso   1.00
C1851  C     0.95669   0.30144   0.62014   0.00000  Uiso   1.00
H1852  H     0.98390   0.28515   0.60293   0.00000  Uiso   1.00
H1853  H     0.95630   0.00401   0.61245   0.00000  Uiso   1.00
H1854  H     0.92838   0.28600   0.60707   0.00000  Uiso   1.00
O1855  O     0.96179   0.08406   0.75142   0.00000  Uiso   1.00
C1856  C     0.95469   0.07785   0.79777   0.00000  Uiso   1.00
H1857  H     0.93566   0.04755   0.80084   0.00000  Uiso   1.00
H1858  H     0.93638   0.10575   0.81361   0.00000  Uiso   1.00
C1859  C     0.99441   0.07106   0.82356   0.00000  Uiso   1.00
H1860  H     0.67890   0.04226   0.80856   0.00000  Uiso   1.00
H1861  H     0.68056   0.10112   0.82188   0.00000  Uiso   1.00
C1862  C     0.98482   0.06340   0.87283   0.00000  Uiso   1.00
H1863  H     0.97025   0.09367   0.88893   0.00000  Uiso   1.00
H1864  H     0.68043   0.05639   0.89017   0.00000  Uiso   1.00
H1865  H     0.96367   0.03490   0.87658   0.00000  Uiso   1.00
O1866  O     0.70515   0.24837   0.75105   0.00000  Uiso   1.00
C1867  C     0.70975   0.25766   0.79746   0.00000  Uiso   1.00
H1868  H     0.73208   0.28531   0.80103   0.00000  Uiso   1.00
H1869  H     0.72314   0.22880   0.81463   0.00000  Uiso   1.00
C1870  C     0.66909   0.27234   0.82106   0.00000  Uiso   1.00
H1871  H     0.98997   0.30242   0.80546   0.00000  Uiso   1.00
H1872  H     0.97950   0.24551   0.81795   0.00000  Uiso   1.00
C1873  C     0.67504   0.28173   0.87071   0.00000  Uiso   1.00
H1874  H     0.68654   0.25118   0.88627   0.00000  Uiso   1.00
H1875  H     0.97849   0.29141   0.88730   0.00000  Uiso   1.00
H1876  H     0.69740   0.30905   0.87580   0.00000  Uiso   1.00
O1877  O     0.83741   0.04776   0.82948   0.00000  Uiso   1.00
C1878  C     0.79822   0.04432   0.85058   0.00000  Uiso   1.00
H1879  H     0.77325   0.05554   0.82872   0.00000  Uiso   1.00
H1880  H     0.79724   0.06634   0.88120   0.00000  Uiso   1.00
H1881  H     0.79228   0.00976   0.86116   0.00000  Uiso   1.00
O1882  O     0.80568   0.28523   0.67740   0.00000  Uiso   1.00
C1883  C     0.82957   0.28452   0.63726   0.00000  Uiso   1.00
H1884  H     0.86284   0.27921   0.64298   0.00000  Uiso   1.00
H1885  H     0.82319   0.31429   0.61764   0.00000  Uiso   1.00
H1886  H     0.82006   0.25601   0.61572   0.00000  Uiso   1.00
O1887  O     0.82676   0.04313   0.67131   0.00000  Uiso   1.00
C1888  C     0.86735   0.04880   0.65463   0.00000  Uiso   1.00
H1889  H     0.88730   0.06530   0.67973   0.00000  Uiso   1.00
H1890  H     0.86573   0.06969   0.62505   0.00000  Uiso   1.00
H1891  H     0.88217   0.01699   0.64332   0.00000  Uiso   1.00
O1892  O     0.84818   0.28920   0.82702   0.00000  Uiso   1.00
C1893  C     0.88950   0.29551   0.83846   0.00000  Uiso   1.00
H1894  H     0.89658   0.33118   0.84539   0.00000  Uiso   1.00
H1895  H     0.91085   0.28104   0.81197   0.00000  Uiso   1.00
H1896  H     0.89483   0.27833   0.86988   0.00000  Uiso   1.00
C1897  C     0.08683   0.50004   0.74831   0.00000  Uiso   1.00
C1898  C     0.24665   0.49968   0.74865   0.00000  Uiso   1.00
C1899  C     0.09318   0.51340   0.52550   0.00000  Uiso   1.00
C1900  C     0.24167   0.48695   0.97365   0.00000  Uiso   1.00
C1901  C     0.02214   0.45874   0.73709   0.00000  Uiso   1.00
C1902  C     0.31200   0.53918   0.73821   0.00000  Uiso   1.00
C1903  C     0.31341   0.45837   0.74505   0.00000  Uiso   1.00
C1904  C     0.02039   0.54032   0.74483   0.00000  Uiso   1.00
C1905  C     0.29102   0.49892   0.74410   0.00000  Uiso   1.00
C1906  C     0.04284   0.49977   0.74312   0.00000  Uiso   1.00
C1907  C     0.17031   0.35814   0.78881   0.00000  Uiso   1.00
C1908  C     0.15845   0.64135   0.71185   0.00000  Uiso   1.00
C1909  C     0.16239   0.35564   0.71123   0.00000  Uiso   1.00
C1910  C     0.17445   0.64393   0.78794   0.00000  Uiso   1.00
C1911  C     0.16736   0.49922   0.66363   0.00000  Uiso   1.00
C1912  C     0.16634   0.50086   0.83627   0.00000  Uiso   1.00
C1913  C     0.20449   0.49561   0.90463   0.00000  Uiso   1.00
C1914  C     0.12968   0.50020   0.59472   0.00000  Uiso   1.00
C1915  C     0.16727   0.50344   0.88394   0.00000  Uiso   1.00
C1916  C     0.16750   0.49709   0.61577   0.00000  Uiso   1.00
C1917  C     0.13111   0.51448   0.90827   0.00000  Uiso   1.00
C1918  C     0.20508   0.49336   0.59146   0.00000  Uiso   1.00
C1919  C     0.13130   0.51420   0.95504   0.00000  Uiso   1.00
C1920  C     0.20418   0.48959   0.54480   0.00000  Uiso   1.00
C1921  C     0.16766   0.50177   0.97641   0.00000  Uiso   1.00
C1922  C     0.16712   0.49840   0.52314   0.00000  Uiso   1.00
C1923  C     0.20496   0.49496   0.95137   0.00000  Uiso   1.00
C1924  C     0.12950   0.50336   0.54799   0.00000  Uiso   1.00
C1925  C     0.09570   0.52502   0.98103   0.00000  Uiso   1.00
C1926  C     0.24008   0.47877   0.51929   0.00000  Uiso   1.00
N1927  N     0.16667   0.61907   0.75000   0.00000  Uiso   1.00
N1928  N     0.16667   0.38093   0.75000   0.00000  Uiso   1.00
O1929  O     0.10559   0.53821   0.75000   0.00000  Uiso   1.00
O1930  O     0.22774   0.46179   0.75001   0.00000  Uiso   1.00
O1931  O     0.22774   0.53821   0.75001   0.00000  Uiso   1.00
O1932  O     0.10559   0.46179   0.75000   0.00000  Uiso   1.00
O1933  O     0.16666   0.53823   0.68393   0.00000  Uiso   1.00
O1934  O     0.16667   0.46177   0.81608   0.00000  Uiso   1.00
O1935  O     0.16667   0.53823   0.81608   0.00000  Uiso   1.00
O1936  O     0.16666   0.46177   0.68393   0.00000  Uiso   1.00
Zn1937 Zn    0.16667   0.55104   0.75000   0.00000  Uiso   1.00
Zn1938 Zn    0.16667   0.44896   0.75000   0.00000  Uiso   1.00
O1939  O     0.23892   0.48239   0.87908   0.00000  Uiso   1.00
C1940  C     0.25929   0.52037   0.86342   0.00000  Uiso   1.00
H1941  H     0.26161   0.54748   0.88939   0.00000  Uiso   1.00
H1942  H     0.29107   0.51042   0.85259   0.00000  Uiso   1.00
H1943  H     0.24385   0.53348   0.83425   0.00000  Uiso   1.00
O1944  O     0.09330   0.49761   0.61986   0.00000  Uiso   1.00
C1945  C     0.07917   0.54066   0.63412   0.00000  Uiso   1.00
H1946  H     0.08473   0.56661   0.60901   0.00000  Uiso   1.00
H1947  H     0.09281   0.55081   0.66616   0.00000  Uiso   1.00
H1948  H     0.04549   0.53916   0.64032   0.00000  Uiso   1.00
O1949  O     0.09592   0.52587   0.88601   0.00000  Uiso   1.00
C1950  C     0.07210   0.48734   0.87867   0.00000  Uiso   1.00
H1951  H     0.04134   0.49789   0.86767   0.00000  Uiso   1.00
H1952  H     0.06723   0.46814   0.90950   0.00000  Uiso   1.00
H1953  H     0.08625   0.46563   0.85153   0.00000  Uiso   1.00
O1954  O     0.24141   0.50692   0.61087   0.00000  Uiso   1.00
C1955  C     0.25939   0.47223   0.63428   0.00000  Uiso   1.00
H1956  H     0.29150   0.48152   0.64131   0.00000  Uiso   1.00
H1957  H     0.26046   0.43979   0.61535   0.00000  Uiso   1.00
H1958  H     0.24343   0.46848   0.66661   0.00000  Uiso   1.00
O1959  O     0.06382   0.54972   0.96458   0.00000  Uiso   1.00
C1960  C     0.07506   0.59539   0.96499   0.00000  Uiso   1.00
H1961  H     0.08188   0.60486   0.93005   0.00000  Uiso   1.00
H1962  H     0.10290   0.60348   0.98477   0.00000  Uiso   1.00
C1963  C     0.03943   0.62412   0.98459   0.00000  Uiso   1.00
H1964  H     0.01116   0.61731   0.96571   0.00000  Uiso   1.00
H1965  H     0.03334   0.61554   0.51996   0.00000  Uiso   1.00
C1966  C     0.04944   0.34034   0.98268   0.00000  Uiso   1.00
H1967  H     0.07592   0.34848   0.50402   0.00000  Uiso   1.00
H1968  H     0.02250   0.36047   0.99502   0.00000  Uiso   1.00
H1969  H     0.05692   0.34945   0.94778   0.00000  Uiso   1.00
O1970  O     0.27342   0.45958   0.53931   0.00000  Uiso   1.00
C1971  C     0.28241   0.41611   0.52071   0.00000  Uiso   1.00
H1972  H     0.30913   0.40328   0.53862   0.00000  Uiso   1.00
H1973  H     0.29236   0.41682   0.98498   0.00000  Uiso   1.00
C1974  C     0.24718   0.38277   0.52699   0.00000  Uiso   1.00
H1975  H     0.23960   0.38024   0.56308   0.00000  Uiso   1.00
H1976  H     0.21926   0.39412   0.50994   0.00000  Uiso   1.00
C1977  C     0.25936   0.33651   0.50768   0.00000  Uiso   1.00
H1978  H     0.26616   0.33787   0.97118   0.00000  Uiso   1.00
H1979  H     0.23368   0.64633   0.51315   0.00000  Uiso   1.00
H1980  H     0.28692   0.65706   0.52434   0.00000  Uiso   1.00
O1981  O     0.05525   0.51591   0.54720   0.00000  Uiso   1.00
C1982  C     0.03801   0.47298   0.54510   0.00000  Uiso   1.00
H1983  H     0.02806   0.46434   0.51067   0.00000  Uiso   1.00
H1984  H     0.01094   0.47303   0.56835   0.00000  Uiso   1.00
H1985  H     0.05955   0.44675   0.55602   0.00000  Uiso   1.00
O1986  O     0.27932   0.48692   0.95105   0.00000  Uiso   1.00
C1987  C     0.30066   0.52584   0.96409   0.00000  Uiso   1.00
H1988  H     0.28112   0.55655   0.96330   0.00000  Uiso   1.00
H1989  H     0.32667   0.52983   0.94002   0.00000  Uiso   1.00
H1990  H     0.31314   0.52309   0.99796   0.00000  Uiso   1.00
O1991  O     0.04221   0.41767   0.73322   0.00000  Uiso   1.00
C1992  C     0.05892   0.40971   0.68941   0.00000  Uiso   1.00
H1993  H     0.07935   0.37998   0.69095   0.00000  Uiso   1.00
H1994  H     0.07858   0.43740   0.67802   0.00000  Uiso   1.00
C1995  C     0.02600   0.40012   0.65480   0.00000  Uiso   1.00
H1996  H     0.33277   0.38314   0.67044   0.00000  Uiso   1.00
H1997  H     0.01485   0.43222   0.64210   0.00000  Uiso   1.00
C1998  C     0.04365   0.37119   0.61560   0.00000  Uiso   1.00
H1999  H     0.07253   0.38572   0.60216   0.00000  Uiso   1.00
H2000  H     0.02121   0.36895   0.58848   0.00000  Uiso   1.00
H2001  H     0.05039   0.33696   0.62663   0.00000  Uiso   1.00
O2002  O     0.29201   0.57880   0.72996   0.00000  Uiso   1.00
C2003  C     0.28729   0.58158   0.68329   0.00000  Uiso   1.00
H2004  H     0.25598   0.57029   0.67470   0.00000  Uiso   1.00
H2005  H     0.31017   0.56106   0.66271   0.00000  Uiso   1.00
C2006  C     0.29218   0.62998   0.67063   0.00000  Uiso   1.00
H2007  H     0.26771   0.65075   0.68798   0.00000  Uiso   1.00
H2008  H     0.32252   0.64186   0.68197   0.00000  Uiso   1.00
C2009  C     0.29003   0.63477   0.62014   0.00000  Uiso   1.00
H2010  H     0.31723   0.61848   0.60293   0.00000  Uiso   1.00
H2011  H     0.28964   0.33735   0.61245   0.00000  Uiso   1.00
H2012  H     0.26171   0.61934   0.60707   0.00000  Uiso   1.00
O2013  O     0.29513   0.41739   0.75142   0.00000  Uiso   1.00
C2014  C     0.28802   0.41118   0.79777   0.00000  Uiso   1.00
H2015  H     0.26900   0.38088   0.80084   0.00000  Uiso   1.00
H2016  H     0.26972   0.43908   0.81361   0.00000  Uiso   1.00
C2017  C     0.32775   0.40440   0.82356   0.00000  Uiso   1.00
H2018  H     0.01223   0.37559   0.80856   0.00000  Uiso   1.00
H2019  H     0.01389   0.43445   0.82188   0.00000  Uiso   1.00
C2020  C     0.31815   0.39673   0.87283   0.00000  Uiso   1.00
H2021  H     0.30358   0.42701   0.88893   0.00000  Uiso   1.00
H2022  H     0.01376   0.38972   0.89017   0.00000  Uiso   1.00
H2023  H     0.29700   0.36824   0.87658   0.00000  Uiso   1.00
O2024  O     0.03848   0.58170   0.75105   0.00000  Uiso   1.00
C2025  C     0.04309   0.59099   0.79746   0.00000  Uiso   1.00
H2026  H     0.06541   0.61864   0.80103   0.00000  Uiso   1.00
H2027  H     0.05648   0.56214   0.81463   0.00000  Uiso   1.00
C2028  C     0.00243   0.60567   0.82106   0.00000  Uiso   1.00
H2029  H     0.32330   0.63575   0.80546   0.00000  Uiso   1.00
H2030  H     0.31283   0.57884   0.81795   0.00000  Uiso   1.00
C2031  C     0.00837   0.61507   0.87071   0.00000  Uiso   1.00
H2032  H     0.01987   0.58452   0.88627   0.00000  Uiso   1.00
H2033  H     0.31183   0.62474   0.88730   0.00000  Uiso   1.00
H2034  H     0.03073   0.64238   0.87580   0.00000  Uiso   1.00
O2035  O     0.17075   0.38109   0.82948   0.00000  Uiso   1.00
C2036  C     0.13155   0.37766   0.85058   0.00000  Uiso   1.00
H2037  H     0.10658   0.38887   0.82872   0.00000  Uiso   1.00
H2038  H     0.13057   0.39968   0.88120   0.00000  Uiso   1.00
H2039  H     0.12561   0.34309   0.86116   0.00000  Uiso   1.00
O2040  O     0.13902   0.61856   0.67740   0.00000  Uiso   1.00
C2041  C     0.16291   0.61785   0.63726   0.00000  Uiso   1.00
H2042  H     0.19617   0.61254   0.64298   0.00000  Uiso   1.00
H2043  H     0.15653   0.64762   0.61764   0.00000  Uiso   1.00
H2044  H     0.15340   0.58934   0.61572   0.00000  Uiso   1.00
O2045  O     0.16009   0.37646   0.67131   0.00000  Uiso   1.00
C2046  C     0.20068   0.38214   0.65463   0.00000  Uiso   1.00
H2047  H     0.22063   0.39863   0.67973   0.00000  Uiso   1.00
H2048  H     0.19906   0.40302   0.62505   0.00000  Uiso   1.00
H2049  H     0.21550   0.35032   0.64332   0.00000  Uiso   1.00
O2050  O     0.18152   0.62253   0.82702   0.00000  Uiso   1.00
C2051  C     0.22284   0.62885   0.83846   0.00000  Uiso   1.00
H2052  H     0.22991   0.66452   0.84539   0.00000  Uiso   1.00
H2053  H     0.24418   0.61437   0.81197   0.00000  Uiso   1.00
H2054  H     0.22817   0.61166   0.86988   0.00000  Uiso   1.00
C2055  C     0.42016   0.50004   0.74831   0.00000  Uiso   1.00
C2056  C     0.57998   0.49968   0.74865   0.00000  Uiso   1.00
C2057  C     0.42651   0.51340   0.52550   0.00000  Uiso   1.00
C2058  C     0.57500   0.48695   0.97365   0.00000  Uiso   1.00
C2059  C     0.35547   0.45874   0.73709   0.00000  Uiso   1.00
C2060  C     0.64533   0.53918   0.73821   0.00000  Uiso   1.00
C2061  C     0.64674   0.45837   0.74505   0.00000  Uiso   1.00
C2062  C     0.35373   0.54032   0.74483   0.00000  Uiso   1.00
C2063  C     0.62435   0.49892   0.74410   0.00000  Uiso   1.00
C2064  C     0.37617   0.49977   0.74312   0.00000  Uiso   1.00
C2065  C     0.50364   0.35814   0.78881   0.00000  Uiso   1.00
C2066  C     0.49179   0.64135   0.71185   0.00000  Uiso   1.00
C2067  C     0.49573   0.35564   0.71123   0.00000  Uiso   1.00
C2068  C     0.50778   0.64393   0.78794   0.00000  Uiso   1.00
C2069  C     0.50069   0.49922   0.66363   0.00000  Uiso   1.00
C2070  C     0.49967   0.50086   0.83627   0.00000  Uiso   1.00
C2071  C     0.53783   0.49561   0.90463   0.00000  Uiso   1.00
C2072  C     0.46302   0.50020   0.59472   0.00000  Uiso   1.00
C2073  C     0.50060   0.50344   0.88394   0.00000  Uiso   1.00
C2074  C     0.50083   0.49709   0.61577   0.00000  Uiso   1.00
C2075  C     0.46444   0.51448   0.90827   0.00000  Uiso   1.00
C2076  C     0.53841   0.49336   0.59146   0.00000  Uiso   1.00
C2077  C     0.46463   0.51420   0.95504   0.00000  Uiso   1.00
C2078  C     0.53752   0.48959   0.54480   0.00000  Uiso   1.00
C2079  C     0.50099   0.50177   0.97641   0.00000  Uiso   1.00
C2080  C     0.50046   0.49840   0.52314   0.00000  Uiso   1.00
C2081  C     0.53830   0.49496   0.95137   0.00000  Uiso   1.00
C2082  C     0.46283   0.50336   0.54799   0.00000  Uiso   1.00
C2083  C     0.42903   0.52502   0.98103   0.00000  Uiso   1.00
C2084  C     0.57342   0.47877   0.51929   0.00000  Uiso   1.00
N2085  N     0.50000   0.61907   0.75000   0.00000  Uiso   1.00
N2086  N     0.50000   0.38093   0.75000   0.00000  Uiso   1.00
O2087  O     0.43892   0.53821   0.75000   0.00000  Uiso   1.00
O2088  O     0.56108   0.46179   0.75001   0.00000  Uiso   1.00
O2089  O     0.56108   0.53821   0.75001   0.00000  Uiso   1.00
O2090  O     0.43892   0.46179   0.75000   0.00000  Uiso   1.00
O2091  O     0.49999   0.53823   0.68393   0.00000  Uiso   1.00
O2092  O     0.50001   0.46177   0.81608   0.00000  Uiso   1.00
O2093  O     0.50001   0.53823   0.81608   0.00000  Uiso   1.00
O2094  O     0.49999   0.46177   0.68393   0.00000  Uiso   1.00
Zn2095 Zn    0.50000   0.55104   0.75000   0.00000  Uiso   1.00
Zn2096 Zn    0.50000   0.44896   0.75000   0.00000  Uiso   1.00
O2097  O     0.57225   0.48239   0.87908   0.00000  Uiso   1.00
C2098  C     0.59263   0.52037   0.86342   0.00000  Uiso   1.00
H2099  H     0.59495   0.54748   0.88939   0.00000  Uiso   1.00
H2100  H     0.62441   0.51042   0.85259   0.00000  Uiso   1.00
H2101  H     0.57718   0.53348   0.83425   0.00000  Uiso   1.00
O2102  O     0.42663   0.49761   0.61986   0.00000  Uiso   1.00
C2103  C     0.41251   0.54066   0.63412   0.00000  Uiso   1.00
H2104  H     0.41806   0.56661   0.60901   0.00000  Uiso   1.00
H2105  H     0.42614   0.55081   0.66616   0.00000  Uiso   1.00
H2106  H     0.37882   0.53916   0.64032   0.00000  Uiso   1.00
O2107  O     0.42926   0.52587   0.88601   0.00000  Uiso   1.00
C2108  C     0.40544   0.48734   0.87867   0.00000  Uiso   1.00
H2109  H     0.37467   0.49789   0.86767   0.00000  Uiso   1.00
H2110  H     0.40057   0.46814   0.90950   0.00000  Uiso   1.00
H2111  H     0.41958   0.46563   0.85153   0.00000  Uiso   1.00
O2112  O     0.57474   0.50692   0.61087   0.00000  Uiso   1.00
C2113  C     0.59273   0.47223   0.63428   0.00000  Uiso   1.00
H2114  H     0.62483   0.48152   0.64131   0.00000  Uiso   1.00
H2115  H     0.59379   0.43979   0.61535   0.00000  Uiso   1.00
H2116  H     0.57676   0.46848   0.66661   0.00000  Uiso   1.00
O2117  O     0.39716   0.54972   0.96458   0.00000  Uiso   1.00
C2118  C     0.40839   0.59539   0.96499   0.00000  Uiso   1.00
H2119  H     0.41522   0.60486   0.93005   0.00000  Uiso   1.00
H2120  H     0.43623   0.60348   0.98477   0.00000  Uiso   1.00
C2121  C     0.37277   0.62412   0.98459   0.00000  Uiso   1.00
H2122  H     0.34450   0.61731   0.96571   0.00000  Uiso   1.00
H2123  H     0.36667   0.61554   0.51996   0.00000  Uiso   1.00
C2124  C     0.38277   0.34034   0.98268   0.00000  Uiso   1.00
H2125  H     0.40926   0.34848   0.50402   0.00000  Uiso   1.00
H2126  H     0.35583   0.36047   0.99502   0.00000  Uiso   1.00
H2127  H     0.39026   0.34945   0.94778   0.00000  Uiso   1.00
O2128  O     0.60675   0.45958   0.53931   0.00000  Uiso   1.00
C2129  C     0.61575   0.41611   0.52071   0.00000  Uiso   1.00
H2130  H     0.64246   0.40328   0.53862   0.00000  Uiso   1.00
H2131  H     0.62570   0.41682   0.98498   0.00000  Uiso   1.00
C2132  C     0.58051   0.38277   0.52699   0.00000  Uiso   1.00
H2133  H     0.57293   0.38024   0.56308   0.00000  Uiso   1.00
H2134  H     0.55259   0.39412   0.50994   0.00000  Uiso   1.00
C2135  C     0.59269   0.33651   0.50768   0.00000  Uiso   1.00
H2136  H     0.59950   0.33787   0.97118   0.00000  Uiso   1.00
H2137  H     0.56701   0.64633   0.51315   0.00000  Uiso   1.00
H2138  H     0.62025   0.65706   0.52434   0.00000  Uiso   1.00
O2139  O     0.38859   0.51591   0.54720   0.00000  Uiso   1.00
C2140  C     0.37134   0.47298   0.54510   0.00000  Uiso   1.00
H2141  H     0.36139   0.46434   0.51067   0.00000  Uiso   1.00
H2142  H     0.34427   0.47303   0.56835   0.00000  Uiso   1.00
H2143  H     0.39288   0.44675   0.55602   0.00000  Uiso   1.00
O2144  O     0.61265   0.48692   0.95105   0.00000  Uiso   1.00
C2145  C     0.63399   0.52584   0.96409   0.00000  Uiso   1.00
H2146  H     0.61446   0.55655   0.96330   0.00000  Uiso   1.00
H2147  H     0.66000   0.52983   0.94002   0.00000  Uiso   1.00
H2148  H     0.64647   0.52309   0.99796   0.00000  Uiso   1.00
O2149  O     0.37554   0.41767   0.73322   0.00000  Uiso   1.00
C2150  C     0.39225   0.40971   0.68941   0.00000  Uiso   1.00
H2151  H     0.41268   0.37998   0.69095   0.00000  Uiso   1.00
H2152  H     0.41192   0.43740   0.67802   0.00000  Uiso   1.00
C2153  C     0.35933   0.40012   0.65480   0.00000  Uiso   1.00
H2154  H     0.66610   0.38314   0.67044   0.00000  Uiso   1.00
H2155  H     0.34818   0.43222   0.64210   0.00000  Uiso   1.00
C2156  C     0.37698   0.37119   0.61560   0.00000  Uiso   1.00
H2157  H     0.40586   0.38572   0.60216   0.00000  Uiso   1.00
H2158  H     0.35454   0.36895   0.58848   0.00000  Uiso   1.00
H2159  H     0.38372   0.33696   0.62663   0.00000  Uiso   1.00
O2160  O     0.62534   0.57880   0.72996   0.00000  Uiso   1.00
C2161  C     0.62062   0.58158   0.68329   0.00000  Uiso   1.00
H2162  H     0.58931   0.57029   0.67470   0.00000  Uiso   1.00
H2163  H     0.64350   0.56106   0.66271   0.00000  Uiso   1.00
C2164  C     0.62551   0.62998   0.67063   0.00000  Uiso   1.00
H2165  H     0.60104   0.65075   0.68798   0.00000  Uiso   1.00
H2166  H     0.65585   0.64186   0.68197   0.00000  Uiso   1.00
C2167  C     0.62336   0.63477   0.62014   0.00000  Uiso   1.00
H2168  H     0.65057   0.61848   0.60293   0.00000  Uiso   1.00
H2169  H     0.62297   0.33735   0.61245   0.00000  Uiso   1.00
H2170  H     0.59504   0.61934   0.60707   0.00000  Uiso   1.00
O2171  O     0.62846   0.41739   0.75142   0.00000  Uiso   1.00
C2172  C     0.62135   0.41118   0.79777   0.00000  Uiso   1.00
H2173  H     0.60233   0.38088   0.80084   0.00000  Uiso   1.00
H2174  H     0.60305   0.43908   0.81361   0.00000  Uiso   1.00
C2175  C     0.66108   0.40440   0.82356   0.00000  Uiso   1.00
H2176  H     0.34557   0.37559   0.80856   0.00000  Uiso   1.00
H2177  H     0.34722   0.43445   0.82188   0.00000  Uiso   1.00
C2178  C     0.65149   0.39673   0.87283   0.00000  Uiso   1.00
H2179  H     0.63691   0.42701   0.88893   0.00000  Uiso   1.00
H2180  H     0.34709   0.38972   0.89017   0.00000  Uiso   1.00
H2181  H     0.63033   0.36824   0.87658   0.00000  Uiso   1.00
O2182  O     0.37182   0.58170   0.75105   0.00000  Uiso   1.00
C2183  C     0.37642   0.59099   0.79746   0.00000  Uiso   1.00
H2184  H     0.39874   0.61864   0.80103   0.00000  Uiso   1.00
H2185  H     0.38981   0.56214   0.81463   0.00000  Uiso   1.00
C2186  C     0.33576   0.60567   0.82106   0.00000  Uiso   1.00
H2187  H     0.65664   0.63575   0.80546   0.00000  Uiso   1.00
H2188  H     0.64616   0.57884   0.81795   0.00000  Uiso   1.00
C2189  C     0.34170   0.61507   0.87071   0.00000  Uiso   1.00
H2190  H     0.35321   0.58452   0.88627   0.00000  Uiso   1.00
H2191  H     0.64516   0.62474   0.88730   0.00000  Uiso   1.00
H2192  H     0.36406   0.64238   0.87580   0.00000  Uiso   1.00
O2193  O     0.50408   0.38109   0.82948   0.00000  Uiso   1.00
C2194  C     0.46488   0.37766   0.85058   0.00000  Uiso   1.00
H2195  H     0.43991   0.38887   0.82872   0.00000  Uiso   1.00
H2196  H     0.46391   0.39968   0.88120   0.00000  Uiso   1.00
H2197  H     0.45895   0.34309   0.86116   0.00000  Uiso   1.00
O2198  O     0.47235   0.61856   0.67740   0.00000  Uiso   1.00
C2199  C     0.49624   0.61785   0.63726   0.00000  Uiso   1.00
H2200  H     0.52951   0.61254   0.64298   0.00000  Uiso   1.00
H2201  H     0.48986   0.64762   0.61764   0.00000  Uiso   1.00
H2202  H     0.48673   0.58934   0.61572   0.00000  Uiso   1.00
O2203  O     0.49342   0.37646   0.67131   0.00000  Uiso   1.00
C2204  C     0.53402   0.38214   0.65463   0.00000  Uiso   1.00
H2205  H     0.55397   0.39863   0.67973   0.00000  Uiso   1.00
H2206  H     0.53239   0.40302   0.62505   0.00000  Uiso   1.00
H2207  H     0.54884   0.35032   0.64332   0.00000  Uiso   1.00
O2208  O     0.51485   0.62253   0.82702   0.00000  Uiso   1.00
C2209  C     0.55617   0.62885   0.83846   0.00000  Uiso   1.00
H2210  H     0.56325   0.66452   0.84539   0.00000  Uiso   1.00
H2211  H     0.57751   0.61437   0.81197   0.00000  Uiso   1.00
H2212  H     0.56150   0.61166   0.86988   0.00000  Uiso   1.00
C2213  C     0.75349   0.50004   0.74831   0.00000  Uiso   1.00
C2214  C     0.91332   0.49968   0.74865   0.00000  Uiso   1.00
C2215  C     0.75985   0.51340   0.52550   0.00000  Uiso   1.00
C2216  C     0.90833   0.48695   0.97365   0.00000  Uiso   1.00
C2217  C     0.68881   0.45874   0.73709   0.00000  Uiso   1.00
C2218  C     0.97867   0.53918   0.73821   0.00000  Uiso   1.00
C2219  C     0.98008   0.45837   0.74505   0.00000  Uiso   1.00
C2220  C     0.68706   0.54032   0.74483   0.00000  Uiso   1.00
C2221  C     0.95769   0.49892   0.74410   0.00000  Uiso   1.00
C2222  C     0.70950   0.49977   0.74312   0.00000  Uiso   1.00
C2223  C     0.83698   0.35814   0.78881   0.00000  Uiso   1.00
C2224  C     0.82512   0.64135   0.71185   0.00000  Uiso   1.00
C2225  C     0.82906   0.35564   0.71123   0.00000  Uiso   1.00
C2226  C     0.84111   0.64393   0.78794   0.00000  Uiso   1.00
C2227  C     0.83402   0.49922   0.66363   0.00000  Uiso   1.00
C2228  C     0.83300   0.50086   0.83627   0.00000  Uiso   1.00
C2229  C     0.87116   0.49561   0.90463   0.00000  Uiso   1.00
C2230  C     0.79635   0.50020   0.59472   0.00000  Uiso   1.00
C2231  C     0.83393   0.50344   0.88394   0.00000  Uiso   1.00
C2232  C     0.83416   0.49709   0.61577   0.00000  Uiso   1.00
C2233  C     0.79778   0.51448   0.90827   0.00000  Uiso   1.00
C2234  C     0.87174   0.49336   0.59146   0.00000  Uiso   1.00
C2235  C     0.79797   0.51420   0.95504   0.00000  Uiso   1.00
C2236  C     0.87085   0.48959   0.54480   0.00000  Uiso   1.00
C2237  C     0.83433   0.50177   0.97641   0.00000  Uiso   1.00
C2238  C     0.83379   0.49840   0.52314   0.00000  Uiso   1.00
C2239  C     0.87163   0.49496   0.95137   0.00000  Uiso   1.00
C2240  C     0.79616   0.50336   0.54799   0.00000  Uiso   1.00
C2241  C     0.76236   0.52502   0.98103   0.00000  Uiso   1.00
C2242  C     0.90675   0.47877   0.51929   0.00000  Uiso   1.00
N2243  N     0.83333   0.61907   0.75000   0.00000  Uiso   1.00
N2244  N     0.83333   0.38093   0.75000   0.00000  Uiso   1.00
O2245  O     0.77226   0.53821   0.75000   0.00000  Uiso   1.00
O2246  O     0.89441   0.46179   0.75001   0.00000  Uiso   1.00
O2247  O     0.89441   0.53821   0.75001   0.00000  Uiso   1.00
O2248  O     0.77226   0.46179   0.75000   0.00000  Uiso   1.00
O2249  O     0.83333   0.53823   0.68393   0.00000  Uiso   1.00
O2250  O     0.83334   0.46177   0.81608   0.00000  Uiso   1.00
O2251  O     0.83334   0.53823   0.81608   0.00000  Uiso   1.00
O2252  O     0.83333   0.46177   0.68393   0.00000  Uiso   1.00
Zn2253 Zn    0.83333   0.55104   0.75000   0.00000  Uiso   1.00
Zn2254 Zn    0.83333   0.44896   0.75000   0.00000  Uiso   1.00
O2255  O     0.90559   0.48239   0.87908   0.00000  Uiso   1.00
C2256  C     0.92596   0.52037   0.86342   0.00000  Uiso   1.00
H2257  H     0.92828   0.54748   0.88939   0.00000  Uiso   1.00
H2258  H     0.95774   0.51042   0.85259   0.00000  Uiso   1.00
H2259  H     0.91052   0.53348   0.83425   0.00000  Uiso   1.00
O2260  O     0.75996   0.49761   0.61986   0.00000  Uiso   1.00
C2261  C     0.74584   0.54066   0.63412   0.00000  Uiso   1.00
H2262  H     0.75139   0.56661   0.60901   0.00000  Uiso   1.00
H2263  H     0.75947   0.55081   0.66616   0.00000  Uiso   1.00
H2264  H     0.71215   0.53916   0.64032   0.00000  Uiso   1.00
O2265  O     0.76259   0.52587   0.88601   0.00000  Uiso   1.00
C2266  C     0.73877   0.48734   0.87867   0.00000  Uiso   1.00
H2267  H     0.70801   0.49789   0.86767   0.00000  Uiso   1.00
H2268  H     0.73390   0.46814   0.90950   0.00000  Uiso   1.00
H2269  H     0.75291   0.46563   0.85153   0.00000  Uiso   1.00
O2270  O     0.90807   0.50692   0.61087   0.00000  Uiso   1.00
C2271  C     0.92606   0.47223   0.63428   0.00000  Uiso   1.00
H2272  H     0.95816   0.48152   0.64131   0.00000  Uiso   1.00
H2273  H     0.92712   0.43979   0.61535   0.00000  Uiso   1.00
H2274  H     0.91010   0.46848   0.66661   0.00000  Uiso   1.00
O2275  O     0.73049   0.54972   0.96458   0.00000  Uiso   1.00
C2276  C     0.74172   0.59539   0.96499   0.00000  Uiso   1.00
H2277  H     0.74855   0.60486   0.93005   0.00000  Uiso   1.00
H2278  H     0.76957   0.60348   0.98477   0.00000  Uiso   1.00
C2279  C     0.70610   0.62412   0.98459   0.00000  Uiso   1.00
H2280  H     0.67783   0.61731   0.96571   0.00000  Uiso   1.00
H2281  H     0.70000   0.61554   0.51996   0.00000  Uiso   1.00
C2282  C     0.71611   0.34034   0.98268   0.00000  Uiso   1.00
H2283  H     0.74259   0.34848   0.50402   0.00000  Uiso   1.00
H2284  H     0.68916   0.36047   0.99502   0.00000  Uiso   1.00
H2285  H     0.72359   0.34945   0.94778   0.00000  Uiso   1.00
O2286  O     0.94009   0.45958   0.53931   0.00000  Uiso   1.00
C2287  C     0.94908   0.41611   0.52071   0.00000  Uiso   1.00
H2288  H     0.97579   0.40328   0.53862   0.00000  Uiso   1.00
H2289  H     0.95903   0.41682   0.98498   0.00000  Uiso   1.00
C2290  C     0.91384   0.38277   0.52699   0.00000  Uiso   1.00
H2291  H     0.90626   0.38024   0.56308   0.00000  Uiso   1.00
H2292  H     0.88593   0.39412   0.50994   0.00000  Uiso   1.00
C2293  C     0.92602   0.33651   0.50768   0.00000  Uiso   1.00
H2294  H     0.93283   0.33787   0.97118   0.00000  Uiso   1.00
H2295  H     0.90035   0.64633   0.51315   0.00000  Uiso   1.00
H2296  H     0.95358   0.65706   0.52434   0.00000  Uiso   1.00
O2297  O     0.72192   0.51591   0.54720   0.00000  Uiso   1.00
C2298  C     0.70467   0.47298   0.54510   0.00000  Uiso   1.00
H2299  H     0.69473   0.46434   0.51067   0.00000  Uiso   1.00
H2300  H     0.67760   0.47303   0.56835   0.00000  Uiso   1.00
H2301  H     0.72622   0.44675   0.55602   0.00000  Uiso   1.00
O2302  O     0.94599   0.48692   0.95105   0.00000  Uiso   1.00
C2303  C     0.96732   0.52584   0.96409   0.00000  Uiso   1.00
H2304  H     0.94779   0.55655   0.96330   0.00000  Uiso   1.00
H2305  H     0.99334   0.52983   0.94002   0.00000  Uiso   1.00
H2306  H     0.97981   0.52309   0.99796   0.00000  Uiso   1.00
O2307  O     0.70887   0.41767   0.73322   0.00000  Uiso   1.00
C2308  C     0.72559   0.40971   0.68941   0.00000  Uiso   1.00
H2309  H     0.74601   0.37998   0.69095   0.00000  Uiso   1.00
H2310  H     0.74525   0.43740   0.67802   0.00000  Uiso   1.00
C2311  C     0.69266   0.40012   0.65480   0.00000  Uiso   1.00
H2312  H     0.99944   0.38314   0.67044   0.00000  Uiso   1.00
H2313  H     0.68151   0.43222   0.64210   0.00000  Uiso   1.00
C2314  C     0.71031   0.37119   0.61560   0.00000  Uiso   1.00
H2315  H     0.73920   0.38572   0.60216   0.00000  Uiso   1.00
H2316  H     0.68788   0.36895   0.58848   0.00000  Uiso   1.00
H2317  H     0.71705   0.33696   0.62663   0.00000  Uiso   1.00
O2318  O     0.95868   0.57880   0.72996   0.00000  Uiso   1.00
C2319  C     0.95396   0.58158   0.68329   0.00000  Uiso   1.00
H2320  H     0.92265   0.57029   0.67470   0.00000  Uiso   1.00
H2321  H     0.97684   0.56106   0.66271   0.00000  Uiso   1.00
C2322  C     0.95885   0.62998   0.67063   0.00000  Uiso   1.00
H2323  H     0.93437   0.65075   0.68798   0.00000  Uiso   1.00
H2324  H     0.98918   0.64186   0.68197   0.00000  Uiso   1.00
C2325  C     0.95669   0.63477   0.62014   0.00000  Uiso   1.00
H2326  H     0.98390   0.61848   0.60293   0.00000  Uiso   1.00
H2327  H     0.95630   0.33735   0.61245   0.00000  Uiso   1.00
H2328  H     0.92838   0.61934   0.60707   0.00000  Uiso   1.00
O2329  O     0.96179   0.41739   0.75142   0.00000  Uiso   1.00
C2330  C     0.95469   0.41118   0.79777   0.00000  Uiso   1.00
H2331  H     0.93566   0.38088   0.80084   0.00000  Uiso   1.00
H2332  H     0.93638   0.43908   0.81361   0.00000  Uiso   1.00
C2333  C     0.99441   0.40440   0.82356   0.00000  Uiso   1.00
H2334  H     0.67890   0.37559   0.80856   0.00000  Uiso   1.00
H2335  H     0.68056   0.43445   0.82188   0.00000  Uiso   1.00
C2336  C     0.98482   0.39673   0.87283   0.00000  Uiso   1.00
H2337  H     0.97025   0.42701   0.88893   0.00000  Uiso   1.00
H2338  H     0.68043   0.38972   0.89017   0.00000  Uiso   1.00
H2339  H     0.96367   0.36824   0.87658   0.00000  Uiso   1.00
O2340  O     0.70515   0.58170   0.75105   0.00000  Uiso   1.00
C2341  C     0.70975   0.59099   0.79746   0.00000  Uiso   1.00
H2342  H     0.73208   0.61864   0.80103   0.00000  Uiso   1.00
H2343  H     0.72314   0.56214   0.81463   0.00000  Uiso   1.00
C2344  C     0.66909   0.60567   0.82106   0.00000  Uiso   1.00
H2345  H     0.98997   0.63575   0.80546   0.00000  Uiso   1.00
H2346  H     0.97950   0.57884   0.81795   0.00000  Uiso   1.00
C2347  C     0.67504   0.61507   0.87071   0.00000  Uiso   1.00
H2348  H     0.68654   0.58452   0.88627   0.00000  Uiso   1.00
H2349  H     0.97849   0.62474   0.88730   0.00000  Uiso   1.00
H2350  H     0.69740   0.64238   0.87580   0.00000  Uiso   1.00
O2351  O     0.83741   0.38109   0.82948   0.00000  Uiso   1.00
C2352  C     0.79822   0.37766   0.85058   0.00000  Uiso   1.00
H2353  H     0.77325   0.38887   0.82872   0.00000  Uiso   1.00
H2354  H     0.79724   0.39968   0.88120   0.00000  Uiso   1.00
H2355  H     0.79228   0.34309   0.86116   0.00000  Uiso   1.00
O2356  O     0.80568   0.61856   0.67740   0.00000  Uiso   1.00
C2357  C     0.82957   0.61785   0.63726   0.00000  Uiso   1.00
H2358  H     0.86284   0.61254   0.64298   0.00000  Uiso   1.00
H2359  H     0.82319   0.64762   0.61764   0.00000  Uiso   1.00
H2360  H     0.82006   0.58934   0.61572   0.00000  Uiso   1.00
O2361  O     0.82676   0.37646   0.67131   0.00000  Uiso   1.00
C2362  C     0.86735   0.38214   0.65463   0.00000  Uiso   1.00
H2363  H     0.88730   0.39863   0.67973   0.00000  Uiso   1.00
H2364  H     0.86573   0.40302   0.62505   0.00000  Uiso   1.00
H2365  H     0.88217   0.35032   0.64332   0.00000  Uiso   1.00
O2366  O     0.84818   0.62253   0.82702   0.00000  Uiso   1.00
C2367  C     0.88950   0.62885   0.83846   0.00000  Uiso   1.00
H2368  H     0.89658   0.66452   0.84539   0.00000  Uiso   1.00
H2369  H     0.91085   0.61437   0.81197   0.00000  Uiso   1.00
H2370  H     0.89483   0.61166   0.86988   0.00000  Uiso   1.00
C2371  C     0.08683   0.83337   0.74831   0.00000  Uiso   1.00
C2372  C     0.24665   0.83302   0.74865   0.00000  Uiso   1.00
C2373  C     0.09318   0.84673   0.52550   0.00000  Uiso   1.00
C2374  C     0.24167   0.82028   0.97365   0.00000  Uiso   1.00
C2375  C     0.02214   0.79207   0.73709   0.00000  Uiso   1.00
C2376  C     0.31200   0.87251   0.73821   0.00000  Uiso   1.00
C2377  C     0.31341   0.79170   0.74505   0.00000  Uiso   1.00
C2378  C     0.02039   0.87365   0.74483   0.00000  Uiso   1.00
C2379  C     0.29102   0.83226   0.74410   0.00000  Uiso   1.00
C2380  C     0.04284   0.83310   0.74312   0.00000  Uiso   1.00
C2381  C     0.17031   0.69148   0.78881   0.00000  Uiso   1.00
C2382  C     0.15845   0.97469   0.71185   0.00000  Uiso   1.00
C2383  C     0.16239   0.68898   0.71123   0.00000  Uiso   1.00
C2384  C     0.17445   0.97726   0.78794   0.00000  Uiso   1.00
C2385  C     0.16736   0.83256   0.66363   0.00000  Uiso   1.00
C2386  C     0.16634   0.83420   0.83627   0.00000  Uiso   1.00
C2387  C     0.20449   0.82895   0.90463   0.00000  Uiso   1.00
C2388  C     0.12968   0.83354   0.59472   0.00000  Uiso   1.00
C2389  C     0.16727   0.83677   0.88394   0.00000  Uiso   1.00
C2390  C     0.16750   0.83042   0.61577   0.00000  Uiso   1.00
C2391  C     0.13111   0.84781   0.90827   0.00000  Uiso   1.00
C2392  C     0.20508   0.82669   0.59146   0.00000  Uiso   1.00
C2393  C     0.13130   0.84753   0.95504   0.00000  Uiso   1.00
C2394  C     0.20418   0.82293   0.54480   0.00000  Uiso   1.00
C2395  C     0.16766   0.83510   0.97641   0.00000  Uiso   1.00
C2396  C     0.16712   0.83173   0.52314   0.00000  Uiso   1.00
C2397  C     0.20496   0.82829   0.95137   0.00000  Uiso   1.00
C2398  C     0.12950   0.83669   0.54799   0.00000  Uiso   1.00
C2399  C     0.09570   0.85835   0.98103   0.00000  Uiso   1.00
C2400  C     0.24008   0.81211   0.51929   0.00000  Uiso   1.00
N2401  N     0.16667   0.95240   0.75000   0.00000  Uiso   1.00
N2402  N     0.16667   0.71427   0.75000   0.00000  Uiso   1.00
O2403  O     0.10559   0.87154   0.75000   0.00000  Uiso   1.00
O2404  O     0.22774   0.79513   0.75001   0.00000  Uiso   1.00
O2405  O     0.22774   0.87154   0.75001   0.00000  Uiso   1.00
O2406  O     0.10559   0.79513   0.75000   0.00000  Uiso   1.00
O2407  O     0.16666   0.87156   0.68393   0.00000  Uiso   1.00
O2408  O     0.16667   0.79511   0.81608   0.00000  Uiso   1.00
O2409  O     0.16667   0.87156   0.81608   0.00000  Uiso   1.00
O2410  O     0.16666   0.79511   0.68393   0.00000  Uiso   1.00
Zn2411 Zn    0.16667   0.88437   0.75000   0.00000  Uiso   1.00
Zn2412 Zn    0.16667   0.78229   0.75000   0.00000  Uiso   1.00
O2413  O     0.23892   0.81573   0.87908   0.00000  Uiso   1.00
C2414  C     0.25929   0.85370   0.86342   0.00000  Uiso   1.00
H2415  H     0.26161   0.88082   0.88939   0.00000  Uiso   1.00
H2416  H     0.29107   0.84375   0.85259   0.00000  Uiso   1.00
H2417  H     0.24385   0.86681   0.83425   0.00000  Uiso   1.00
O2418  O     0.09330   0.83094   0.61986   0.00000  Uiso   1.00
C2419  C     0.07917   0.87400   0.63412   0.00000  Uiso   1.00
H2420  H     0.08473   0.89994   0.60901   0.00000  Uiso   1.00
H2421  H     0.09281   0.88414   0.66616   0.00000  Uiso   1.00
H2422  H     0.04549   0.87249   0.64032   0.00000  Uiso   1.00
O2423  O     0.09592   0.85921   0.88601   0.00000  Uiso   1.00
C2424  C     0.07210   0.82068   0.87867   0.00000  Uiso   1.00
H2425  H     0.04134   0.83123   0.86767   0.00000  Uiso   1.00
H2426  H     0.06723   0.80147   0.90950   0.00000  Uiso   1.00
H2427  H     0.08625   0.79896   0.85153   0.00000  Uiso   1.00
O2428  O     0.24141   0.84025   0.61087   0.00000  Uiso   1.00
C2429  C     0.25939   0.80556   0.63428   0.00000  Uiso   1.00
H2430  H     0.29150   0.81485   0.64131   0.00000  Uiso   1.00
H2431  H     0.26046   0.77312   0.61535   0.00000  Uiso   1.00
H2432  H     0.24343   0.80181   0.66661   0.00000  Uiso   1.00
O2433  O     0.06382   0.88305   0.96458   0.00000  Uiso   1.00
C2434  C     0.07506   0.92872   0.96499   0.00000  Uiso   1.00
H2435  H     0.08188   0.93819   0.93005   0.00000  Uiso   1.00
H2436  H     0.10290   0.93681   0.98477   0.00000  Uiso   1.00
C2437  C     0.03943   0.95745   0.98459   0.00000  Uiso   1.00
H2438  H     0.01116   0.95064   0.96571   0.00000  Uiso   1.00
H2439  H     0.03334   0.94887   0.51996   0.00000  Uiso   1.00
C2440  C     0.04944   0.67368   0.98268   0.00000  Uiso   1.00
H2441  H     0.07592   0.68181   0.50402   0.00000  Uiso   1.00
H2442  H     0.02250   0.69381   0.99502   0.00000  Uiso   1.00
H2443  H     0.05692   0.68278   0.94778   0.00000  Uiso   1.00
O2444  O     0.27342   0.79291   0.53931   0.00000  Uiso   1.00
C2445  C     0.28241   0.74944   0.52071   0.00000  Uiso   1.00
H2446  H     0.30913   0.73661   0.53862   0.00000  Uiso   1.00
H2447  H     0.29236   0.75016   0.98498   0.00000  Uiso   1.00
C2448  C     0.24718   0.71611   0.52699   0.00000  Uiso   1.00
H2449  H     0.23960   0.71357   0.56308   0.00000  Uiso   1.00
H2450  H     0.21926   0.72745   0.50994   0.00000  Uiso   1.00
C2451  C     0.25936   0.66985   0.50768   0.00000  Uiso   1.00
H2452  H     0.26616   0.67121   0.97118   0.00000  Uiso   1.00
H2453  H     0.23368   0.97966   0.51315   0.00000  Uiso   1.00
H2454  H     0.28692   0.99039   0.52434   0.00000  Uiso   1.00
O2455  O     0.05525   0.84924   0.54720   0.00000  Uiso   1.00
C2456  C     0.03801   0.80632   0.54510   0.00000  Uiso   1.00
H2457  H     0.02806   0.79768   0.51067   0.00000  Uiso   1.00
H2458  H     0.01094   0.80636   0.56835   0.00000  Uiso   1.00
H2459  H     0.05955   0.78008   0.55602   0.00000  Uiso   1.00
O2460  O     0.27932   0.82025   0.95105   0.00000  Uiso   1.00
C2461  C     0.30066   0.85918   0.96409   0.00000  Uiso   1.00
H2462  H     0.28112   0.88988   0.96330   0.00000  Uiso   1.00
H2463  H     0.32667   0.86316   0.94002   0.00000  Uiso   1.00
H2464  H     0.31314   0.85643   0.99796   0.00000  Uiso   1.00
O2465  O     0.04221   0.75100   0.73322   0.00000  Uiso   1.00
C2466  C     0.05892   0.74304   0.68941   0.00000  Uiso   1.00
H2467  H     0.07935   0.71331   0.69095   0.00000  Uiso   1.00
H2468  H     0.07858   0.77073   0.67802   0.00000  Uiso   1.00
C2469  C     0.02600   0.73346   0.65480   0.00000  Uiso   1.00
H2470  H     0.33277   0.71648   0.67044   0.00000  Uiso   1.00
H2471  H     0.01485   0.76556   0.64210   0.00000  Uiso   1.00
C2472  C     0.04365   0.70452   0.61560   0.00000  Uiso   1.00
H2473  H     0.07253   0.71905   0.60216   0.00000  Uiso   1.00
H2474  H     0.02121   0.70228   0.58848   0.00000  Uiso   1.00
H2475  H     0.05039   0.67030   0.62663   0.00000  Uiso   1.00
O2476  O     0.29201   0.91213   0.72996   0.00000  Uiso   1.00
C2477  C     0.28729   0.91492   0.68329   0.00000  Uiso   1.00
H2478  H     0.25598   0.90362   0.67470   0.00000  Uiso   1.00
H2479  H     0.31017   0.89439   0.66271   0.00000  Uiso   1.00
C2480  C     0.29218   0.96331   0.67063   0.00000  Uiso   1.00
H2481  H     0.26771   0.98408   0.68798   0.00000  Uiso   1.00
H2482  H     0.32252   0.97519   0.68197   0.00000  Uiso   1.00
C2483  C     0.29003   0.96810   0.62014   0.00000  Uiso   1.00
H2484  H     0.31723   0.95181   0.60293   0.00000  Uiso   1.00
H2485  H     0.28964   0.67068   0.61245   0.00000  Uiso   1.00
H2486  H     0.26171   0.95267   0.60707   0.00000  Uiso   1.00
O2487  O     0.29513   0.75073   0.75142   0.00000  Uiso   1.00
C2488  C     0.28802   0.74451   0.79777   0.00000  Uiso   1.00
H2489  H     0.26900   0.71422   0.80084   0.00000  Uiso   1.00
H2490  H     0.26972   0.77241   0.81361   0.00000  Uiso   1.00
C2491  C     0.32775   0.73773   0.82356   0.00000  Uiso   1.00
H2492  H     0.01223   0.70893   0.80856   0.00000  Uiso   1.00
H2493  H     0.01389   0.76779   0.82188   0.00000  Uiso   1.00
C2494  C     0.31815   0.73007   0.87283   0.00000  Uiso   1.00
H2495  H     0.30358   0.76034   0.88893   0.00000  Uiso   1.00
H2496  H     0.01376   0.72305   0.89017   0.00000  Uiso   1.00
H2497  H     0.29700   0.70157   0.87658   0.00000  Uiso   1.00
O2498  O     0.03848   0.91503   0.75105   0.00000  Uiso   1.00
C2499  C     0.04309   0.92433   0.79746   0.00000  Uiso   1.00
H2500  H     0.06541   0.95198   0.80103   0.00000  Uiso   1.00
H2501  H     0.05648   0.89547   0.81463   0.00000  Uiso   1.00
C2502  C     0.00243   0.93900   0.82106   0.00000  Uiso   1.00
H2503  H     0.32330   0.96908   0.80546   0.00000  Uiso   1.00
H2504  H     0.31283   0.91217   0.81795   0.00000  Uiso   1.00
C2505  C     0.00837   0.94840   0.87071   0.00000  Uiso   1.00
H2506  H     0.01987   0.91785   0.88627   0.00000  Uiso   1.00
H2507  H     0.31183   0.95807   0.88730   0.00000  Uiso   1.00
H2508  H     0.03073   0.97572   0.87580   0.00000  Uiso   1.00
O2509  O     0.17075   0.71442   0.82948   0.00000  Uiso   1.00
C2510  C     0.13155   0.71099   0.85058   0.00000  Uiso   1.00
H2511  H     0.10658   0.72221   0.82872   0.00000  Uiso   1.00
H2512  H     0.13057   0.73301   0.88120   0.00000  Uiso   1.00
H2513  H     0.12561   0.67642   0.86116   0.00000  Uiso   1.00
O2514  O     0.13902   0.95190   0.67740   0.00000  Uiso   1.00
C2515  C     0.16291   0.95118   0.63726   0.00000  Uiso   1.00
H2516  H     0.19617   0.94587   0.64298   0.00000  Uiso   1.00
H2517  H     0.15653   0.98096   0.61764   0.00000  Uiso   1.00
H2518  H     0.15340   0.92267   0.61572   0.00000  Uiso   1.00
O2519  O     0.16009   0.70980   0.67131   0.00000  Uiso   1.00
C2520  C     0.20068   0.71547   0.65463   0.00000  Uiso   1.00
H2521  H     0.22063   0.73197   0.67973   0.00000  Uiso   1.00
H2522  H     0.19906   0.73636   0.62505   0.00000  Uiso   1.00
H2523  H     0.21550   0.68365   0.64332   0.00000  Uiso   1.00
O2524  O     0.18152   0.95587   0.82702   0.00000  Uiso   1.00
C2525  C     0.22284   0.96218   0.83846   0.00000  Uiso   1.00
H2526  H     0.22991   0.99785   0.84539   0.00000  Uiso   1.00
H2527  H     0.24418   0.94771   0.81197   0.00000  Uiso   1.00
H2528  H     0.22817   0.94499   0.86988   0.00000  Uiso   1.00
C2529  C     0.42016   0.83337   0.74831   0.00000  Uiso   1.00
C2530  C     0.57998   0.83302   0.74865   0.00000  Uiso   1.00
C2531  C     0.42651   0.84673   0.52550   0.00000  Uiso   1.00
C2532  C     0.57500   0.82028   0.97365   0.00000  Uiso   1.00
C2533  C     0.35547   0.79207   0.73709   0.00000  Uiso   1.00
C2534  C     0.64533   0.87251   0.73821   0.00000  Uiso   1.00
C2535  C     0.64674   0.79170   0.74505   0.00000  Uiso   1.00
C2536  C     0.35373   0.87365   0.74483   0.00000  Uiso   1.00
C2537  C     0.62435   0.83226   0.74410   0.00000  Uiso   1.00
C2538  C     0.37617   0.83310   0.74312   0.00000  Uiso   1.00
C2539  C     0.50364   0.69148   0.78881   0.00000  Uiso   1.00
C2540  C     0.49179   0.97469   0.71185   0.00000  Uiso   1.00
C2541  C     0.49573   0.68898   0.71123   0.00000  Uiso   1.00
C2542  C     0.50778   0.97726   0.78794   0.00000  Uiso   1.00
C2543  C     0.50069   0.83256   0.66363   0.00000  Uiso   1.00
C2544  C     0.49967   0.83420   0.83627   0.00000  Uiso   1.00
C2545  C     0.53783   0.82895   0.90463   0.00000  Uiso   1.00
C2546  C     0.46302   0.83354   0.59472   0.00000  Uiso   1.00
C2547  C     0.50060   0.83677   0.88394   0.00000  Uiso   1.00
C2548  C     0.50083   0.83042   0.61577   0.00000  Uiso   1.00
C2549  C     0.46444   0.84781   0.90827   0.00000  Uiso   1.00
C2550  C     0.53841   0.82669   0.59146   0.00000  Uiso   1.00
C2551  C     0.46463   0.84753   0.95504   0.00000  Uiso   1.00
C2552  C     0.53752   0.82293   0.54480   0.00000  Uiso   1.00
C2553  C     0.50099   0.83510   0.97641   0.00000  Uiso   1.00
C2554  C     0.50046   0.83173   0.52314   0.00000  Uiso   1.00
C2555  C     0.53830   0.82829   0.95137   0.00000  Uiso   1.00
C2556  C     0.46283   0.83669   0.54799   0.00000  Uiso   1.00
C2557  C     0.42903   0.85835   0.98103   0.00000  Uiso   1.00
C2558  C     0.57342   0.81211   0.51929   0.00000  Uiso   1.00
N2559  N     0.50000   0.95240   0.75000   0.00000  Uiso   1.00
N2560  N     0.50000   0.71427   0.75000   0.00000  Uiso   1.00
O2561  O     0.43892   0.87154   0.75000   0.00000  Uiso   1.00
O2562  O     0.56108   0.79513   0.75001   0.00000  Uiso   1.00
O2563  O     0.56108   0.87154   0.75001   0.00000  Uiso   1.00
O2564  O     0.43892   0.79513   0.75000   0.00000  Uiso   1.00
O2565  O     0.49999   0.87156   0.68393   0.00000  Uiso   1.00
O2566  O     0.50001   0.79511   0.81608   0.00000  Uiso   1.00
O2567  O     0.50001   0.87156   0.81608   0.00000  Uiso   1.00
O2568  O     0.49999   0.79511   0.68393   0.00000  Uiso   1.00
Zn2569 Zn    0.50000   0.88437   0.75000   0.00000  Uiso   1.00
Zn2570 Zn    0.50000   0.78229   0.75000   0.00000  Uiso   1.00
O2571  O     0.57225   0.81573   0.87908   0.00000  Uiso   1.00
C2572  C     0.59263   0.85370   0.86342   0.00000  Uiso   1.00
H2573  H     0.59495   0.88082   0.88939   0.00000  Uiso   1.00
H2574  H     0.62441   0.84375   0.85259   0.00000  Uiso   1.00
H2575  H     0.57718   0.86681   0.83425   0.00000  Uiso   1.00
O2576  O     0.42663   0.83094   0.61986   0.00000  Uiso   1.00
C2577  C     0.41251   0.87400   0.63412   0.00000  Uiso   1.00
H2578  H     0.41806   0.89994   0.60901   0.00000  Uiso   1.00
H2579  H     0.42614   0.88414   0.66616   0.00000  Uiso   1.00
H2580  H     0.37882   0.87249   0.64032   0.00000  Uiso   1.00
O2581  O     0.42926   0.85921   0.88601   0.00000  Uiso   1.00
C2582  C     0.40544   0.82068   0.87867   0.00000  Uiso   1.00
H2583  H     0.37467   0.83123   0.86767   0.00000  Uiso   1.00
H2584  H     0.40057   0.80147   0.90950   0.00000  Uiso   1.00
H2585  H     0.41958   0.79896   0.85153   0.00000  Uiso   1.00
O2586  O     0.57474   0.84025   0.61087   0.00000  Uiso   1.00
C2587  C     0.59273   0.80556   0.63428   0.00000  Uiso   1.00
H2588  H     0.62483   0.81485   0.64131   0.00000  Uiso   1.00
H2589  H     0.59379   0.77312   0.61535   0.00000  Uiso   1.00
H2590  H     0.57676   0.80181   0.66661   0.00000  Uiso   1.00
O2591  O     0.39716   0.88305   0.96458   0.00000  Uiso   1.00
C2592  C     0.40839   0.92872   0.96499   0.00000  Uiso   1.00
H2593  H     0.41522   0.93819   0.93005   0.00000  Uiso   1.00
H2594  H     0.43623   0.93681   0.98477   0.00000  Uiso   1.00
C2595  C     0.37277   0.95745   0.98459   0.00000  Uiso   1.00
H2596  H     0.34450   0.95064   0.96571   0.00000  Uiso   1.00
H2597  H     0.36667   0.94887   0.51996   0.00000  Uiso   1.00
C2598  C     0.38277   0.67368   0.98268   0.00000  Uiso   1.00
H2599  H     0.40926   0.68181   0.50402   0.00000  Uiso   1.00
H2600  H     0.35583   0.69381   0.99502   0.00000  Uiso   1.00
H2601  H     0.39026   0.68278   0.94778   0.00000  Uiso   1.00
O2602  O     0.60675   0.79291   0.53931   0.00000  Uiso   1.00
C2603  C     0.61575   0.74944   0.52071   0.00000  Uiso   1.00
H2604  H     0.64246   0.73661   0.53862   0.00000  Uiso   1.00
H2605  H     0.62570   0.75016   0.98498   0.00000  Uiso   1.00
C2606  C     0.58051   0.71611   0.52699   0.00000  Uiso   1.00
H2607  H     0.57293   0.71357   0.56308   0.00000  Uiso   1.00
H2608  H     0.55259   0.72745   0.50994   0.00000  Uiso   1.00
C2609  C     0.59269   0.66985   0.50768   0.00000  Uiso   1.00
H2610  H     0.59950   0.67121   0.97118   0.00000  Uiso   1.00
H2611  H     0.56701   0.97966   0.51315   0.00000  Uiso   1.00
H2612  H     0.62025   0.99039   0.52434   0.00000  Uiso   1.00
O2613  O     0.38859   0.84924   0.54720   0.00000  Uiso   1.00
C2614  C     0.37134   0.80632   0.54510   0.00000  Uiso   1.00
H2615  H     0.36139   0.79768   0.51067   0.00000  Uiso   1.00
H2616  H     0.34427   0.80636   0.56835   0.00000  Uiso   1.00
H2617  H     0.39288   0.78008   0.55602   0.00000  Uiso   1.00
O2618  O     0.61265   0.82025   0.95105   0.00000  Uiso   1.00
C2619  C     0.63399   0.85918   0.96409   0.00000  Uiso   1.00
H2620  H     0.61446   0.88988   0.96330   0.00000  Uiso   1.00
H2621  H     0.66000   0.86316   0.94002   0.00000  Uiso   1.00
H2622  H     0.64647   0.85643   0.99796   0.00000  Uiso   1.00
O2623  O     0.37554   0.75100   0.73322   0.00000  Uiso   1.00
C2624  C     0.39225   0.74304   0.68941   0.00000  Uiso   1.00
H2625  H     0.41268   0.71331   0.69095   0.00000  Uiso   1.00
H2626  H     0.41192   0.77073   0.67802   0.00000  Uiso   1.00
C2627  C     0.35933   0.73346   0.65480   0.00000  Uiso   1.00
H2628  H     0.66610   0.71648   0.67044   0.00000  Uiso   1.00
H2629  H     0.34818   0.76556   0.64210   0.00000  Uiso   1.00
C2630  C     0.37698   0.70452   0.61560   0.00000  Uiso   1.00
H2631  H     0.40586   0.71905   0.60216   0.00000  Uiso   1.00
H2632  H     0.35454   0.70228   0.58848   0.00000  Uiso   1.00
H2633  H     0.38372   0.67030   0.62663   0.00000  Uiso   1.00
O2634  O     0.62534   0.91213   0.72996   0.00000  Uiso   1.00
C2635  C     0.62062   0.91492   0.68329   0.00000  Uiso   1.00
H2636  H     0.58931   0.90362   0.67470   0.00000  Uiso   1.00
H2637  H     0.64350   0.89439   0.66271   0.00000  Uiso   1.00
C2638  C     0.62551   0.96331   0.67063   0.00000  Uiso   1.00
H2639  H     0.60104   0.98408   0.68798   0.00000  Uiso   1.00
H2640  H     0.65585   0.97519   0.68197   0.00000  Uiso   1.00
C2641  C     0.62336   0.96810   0.62014   0.00000  Uiso   1.00
H2642  H     0.65057   0.95181   0.60293   0.00000  Uiso   1.00
H2643  H     0.62297   0.67068   0.61245   0.00000  Uiso   1.00
H2644  H     0.59504   0.95267   0.60707   0.00000  Uiso   1.00
O2645  O     0.62846   0.75073   0.75142   0.00000  Uiso   1.00
C2646  C     0.62135   0.74451   0.79777   0.00000  Uiso   1.00
H2647  H     0.60233   0.71422   0.80084   0.00000  Uiso   1.00
H2648  H     0.60305   0.77241   0.81361   0.00000  Uiso   1.00
C2649  C     0.66108   0.73773   0.82356   0.00000  Uiso   1.00
H2650  H     0.34557   0.70893   0.80856   0.00000  Uiso   1.00
H2651  H     0.34722   0.76779   0.82188   0.00000  Uiso   1.00
C2652  C     0.65149   0.73007   0.87283   0.00000  Uiso   1.00
H2653  H     0.63691   0.76034   0.88893   0.00000  Uiso   1.00
H2654  H     0.34709   0.72305   0.89017   0.00000  Uiso   1.00
H2655  H     0.63033   0.70157   0.87658   0.00000  Uiso   1.00
O2656  O     0.37182   0.91503   0.75105   0.00000  Uiso   1.00
C2657  C     0.37642   0.92433   0.79746   0.00000  Uiso   1.00
H2658  H     0.39874   0.95198   0.80103   0.00000  Uiso   1.00
H2659  H     0.38981   0.89547   0.81463   0.00000  Uiso   1.00
C2660  C     0.33576   0.93900   0.82106   0.00000  Uiso   1.00
H2661  H     0.65664   0.96908   0.80546   0.00000  Uiso   1.00
H2662  H     0.64616   0.91217   0.81795   0.00000  Uiso   1.00
C2663  C     0.34170   0.94840   0.87071   0.00000  Uiso   1.00
H2664  H     0.35321   0.91785   0.88627   0.00000  Uiso   1.00
H2665  H     0.64516   0.95807   0.88730   0.00000  Uiso   1.00
H2666  H     0.36406   0.97572   0.87580   0.00000  Uiso   1.00
O2667  O     0.50408   0.71442   0.82948   0.00000  Uiso   1.00
C2668  C     0.46488   0.71099   0.85058   0.00000  Uiso   1.00
H2669  H     0.43991   0.72221   0.82872   0.00000  Uiso   1.00
H2670  H     0.46391   0.73301   0.88120   0.00000  Uiso   1.00
H2671  H     0.45895   0.67642   0.86116   0.00000  Uiso   1.00
O2672  O     0.47235   0.95190   0.67740   0.00000  Uiso   1.00
C2673  C     0.49624   0.95118   0.63726   0.00000  Uiso   1.00
H2674  H     0.52951   0.94587   0.64298   0.00000  Uiso   1.00
H2675  H     0.48986   0.98096   0.61764   0.00000  Uiso   1.00
H2676  H     0.48673   0.92267   0.61572   0.00000  Uiso   1.00
O2677  O     0.49342   0.70980   0.67131   0.00000  Uiso   1.00
C2678  C     0.53402   0.71547   0.65463   0.00000  Uiso   1.00
H2679  H     0.55397   0.73197   0.67973   0.00000  Uiso   1.00
H2680  H     0.53239   0.73636   0.62505   0.00000  Uiso   1.00
H2681  H     0.54884   0.68365   0.64332   0.00000  Uiso   1.00
O2682  O     0.51485   0.95587   0.82702   0.00000  Uiso   1.00
C2683  C     0.55617   0.96218   0.83846   0.00000  Uiso   1.00
H2684  H     0.56325   0.99785   0.84539   0.00000  Uiso   1.00
H2685  H     0.57751   0.94771   0.81197   0.00000  Uiso   1.00
H2686  H     0.56150   0.94499   0.86988   0.00000  Uiso   1.00
C2687  C     0.75349   0.83337   0.74831   0.00000  Uiso   1.00
C2688  C     0.91332   0.83302   0.74865   0.00000  Uiso   1.00
C2689  C     0.75985   0.84673   0.52550   0.00000  Uiso   1.00
C2690  C     0.90833   0.82028   0.97365   0.00000  Uiso   1.00
C2691  C     0.68881   0.79207   0.73709   0.00000  Uiso   1.00
C2692  C     0.97867   0.87251   0.73821   0.00000  Uiso   1.00
C2693  C     0.98008   0.79170   0.74505   0.00000  Uiso   1.00
C2694  C     0.68706   0.87365   0.74483   0.00000  Uiso   1.00
C2695  C     0.95769   0.83226   0.74410   0.00000  Uiso   1.00
C2696  C     0.70950   0.83310   0.74312   0.00000  Uiso   1.00
C2697  C     0.83698   0.69148   0.78881   0.00000  Uiso   1.00
C2698  C     0.82512   0.97469   0.71185   0.00000  Uiso   1.00
C2699  C     0.82906   0.68898   0.71123   0.00000  Uiso   1.00
C2700  C     0.84111   0.97726   0.78794   0.00000  Uiso   1.00
C2701  C     0.83402   0.83256   0.66363   0.00000  Uiso   1.00
C2702  C     0.83300   0.83420   0.83627   0.00000  Uiso   1.00
C2703  C     0.87116   0.82895   0.90463   0.00000  Uiso   1.00
C2704  C     0.79635   0.83354   0.59472   0.00000  Uiso   1.00
C2705  C     0.83393   0.83677   0.88394   0.00000  Uiso   1.00
C2706  C     0.83416   0.83042   0.61577   0.00000  Uiso   1.00
C2707  C     0.79778   0.84781   0.90827   0.00000  Uiso   1.00
C2708  C     0.87174   0.82669   0.59146   0.00000  Uiso   1.00
C2709  C     0.79797   0.84753   0.95504   0.00000  Uiso   1.00
C2710  C     0.87085   0.82293   0.54480   0.00000  Uiso   1.00
C2711  C     0.83433   0.83510   0.97641   0.00000  Uiso   1.00
C2712  C     0.83379   0.83173   0.52314   0.00000  Uiso   1.00
C2713  C     0.87163   0.82829   0.95137   0.00000  Uiso   1.00
C2714  C     0.79616   0.83669   0.54799   0.00000  Uiso   1.00
C2715  C     0.76236   0.85835   0.98103   0.00000  Uiso   1.00
C2716  C     0.90675   0.81211   0.51929   0.00000  Uiso   1.00
N2717  N     0.83333   0.95240   0.75000   0.00000  Uiso   1.00
N2718  N     0.83333   0.71427   0.75000   0.00000  Uiso   1.00
O2719  O     0.77226   0.87154   0.75000   0.00000  Uiso   1.00
O2720  O     0.89441   0.79513   0.75001   0.00000  Uiso   1.00
O2721  O     0.89441   0.87154   0.75001   0.00000  Uiso   1.00
O2722  O     0.77226   0.79513   0.75000   0.00000  Uiso   1.00
O2723  O     0.83333   0.87156   0.68393   0.00000  Uiso   1.00
O2724  O     0.83334   0.79511   0.81608   0.00000  Uiso   1.00
O2725  O     0.83334   0.87156   0.81608   0.00000  Uiso   1.00
O2726  O     0.83333   0.79511   0.68393   0.00000  Uiso   1.00
Zn2727 Zn    0.83333   0.88437   0.75000   0.00000  Uiso   1.00
Zn2728 Zn    0.83333   0.78229   0.75000   0.00000  Uiso   1.00
O2729  O     0.90559   0.81573   0.87908   0.00000  Uiso   1.00
C2730  C     0.92596   0.85370   0.86342   0.00000  Uiso   1.00
H2731  H     0.92828   0.88082   0.88939   0.00000  Uiso   1.00
H2732  H     0.95774   0.84375   0.85259   0.00000  Uiso   1.00
H2733  H     0.91052   0.86681   0.83425   0.00000  Uiso   1.00
O2734  O     0.75996   0.83094   0.61986   0.00000  Uiso   1.00
C2735  C     0.74584   0.87400   0.63412   0.00000  Uiso   1.00
H2736  H     0.75139   0.89994   0.60901   0.00000  Uiso   1.00
H2737  H     0.75947   0.88414   0.66616   0.00000  Uiso   1.00
H2738  H     0.71215   0.87249   0.64032   0.00000  Uiso   1.00
O2739  O     0.76259   0.85921   0.88601   0.00000  Uiso   1.00
C2740  C     0.73877   0.82068   0.87867   0.00000  Uiso   1.00
H2741  H     0.70801   0.83123   0.86767   0.00000  Uiso   1.00
H2742  H     0.73390   0.80147   0.90950   0.00000  Uiso   1.00
H2743  H     0.75291   0.79896   0.85153   0.00000  Uiso   1.00
O2744  O     0.90807   0.84025   0.61087   0.00000  Uiso   1.00
C2745  C     0.92606   0.80556   0.63428   0.00000  Uiso   1.00
H2746  H     0.95816   0.81485   0.64131   0.00000  Uiso   1.00
H2747  H     0.92712   0.77312   0.61535   0.00000  Uiso   1.00
H2748  H     0.91010   0.80181   0.66661   0.00000  Uiso   1.00
O2749  O     0.73049   0.88305   0.96458   0.00000  Uiso   1.00
C2750  C     0.74172   0.92872   0.96499   0.00000  Uiso   1.00
H2751  H     0.74855   0.93819   0.93005   0.00000  Uiso   1.00
H2752  H     0.76957   0.93681   0.98477   0.00000  Uiso   1.00
C2753  C     0.70610   0.95745   0.98459   0.00000  Uiso   1.00
H2754  H     0.67783   0.95064   0.96571   0.00000  Uiso   1.00
H2755  H     0.70000   0.94887   0.51996   0.00000  Uiso   1.00
C2756  C     0.71611   0.67368   0.98268   0.00000  Uiso   1.00
H2757  H     0.74259   0.68181   0.50402   0.00000  Uiso   1.00
H2758  H     0.68916   0.69381   0.99502   0.00000  Uiso   1.00
H2759  H     0.72359   0.68278   0.94778   0.00000  Uiso   1.00
O2760  O     0.94009   0.79291   0.53931   0.00000  Uiso   1.00
C2761  C     0.94908   0.74944   0.52071   0.00000  Uiso   1.00
H2762  H     0.97579   0.73661   0.53862   0.00000  Uiso   1.00
H2763  H     0.95903   0.75016   0.98498   0.00000  Uiso   1.00
C2764  C     0.91384   0.71611   0.52699   0.00000  Uiso   1.00
H2765  H     0.90626   0.71357   0.56308   0.00000  Uiso   1.00
H2766  H     0.88593   0.72745   0.50994   0.00000  Uiso   1.00
C2767  C     0.92602   0.66985   0.50768   0.00000  Uiso   1.00
H2768  H     0.93283   0.67121   0.97118   0.00000  Uiso   1.00
H2769  H     0.90035   0.97966   0.51315   0.00000  Uiso   1.00
H2770  H     0.95358   0.99039   0.52434   0.00000  Uiso   1.00
O2771  O     0.72192   0.84924   0.54720   0.00000  Uiso   1.00
C2772  C     0.70467   0.80632   0.54510   0.00000  Uiso   1.00
H2773  H     0.69473   0.79768   0.51067   0.00000  Uiso   1.00
H2774  H     0.67760   0.80636   0.56835   0.00000  Uiso   1.00
H2775  H     0.72622   0.78008   0.55602   0.00000  Uiso   1.00
O2776  O     0.94599   0.82025   0.95105   0.00000  Uiso   1.00
C2777  C     0.96732   0.85918   0.96409   0.00000  Uiso   1.00
H2778  H     0.94779   0.88988   0.96330   0.00000  Uiso   1.00
H2779  H     0.99334   0.86316   0.94002   0.00000  Uiso   1.00
H2780  H     0.97981   0.85643   0.99796   0.00000  Uiso   1.00
O2781  O     0.70887   0.75100   0.73322   0.00000  Uiso   1.00
C2782  C     0.72559   0.74304   0.68941   0.00000  Uiso   1.00
H2783  H     0.74601   0.71331   0.69095   0.00000  Uiso   1.00
H2784  H     0.74525   0.77073   0.67802   0.00000  Uiso   1.00
C2785  C     0.69266   0.73346   0.65480   0.00000  Uiso   1.00
H2786  H     0.99944   0.71648   0.67044   0.00000  Uiso   1.00
H2787  H     0.68151   0.76556   0.64210   0.00000  Uiso   1.00
C2788  C     0.71031   0.70452   0.61560   0.00000  Uiso   1.00
H2789  H     0.73920   0.71905   0.60216   0.00000  Uiso   1.00
H2790  H     0.68788   0.70228   0.58848   0.00000  Uiso   1.00
H2791  H     0.71705   0.67030   0.62663   0.00000  Uiso   1.00
O2792  O     0.95868   0.91213   0.72996   0.00000  Uiso   1.00
C2793  C     0.95396   0.91492   0.68329   0.00000  Uiso   1.00
H2794  H     0.92265   0.90362   0.67470   0.00000  Uiso   1.00
H2795  H     0.97684   0.89439   0.66271   0.00000  Uiso   1.00
C2796  C     0.95885   0.96331   0.67063   0.00000  Uiso   1.00
H2797  H     0.93437   0.98408   0.68798   0.00000  Uiso   1.00
H2798  H     0.98918   0.97519   0.68197   0.00000  Uiso   1.00
C2799  C     0.95669   0.96810   0.62014   0.00000  Uiso   1.00
H2800  H     0.98390   0.95181   0.60293   0.00000  Uiso   1.00
H2801  H     0.95630   0.67068   0.61245   0.00000  Uiso   1.00
H2802  H     0.92838   0.95267   0.60707   0.00000  Uiso   1.00
O2803  O     0.96179   0.75073   0.75142   0.00000  Uiso   1.00
C2804  C     0.95469   0.74451   0.79777   0.00000  Uiso   1.00
H2805  H     0.93566   0.71422   0.80084   0.00000  Uiso   1.00
H2806  H     0.93638   0.77241   0.81361   0.00000  Uiso   1.00
C2807  C     0.99441   0.73773   0.82356   0.00000  Uiso   1.00
H2808  H     0.67890   0.70893   0.80856   0.00000  Uiso   1.00
H2809  H     0.68056   0.76779   0.82188   0.00000  Uiso   1.00
C2810  C     0.98482   0.73007   0.87283   0.00000  Uiso   1.00
H2811  H     0.97025   0.76034   0.88893   0.00000  Uiso   1.00
H2812  H     0.68043   0.72305   0.89017   0.00000  Uiso   1.00
H2813  H     0.96367   0.70157   0.87658   0.00000  Uiso   1.00
O2814  O     0.70515   0.91503   0.75105   0.00000  Uiso   1.00
C2815  C     0.70975   0.92433   0.79746   0.00000  Uiso   1.00
H2816  H     0.73208   0.95198   0.80103   0.00000  Uiso   1.00
H2817  H     0.72314   0.89547   0.81463   0.00000  Uiso   1.00
C2818  C     0.66909   0.93900   0.82106   0.00000  Uiso   1.00
H2819  H     0.98997   0.96908   0.80546   0.00000  Uiso   1.00
H2820  H     0.97950   0.91217   0.81795   0.00000  Uiso   1.00
C2821  C     0.67504   0.94840   0.87071   0.00000  Uiso   1.00
H2822  H     0.68654   0.91785   0.88627   0.00000  Uiso   1.00
H2823  H     0.97849   0.95807   0.88730   0.00000  Uiso   1.00
H2824  H     0.69740   0.97572   0.87580   0.00000  Uiso   1.00
O2825  O     0.83741   0.71442   0.82948   0.00000  Uiso   1.00
C2826  C     0.79822   0.71099   0.85058   0.00000  Uiso   1.00
H2827  H     0.77325   0.72221   0.82872   0.00000  Uiso   1.00
H2828  H     0.79724   0.73301   0.88120   0.00000  Uiso   1.00
H2829  H     0.79228   0.67642   0.86116   0.00000  Uiso   1.00
O2830  O     0.80568   0.95190   0.67740   0.00000  Uiso   1.00
C2831  C     0.82957   0.95118   0.63726   0.00000  Uiso   1.00
H2832  H     0.86284   0.94587   0.64298   0.00000  Uiso   1.00
H2833  H     0.82319   0.98096   0.61764   0.00000  Uiso   1.00
H2834  H     0.82006   0.92267   0.61572   0.00000  Uiso   1.00
O2835  O     0.82676   0.70980   0.67131   0.00000  Uiso   1.00
C2836  C     0.86735   0.71547   0.65463   0.00000  Uiso   1.00
H2837  H     0.88730   0.73197   0.67973   0.00000  Uiso   1.00
H2838  H     0.86573   0.73636   0.62505   0.00000  Uiso   1.00
H2839  H     0.88217   0.68365   0.64332   0.00000  Uiso   1.00
O2840  O     0.84818   0.95587   0.82702   0.00000  Uiso   1.00
C2841  C     0.88950   0.96218   0.83846   0.00000  Uiso   1.00
H2842  H     0.89658   0.99785   0.84539   0.00000  Uiso   1.00
H2843  H     0.91085   0.94771   0.81197   0.00000  Uiso   1.00
H2844  H     0.89483   0.94499   0.86988   0.00000  Uiso   1.00
loop_
_geom_bond_atom_site_label_1
_geom_bond_atom_site_label_2
_geom_bond_distance
_geom_bond_site_symmetry_2
_ccdc_geom_bond_type
C1     O33     1.302   .     A
C1     C10     1.444   .     S
C1     O36     1.297   .     A
C2     O35     1.302   .     A
C2     O34     1.298   .     A
C2     C9      1.445   .     S
C3     O85     1.378   .     S
C3     C28     1.412   .     A
C3     C1451   1.389   1_554 S
C4     O90     1.382   .     S
C4     C27     1.407   .     A
C4     C1452   1.397   .     S
C5     O95     1.387   .     S
C5     C10     1.416   .     A
C5     C323    1.382   1_455 S
C6     C9      1.406   .     A
C6     O106    1.382   .     S
C6     C166    1.378   .     S
C7     O117    1.387   .     S
C7     C9      1.413   .     A
C7     C163    1.382   .     S
C8     O128    1.387   .     S
C8     C10     1.411   .     A
C8     C322    1.378   1_455 S
C11    O139    1.377   .     S
C11    N32     1.377   .     A
C11    C962    1.430   1_545 S
C12    O144    1.387   .     S
C12    N31     1.376   .     A
C12    C487    1.435   .     S
C13    N32     1.375   .     A
C13    O149    1.372   .     S
C13    C960    1.435   1_545 S
C14    N31     1.367   .     A
C14    O154    1.379   .     S
C14    C485    1.430   .     S
C15    O37     1.298   .     A
C15    C20     1.432   .     S
C15    O40     1.296   .     A
C16    C19     1.428   .     S
C16    O39     1.292   .     A
C16    O38     1.299   .     A
C17    C27     1.401   .     A
C17    O43     1.384   .     S
C17    C19     1.397   .     A
C18    C28     1.406   .     A
C18    O48     1.389   .     S
C18    C20     1.402   .     A
C19    C21     1.396   .     A
C20    C22     1.406   .     A
C21    C23     1.401   .     A
C21    O53     1.387   .     S
C22    C24     1.399   .     A
C22    O58     1.390   .     S
C23    C29     1.405   .     A
C23    C25     1.414   .     A
C24    C26     1.412   .     A
C24    C30     1.405   .     A
C25    C27     1.417   .     A
C25    C1448   1.406   .     S
C26    C28     1.418   .     A
C26    C1447   1.406   1_554 S
C29    O63     1.381   .     S
C29    C1425   1.389   .     S
C30    O74     1.384   .     S
C30    C1426   1.397   1_554 S
N31    Zn41    2.039   .     S
N32    Zn42    2.039   .     S
O33    Zn41    2.027   .     S
O34    Zn42    2.027   .     S
O35    Zn41    2.020   .     S
O36    Zn42    2.020   .     S
O37    Zn41    2.002   .     S
O38    Zn42    2.002   .     S
O39    Zn41    2.029   .     S
O40    Zn42    2.029   .     S
O43    C44     1.411   .     S
C44    H45     1.109   .     S
C44    H47     1.103   .     S
C44    H46     1.109   .     S
O48    C49     1.413   .     S
C49    H51     1.103   .     S
C49    H52     1.108   .     S
C49    H50     1.114   .     S
O53    C54     1.411   .     S
C54    H56     1.114   .     S
C54    H55     1.109   .     S
C54    H57     1.109   .     S
O58    C59     1.407   .     S
C59    H60     1.107   .     S
C59    H61     1.107   .     S
C59    H62     1.095   .     S
O63    C64     1.420   .     S
C64    C67     1.528   .     S
C64    H66     1.120   .     S
C64    H65     1.111   .     S
C67    H68     1.110   .     S
C67    H1491   1.112   .     S
C67    C544    1.527   .     S
H69    C1489   1.112   1_554 S
C70    H73     1.111   .     S
C70    H72     1.106   .     S
C70    C1015   1.527   1_545 S
C70    H1493   1.111   .     S
H71    C1492   1.111   1_554 S
O74    C75     1.423   .     S
C75    H76     1.107   .     S
C75    C78     1.540   .     S
C75    H1499   1.110   1_554 S
H77    C1497   1.110   .     S
C78    H80     1.111   .     S
C78    H79     1.107   .     S
C78    C81     1.527   .     S
C81    H1504   1.111   1_554 S
C81    H1031   1.111   1_545 S
C81    H1032   1.110   1_545 S
H82    C1503   1.111   .     S
H83    C555    1.111   .     S
H84    C555    1.110   .     S
O85    C86     1.409   .     S
C86    H88     1.107   .     S
C86    H87     1.112   .     S
C86    H89     1.112   .     S
O90    C91     1.412   .     S
C91    H92     1.115   .     S
C91    H93     1.106   .     S
C91    H94     1.109   .     S
O95    C96     1.417   .     S
C96    C99     1.533   .     S
C96    H98     1.110   .     S
C96    H97     1.110   .     S
C99    H101    1.109   .     S
C99    C102    1.529   .     S
C99    H416    1.108   1_455 S
H100   C257    1.108   .     S
C102   H105    1.111   .     S
C102   H104    1.108   .     S
C102   H103    1.110   .     S
O106   C107    1.416   .     S
C107   H108    1.110   .     S
C107   H109    1.118   .     S
C107   C110    1.522   .     S
C110   H111    1.111   .     S
C110   C113    1.527   .     S
C110   H112    1.110   .     S
C113   H116    1.110   .     S
C113   H114    1.111   .     S
C113   H589    1.109   .     S
H115   C1061   1.109   1_545 S
O117   C118    1.420   .     S
C118   H119    1.109   .     S
C118   C121    1.540   .     S
C118   H120    1.106   .     S
C121   C124    1.525   .     S
C121   H280    1.109   .     S
C121   H281    1.108   .     S
H122   C437    1.109   1_455 S
H123   C437    1.108   1_455 S
C124   H127    1.109   .     S
C124   H125    1.108   .     S
C124   H284    1.110   .     S
H126   C440    1.110   1_455 S
O128   C129    1.420   .     S
C129   C132    1.534   .     S
C129   H130    1.111   .     S
C129   H131    1.114   .     S
C132   C135    1.521   .     S
C132   H449    1.109   1_455 S
C132   H450    1.105   1_455 S
H133   C290    1.109   .     S
H134   C290    1.105   .     S
C135   H138    1.110   .     S
C135   H136    1.109   .     S
C135   H453    1.110   1_455 S
H137   C293    1.110   .     S
O139   C140    1.413   .     S
C140   H143    1.112   .     S
C140   H141    1.115   .     S
C140   H142    1.110   .     S
O144   C145    1.412   .     S
C145   H146    1.111   .     S
C145   H147    1.107   .     S
C145   H148    1.104   .     S
O149   C150    1.412   .     S
C150   H153    1.102   .     S
C150   H152    1.105   .     S
C150   H151    1.112   .     S
O154   C155    1.409   .     S
C155   H157    1.112   .     S
C155   H158    1.106   .     S
C155   H156    1.109   .     S
C159   O191    1.302   .     A
C159   C168    1.444   .     S
C159   O194    1.297   .     A
C160   O193    1.302   .     A
C160   O192    1.298   .     A
C160   C167    1.445   .     S
C161   O243    1.378   .     S
C161   C186    1.412   .     A
C161   C1609   1.389   1_554 S
C162   O248    1.382   .     S
C162   C185    1.407   .     A
C162   C1610   1.397   .     S
C163   O253    1.387   .     S
C163   C168    1.416   .     A
C164   C167    1.406   .     A
C164   O264    1.382   .     S
C164   C324    1.378   .     S
C165   O275    1.387   .     S
C165   C167    1.413   .     A
C165   C321    1.382   .     S
C166   O286    1.387   .     S
C166   C168    1.411   .     A
C169   O297    1.377   .     S
C169   N190    1.377   .     A
C169   C1120   1.430   1_545 S
C170   O302    1.387   .     S
C170   N189    1.376   .     A
C170   C645    1.435   .     S
C171   N190    1.375   .     A
C171   O307    1.372   .     S
C171   C1118   1.435   1_545 S
C172   N189    1.367   .     A
C172   O312    1.379   .     S
C172   C643    1.430   .     S
C173   O195    1.298   .     A
C173   C178    1.432   .     S
C173   O198    1.296   .     A
C174   C177    1.428   .     S
C174   O197    1.292   .     A
C174   O196    1.299   .     A
C175   C185    1.401   .     A
C175   O201    1.384   .     S
C175   C177    1.397   .     A
C176   C186    1.406   .     A
C176   O206    1.389   .     S
C176   C178    1.402   .     A
C177   C179    1.396   .     A
C178   C180    1.406   .     A
C179   C181    1.401   .     A
C179   O211    1.387   .     S
C180   C182    1.399   .     A
C180   O216    1.390   .     S
C181   C187    1.405   .     A
C181   C183    1.414   .     A
C182   C184    1.412   .     A
C182   C188    1.405   .     A
C183   C185    1.417   .     A
C183   C1606   1.406   .     S
C184   C186    1.418   .     A
C184   C1605   1.406   1_554 S
C187   O221    1.381   .     S
C187   C1583   1.389   .     S
C188   O232    1.384   .     S
C188   C1584   1.397   1_554 S
N189   Zn199   2.039   .     S
N190   Zn200   2.039   .     S
O191   Zn199   2.027   .     S
O192   Zn200   2.027   .     S
O193   Zn199   2.020   .     S
O194   Zn200   2.020   .     S
O195   Zn199   2.002   .     S
O196   Zn200   2.002   .     S
O197   Zn199   2.029   .     S
O198   Zn200   2.029   .     S
O201   C202    1.411   .     S
C202   H203    1.109   .     S
C202   H205    1.103   .     S
C202   H204    1.109   .     S
O206   C207    1.413   .     S
C207   H209    1.103   .     S
C207   H210    1.108   .     S
C207   H208    1.114   .     S
O211   C212    1.411   .     S
C212   H214    1.114   .     S
C212   H213    1.109   .     S
C212   H215    1.109   .     S
O216   C217    1.407   .     S
C217   H218    1.107   .     S
C217   H219    1.107   .     S
C217   H220    1.095   .     S
O221   C222    1.420   .     S
C222   C225    1.528   .     S
C222   H224    1.120   .     S
C222   H223    1.111   .     S
C225   H226    1.110   .     S
C225   H1649   1.112   .     S
C225   C702    1.527   .     S
H227   C1647   1.112   1_554 S
C228   H231    1.111   .     S
C228   H230    1.106   .     S
C228   C1173   1.527   1_545 S
C228   H1651   1.111   .     S
H229   C1650   1.111   1_554 S
O232   C233    1.423   .     S
C233   H234    1.107   .     S
C233   C236    1.540   .     S
C233   H1657   1.110   1_554 S
H235   C1655   1.110   .     S
C236   H238    1.111   .     S
C236   H237    1.107   .     S
C236   C239    1.527   .     S
C239   H1662   1.111   1_554 S
C239   H1189   1.111   1_545 S
C239   H1190   1.110   1_545 S
H240   C1661   1.111   .     S
H241   C713    1.111   .     S
H242   C713    1.110   .     S
O243   C244    1.409   .     S
C244   H246    1.107   .     S
C244   H245    1.112   .     S
C244   H247    1.112   .     S
O248   C249    1.412   .     S
C249   H250    1.115   .     S
C249   H251    1.106   .     S
C249   H252    1.109   .     S
O253   C254    1.417   .     S
C254   C257    1.533   .     S
C254   H256    1.110   .     S
C254   H255    1.110   .     S
C257   H259    1.109   .     S
C257   C260    1.529   .     S
H258   C415    1.108   .     S
C260   H263    1.111   .     S
C260   H262    1.108   .     S
C260   H261    1.110   .     S
O264   C265    1.416   .     S
C265   H266    1.110   .     S
C265   H267    1.118   .     S
C265   C268    1.522   .     S
C268   H269    1.111   .     S
C268   C271    1.527   .     S
C268   H270    1.110   .     S
C271   H274    1.110   .     S
C271   H272    1.111   .     S
C271   H747    1.109   .     S
H273   C1219   1.109   1_545 S
O275   C276    1.420   .     S
C276   H277    1.109   .     S
C276   C279    1.540   .     S
C276   H278    1.106   .     S
C279   C282    1.525   .     S
C279   H438    1.109   .     S
C279   H439    1.108   .     S
C282   H285    1.109   .     S
C282   H283    1.108   .     S
C282   H442    1.110   .     S
O286   C287    1.420   .     S
C287   C290    1.534   .     S
C287   H288    1.111   .     S
C287   H289    1.114   .     S
C290   C293    1.521   .     S
H291   C448    1.109   .     S
H292   C448    1.105   .     S
C293   H296    1.110   .     S
C293   H294    1.109   .     S
H295   C451    1.110   .     S
O297   C298    1.413   .     S
C298   H301    1.112   .     S
C298   H299    1.115   .     S
C298   H300    1.110   .     S
O302   C303    1.412   .     S
C303   H304    1.111   .     S
C303   H305    1.107   .     S
C303   H306    1.104   .     S
O307   C308    1.412   .     S
C308   H311    1.102   .     S
C308   H310    1.105   .     S
C308   H309    1.112   .     S
O312   C313    1.409   .     S
C313   H315    1.112   .     S
C313   H316    1.106   .     S
C313   H314    1.109   .     S
C317   O349    1.302   .     A
C317   C326    1.444   .     S
C317   O352    1.297   .     A
C318   O351    1.302   .     A
C318   O350    1.298   .     A
C318   C325    1.445   .     S
C319   O401    1.378   .     S
C319   C344    1.412   .     A
C319   C1767   1.389   1_554 S
C320   O406    1.382   .     S
C320   C343    1.407   .     A
C320   C1768   1.397   .     S
C321   O411    1.387   .     S
C321   C326    1.416   .     A
C322   C325    1.406   .     A
C322   O422    1.382   .     S
C322   C8      1.378   1_655 S
C323   O433    1.387   .     S
C323   C325    1.413   .     A
C323   C5      1.382   1_655 S
C324   O444    1.387   .     S
C324   C326    1.411   .     A
C327   O455    1.377   .     S
C327   N348    1.377   .     A
C327   C1278   1.430   1_545 S
C328   O460    1.387   .     S
C328   N347    1.376   .     A
C328   C803    1.435   .     S
C329   N348    1.375   .     A
C329   O465    1.372   .     S
C329   C1276   1.435   1_545 S
C330   N347    1.367   .     A
C330   O470    1.379   .     S
C330   C801    1.430   .     S
C331   O353    1.298   .     A
C331   C336    1.432   .     S
C331   O356    1.296   .     A
C332   C335    1.428   .     S
C332   O355    1.292   .     A
C332   O354    1.299   .     A
C333   C343    1.401   .     A
C333   O359    1.384   .     S
C333   C335    1.397   .     A
C334   C344    1.406   .     A
C334   O364    1.389   .     S
C334   C336    1.402   .     A
C335   C337    1.396   .     A
C336   C338    1.406   .     A
C337   C339    1.401   .     A
C337   O369    1.387   .     S
C338   C340    1.399   .     A
C338   O374    1.390   .     S
C339   C345    1.405   .     A
C339   C341    1.414   .     A
C340   C342    1.412   .     A
C340   C346    1.405   .     A
C341   C343    1.417   .     A
C341   C1764   1.406   .     S
C342   C344    1.418   .     A
C342   C1763   1.406   1_554 S
C345   O379    1.381   .     S
C345   C1741   1.389   .     S
C346   O390    1.384   .     S
C346   C1742   1.397   1_554 S
N347   Zn357   2.039   .     S
N348   Zn358   2.039   .     S
O349   Zn357   2.027   .     S
O350   Zn358   2.027   .     S
O351   Zn357   2.020   .     S
O352   Zn358   2.020   .     S
O353   Zn357   2.002   .     S
O354   Zn358   2.002   .     S
O355   Zn357   2.029   .     S
O356   Zn358   2.029   .     S
O359   C360    1.411   .     S
C360   H361    1.109   .     S
C360   H363    1.103   .     S
C360   H362    1.109   .     S
O364   C365    1.413   .     S
C365   H367    1.103   .     S
C365   H368    1.108   .     S
C365   H366    1.114   .     S
O369   C370    1.411   .     S
C370   H372    1.114   .     S
C370   H371    1.109   .     S
C370   H373    1.109   .     S
O374   C375    1.407   .     S
C375   H376    1.107   .     S
C375   H377    1.107   .     S
C375   H378    1.095   .     S
O379   C380    1.420   .     S
C380   C383    1.528   .     S
C380   H382    1.120   .     S
C380   H381    1.111   .     S
C383   H384    1.110   .     S
C383   H1807   1.112   .     S
C383   C860    1.527   .     S
H385   C1805   1.112   1_554 S
C386   H389    1.111   .     S
C386   H388    1.106   .     S
C386   C1331   1.527   1_545 S
C386   H1809   1.111   .     S
H387   C1808   1.111   1_554 S
O390   C391    1.423   .     S
C391   H392    1.107   .     S
C391   C394    1.540   .     S
C391   H1815   1.110   1_554 S
H393   C1813   1.110   .     S
C394   H396    1.111   .     S
C394   H395    1.107   .     S
C394   C397    1.527   .     S
C397   H1820   1.111   1_554 S
C397   H1347   1.111   1_545 S
C397   H1348   1.110   1_545 S
H398   C1819   1.111   .     S
H399   C871    1.111   .     S
H400   C871    1.110   .     S
O401   C402    1.409   .     S
C402   H404    1.107   .     S
C402   H403    1.112   .     S
C402   H405    1.112   .     S
O406   C407    1.412   .     S
C407   H408    1.115   .     S
C407   H409    1.106   .     S
C407   H410    1.109   .     S
O411   C412    1.417   .     S
C412   C415    1.533   .     S
C412   H414    1.110   .     S
C412   H413    1.110   .     S
C415   H417    1.109   .     S
C415   C418    1.529   .     S
H416   C99     1.108   1_655 S
C418   H421    1.111   .     S
C418   H420    1.108   .     S
C418   H419    1.110   .     S
O422   C423    1.416   .     S
C423   H424    1.110   .     S
C423   H425    1.118   .     S
C423   C426    1.522   .     S
C426   H427    1.111   .     S
C426   C429    1.527   .     S
C426   H428    1.110   .     S
C429   H432    1.110   .     S
C429   H430    1.111   .     S
C429   H905    1.109   .     S
H431   C1377   1.109   1_545 S
O433   C434    1.420   .     S
C434   H435    1.109   .     S
C434   C437    1.540   .     S
C434   H436    1.106   .     S
C437   C440    1.525   .     S
C437   H122    1.109   1_655 S
C437   H123    1.108   1_655 S
C440   H443    1.109   .     S
C440   H441    1.108   .     S
C440   H126    1.110   1_655 S
O444   C445    1.420   .     S
C445   C448    1.534   .     S
C445   H446    1.111   .     S
C445   H447    1.114   .     S
C448   C451    1.521   .     S
H449   C132    1.109   1_655 S
H450   C132    1.105   1_655 S
C451   H454    1.110   .     S
C451   H452    1.109   .     S
H453   C135    1.110   1_655 S
O455   C456    1.413   .     S
C456   H459    1.112   .     S
C456   H457    1.115   .     S
C456   H458    1.110   .     S
O460   C461    1.412   .     S
C461   H462    1.111   .     S
C461   H463    1.107   .     S
C461   H464    1.104   .     S
O465   C466    1.412   .     S
C466   H469    1.102   .     S
C466   H468    1.105   .     S
C466   H467    1.112   .     S
O470   C471    1.409   .     S
C471   H473    1.112   .     S
C471   H474    1.106   .     S
C471   H472    1.109   .     S
C475   O507    1.302   .     A
C475   C484    1.444   .     S
C475   O510    1.297   .     A
C476   O509    1.302   .     A
C476   O508    1.298   .     A
C476   C483    1.445   .     S
C477   O559    1.378   .     S
C477   C502    1.412   .     A
C477   C1925   1.389   1_554 S
C478   O564    1.382   .     S
C478   C501    1.407   .     A
C478   C1926   1.397   .     S
C479   O569    1.387   .     S
C479   C484    1.416   .     A
C479   C797    1.382   1_455 S
C480   C483    1.406   .     A
C480   O580    1.382   .     S
C480   C640    1.378   .     S
C481   O591    1.387   .     S
C481   C483    1.413   .     A
C481   C637    1.382   .     S
C482   O602    1.387   .     S
C482   C484    1.411   .     A
C482   C796    1.378   1_455 S
C485   O613    1.377   .     S
C485   N506    1.377   .     A
C486   O618    1.387   .     S
C486   N505    1.376   .     A
C486   C961    1.435   .     S
C487   N506    1.375   .     A
C487   O623    1.372   .     S
C488   N505    1.367   .     A
C488   O628    1.379   .     S
C488   C959    1.430   .     S
C489   O511    1.298   .     A
C489   C494    1.432   .     S
C489   O514    1.296   .     A
C490   C493    1.428   .     S
C490   O513    1.292   .     A
C490   O512    1.299   .     A
C491   C501    1.401   .     A
C491   O517    1.384   .     S
C491   C493    1.397   .     A
C492   C502    1.406   .     A
C492   O522    1.389   .     S
C492   C494    1.402   .     A
C493   C495    1.396   .     A
C494   C496    1.406   .     A
C495   C497    1.401   .     A
C495   O527    1.387   .     S
C496   C498    1.399   .     A
C496   O532    1.390   .     S
C497   C503    1.405   .     A
C497   C499    1.414   .     A
C498   C500    1.412   .     A
C498   C504    1.405   .     A
C499   C501    1.417   .     A
C499   C1922   1.406   .     S
C500   C502    1.418   .     A
C500   C1921   1.406   1_554 S
C503   O537    1.381   .     S
C503   C1899   1.389   .     S
C504   O548    1.384   .     S
C504   C1900   1.397   1_554 S
N505   Zn515   2.039   .     S
N506   Zn516   2.039   .     S
O507   Zn515   2.027   .     S
O508   Zn516   2.027   .     S
O509   Zn515   2.020   .     S
O510   Zn516   2.020   .     S
O511   Zn515   2.002   .     S
O512   Zn516   2.002   .     S
O513   Zn515   2.029   .     S
O514   Zn516   2.029   .     S
O517   C518    1.411   .     S
C518   H519    1.109   .     S
C518   H521    1.103   .     S
C518   H520    1.109   .     S
O522   C523    1.413   .     S
C523   H525    1.103   .     S
C523   H526    1.108   .     S
C523   H524    1.114   .     S
O527   C528    1.411   .     S
C528   H530    1.114   .     S
C528   H529    1.109   .     S
C528   H531    1.109   .     S
O532   C533    1.407   .     S
C533   H534    1.107   .     S
C533   H535    1.107   .     S
C533   H536    1.095   .     S
O537   C538    1.420   .     S
C538   C541    1.528   .     S
C538   H540    1.120   .     S
C538   H539    1.111   .     S
C541   H542    1.110   .     S
C541   H1965   1.112   .     S
C541   C1018   1.527   .     S
H543   C1963   1.112   1_554 S
C544   H547    1.111   .     S
C544   H546    1.106   .     S
C544   H1967   1.111   .     S
H545   C1966   1.111   1_554 S
O548   C549    1.423   .     S
C549   H550    1.107   .     S
C549   C552    1.540   .     S
C549   H1973   1.110   1_554 S
H551   C1971   1.110   .     S
C552   H554    1.111   .     S
C552   H553    1.107   .     S
C552   C555    1.527   .     S
C555   H1978   1.111   1_554 S
H556   C1977   1.111   .     S
H557   C1029   1.111   .     S
H558   C1029   1.110   .     S
O559   C560    1.409   .     S
C560   H562    1.107   .     S
C560   H561    1.112   .     S
C560   H563    1.112   .     S
O564   C565    1.412   .     S
C565   H566    1.115   .     S
C565   H567    1.106   .     S
C565   H568    1.109   .     S
O569   C570    1.417   .     S
C570   C573    1.533   .     S
C570   H572    1.110   .     S
C570   H571    1.110   .     S
C573   H575    1.109   .     S
C573   C576    1.529   .     S
C573   H890    1.108   1_455 S
H574   C731    1.108   .     S
C576   H579    1.111   .     S
C576   H578    1.108   .     S
C576   H577    1.110   .     S
O580   C581    1.416   .     S
C581   H582    1.110   .     S
C581   H583    1.118   .     S
C581   C584    1.522   .     S
C584   H585    1.111   .     S
C584   C587    1.527   .     S
C584   H586    1.110   .     S
C587   H590    1.110   .     S
C587   H588    1.111   .     S
C587   H1063   1.109   .     S
O591   C592    1.420   .     S
C592   H593    1.109   .     S
C592   C595    1.540   .     S
C592   H594    1.106   .     S
C595   C598    1.525   .     S
C595   H754    1.109   .     S
C595   H755    1.108   .     S
H596   C911    1.109   1_455 S
H597   C911    1.108   1_455 S
C598   H601    1.109   .     S
C598   H599    1.108   .     S
C598   H758    1.110   .     S
H600   C914    1.110   1_455 S
O602   C603    1.420   .     S
C603   C606    1.534   .     S
C603   H604    1.111   .     S
C603   H605    1.114   .     S
C606   C609    1.521   .     S
C606   H923    1.109   1_455 S
C606   H924    1.105   1_455 S
H607   C764    1.109   .     S
H608   C764    1.105   .     S
C609   H612    1.110   .     S
C609   H610    1.109   .     S
C609   H927    1.110   1_455 S
H611   C767    1.110   .     S
O613   C614    1.413   .     S
C614   H617    1.112   .     S
C614   H615    1.115   .     S
C614   H616    1.110   .     S
O618   C619    1.412   .     S
C619   H620    1.111   .     S
C619   H621    1.107   .     S
C619   H622    1.104   .     S
O623   C624    1.412   .     S
C624   H627    1.102   .     S
C624   H626    1.105   .     S
C624   H625    1.112   .     S
O628   C629    1.409   .     S
C629   H631    1.112   .     S
C629   H632    1.106   .     S
C629   H630    1.109   .     S
C633   O665    1.302   .     A
C633   C642    1.444   .     S
C633   O668    1.297   .     A
C634   O667    1.302   .     A
C634   O666    1.298   .     A
C634   C641    1.445   .     S
C635   O717    1.378   .     S
C635   C660    1.412   .     A
C635   C2083   1.389   1_554 S
C636   O722    1.382   .     S
C636   C659    1.407   .     A
C636   C2084   1.397   .     S
C637   O727    1.387   .     S
C637   C642    1.416   .     A
C638   C641    1.406   .     A
C638   O738    1.382   .     S
C638   C798    1.378   .     S
C639   O749    1.387   .     S
C639   C641    1.413   .     A
C639   C795    1.382   .     S
C640   O760    1.387   .     S
C640   C642    1.411   .     A
C643   O771    1.377   .     S
C643   N664    1.377   .     A
C644   O776    1.387   .     S
C644   N663    1.376   .     A
C644   C1119   1.435   .     S
C645   N664    1.375   .     A
C645   O781    1.372   .     S
C646   N663    1.367   .     A
C646   O786    1.379   .     S
C646   C1117   1.430   .     S
C647   O669    1.298   .     A
C647   C652    1.432   .     S
C647   O672    1.296   .     A
C648   C651    1.428   .     S
C648   O671    1.292   .     A
C648   O670    1.299   .     A
C649   C659    1.401   .     A
C649   O675    1.384   .     S
C649   C651    1.397   .     A
C650   C660    1.406   .     A
C650   O680    1.389   .     S
C650   C652    1.402   .     A
C651   C653    1.396   .     A
C652   C654    1.406   .     A
C653   C655    1.401   .     A
C653   O685    1.387   .     S
C654   C656    1.399   .     A
C654   O690    1.390   .     S
C655   C661    1.405   .     A
C655   C657    1.414   .     A
C656   C658    1.412   .     A
C656   C662    1.405   .     A
C657   C659    1.417   .     A
C657   C2080   1.406   .     S
C658   C660    1.418   .     A
C658   C2079   1.406   1_554 S
C661   O695    1.381   .     S
C661   C2057   1.389   .     S
C662   O706    1.384   .     S
C662   C2058   1.397   1_554 S
N663   Zn673   2.039   .     S
N664   Zn674   2.039   .     S
O665   Zn673   2.027   .     S
O666   Zn674   2.027   .     S
O667   Zn673   2.020   .     S
O668   Zn674   2.020   .     S
O669   Zn673   2.002   .     S
O670   Zn674   2.002   .     S
O671   Zn673   2.029   .     S
O672   Zn674   2.029   .     S
O675   C676    1.411   .     S
C676   H677    1.109   .     S
C676   H679    1.103   .     S
C676   H678    1.109   .     S
O680   C681    1.413   .     S
C681   H683    1.103   .     S
C681   H684    1.108   .     S
C681   H682    1.114   .     S
O685   C686    1.411   .     S
C686   H688    1.114   .     S
C686   H687    1.109   .     S
C686   H689    1.109   .     S
O690   C691    1.407   .     S
C691   H692    1.107   .     S
C691   H693    1.107   .     S
C691   H694    1.095   .     S
O695   C696    1.420   .     S
C696   C699    1.528   .     S
C696   H698    1.120   .     S
C696   H697    1.111   .     S
C699   H700    1.110   .     S
C699   H2123   1.112   .     S
C699   C1176   1.527   .     S
H701   C2121   1.112   1_554 S
C702   H705    1.111   .     S
C702   H704    1.106   .     S
C702   H2125   1.111   .     S
H703   C2124   1.111   1_554 S
O706   C707    1.423   .     S
C707   H708    1.107   .     S
C707   C710    1.540   .     S
C707   H2131   1.110   1_554 S
H709   C2129   1.110   .     S
C710   H712    1.111   .     S
C710   H711    1.107   .     S
C710   C713    1.527   .     S
C713   H2136   1.111   1_554 S
H714   C2135   1.111   .     S
H715   C1187   1.111   .     S
H716   C1187   1.110   .     S
O717   C718    1.409   .     S
C718   H720    1.107   .     S
C718   H719    1.112   .     S
C718   H721    1.112   .     S
O722   C723    1.412   .     S
C723   H724    1.115   .     S
C723   H725    1.106   .     S
C723   H726    1.109   .     S
O727   C728    1.417   .     S
C728   C731    1.533   .     S
C728   H730    1.110   .     S
C728   H729    1.110   .     S
C731   H733    1.109   .     S
C731   C734    1.529   .     S
H732   C889    1.108   .     S
C734   H737    1.111   .     S
C734   H736    1.108   .     S
C734   H735    1.110   .     S
O738   C739    1.416   .     S
C739   H740    1.110   .     S
C739   H741    1.118   .     S
C739   C742    1.522   .     S
C742   H743    1.111   .     S
C742   C745    1.527   .     S
C742   H744    1.110   .     S
C745   H748    1.110   .     S
C745   H746    1.111   .     S
C745   H1221   1.109   .     S
O749   C750    1.420   .     S
C750   H751    1.109   .     S
C750   C753    1.540   .     S
C750   H752    1.106   .     S
C753   C756    1.525   .     S
C753   H912    1.109   .     S
C753   H913    1.108   .     S
C756   H759    1.109   .     S
C756   H757    1.108   .     S
C756   H916    1.110   .     S
O760   C761    1.420   .     S
C761   C764    1.534   .     S
C761   H762    1.111   .     S
C761   H763    1.114   .     S
C764   C767    1.521   .     S
H765   C922    1.109   .     S
H766   C922    1.105   .     S
C767   H770    1.110   .     S
C767   H768    1.109   .     S
H769   C925    1.110   .     S
O771   C772    1.413   .     S
C772   H775    1.112   .     S
C772   H773    1.115   .     S
C772   H774    1.110   .     S
O776   C777    1.412   .     S
C777   H778    1.111   .     S
C777   H779    1.107   .     S
C777   H780    1.104   .     S
O781   C782    1.412   .     S
C782   H785    1.102   .     S
C782   H784    1.105   .     S
C782   H783    1.112   .     S
O786   C787    1.409   .     S
C787   H789    1.112   .     S
C787   H790    1.106   .     S
C787   H788    1.109   .     S
C791   O823    1.302   .     A
C791   C800    1.444   .     S
C791   O826    1.297   .     A
C792   O825    1.302   .     A
C792   O824    1.298   .     A
C792   C799    1.445   .     S
C793   O875    1.378   .     S
C793   C818    1.412   .     A
C793   C2241   1.389   1_554 S
C794   O880    1.382   .     S
C794   C817    1.407   .     A
C794   C2242   1.397   .     S
C795   O885    1.387   .     S
C795   C800    1.416   .     A
C796   C799    1.406   .     A
C796   O896    1.382   .     S
C796   C482    1.378   1_655 S
C797   O907    1.387   .     S
C797   C799    1.413   .     A
C797   C479    1.382   1_655 S
C798   O918    1.387   .     S
C798   C800    1.411   .     A
C801   O929    1.377   .     S
C801   N822    1.377   .     A
C802   O934    1.387   .     S
C802   N821    1.376   .     A
C802   C1277   1.435   .     S
C803   N822    1.375   .     A
C803   O939    1.372   .     S
C804   N821    1.367   .     A
C804   O944    1.379   .     S
C804   C1275   1.430   .     S
C805   O827    1.298   .     A
C805   C810    1.432   .     S
C805   O830    1.296   .     A
C806   C809    1.428   .     S
C806   O829    1.292   .     A
C806   O828    1.299   .     A
C807   C817    1.401   .     A
C807   O833    1.384   .     S
C807   C809    1.397   .     A
C808   C818    1.406   .     A
C808   O838    1.389   .     S
C808   C810    1.402   .     A
C809   C811    1.396   .     A
C810   C812    1.406   .     A
C811   C813    1.401   .     A
C811   O843    1.387   .     S
C812   C814    1.399   .     A
C812   O848    1.390   .     S
C813   C819    1.405   .     A
C813   C815    1.414   .     A
C814   C816    1.412   .     A
C814   C820    1.405   .     A
C815   C817    1.417   .     A
C815   C2238   1.406   .     S
C816   C818    1.418   .     A
C816   C2237   1.406   1_554 S
C819   O853    1.381   .     S
C819   C2215   1.389   .     S
C820   O864    1.384   .     S
C820   C2216   1.397   1_554 S
N821   Zn831   2.039   .     S
N822   Zn832   2.039   .     S
O823   Zn831   2.027   .     S
O824   Zn832   2.027   .     S
O825   Zn831   2.020   .     S
O826   Zn832   2.020   .     S
O827   Zn831   2.002   .     S
O828   Zn832   2.002   .     S
O829   Zn831   2.029   .     S
O830   Zn832   2.029   .     S
O833   C834    1.411   .     S
C834   H835    1.109   .     S
C834   H837    1.103   .     S
C834   H836    1.109   .     S
O838   C839    1.413   .     S
C839   H841    1.103   .     S
C839   H842    1.108   .     S
C839   H840    1.114   .     S
O843   C844    1.411   .     S
C844   H846    1.114   .     S
C844   H845    1.109   .     S
C844   H847    1.109   .     S
O848   C849    1.407   .     S
C849   H850    1.107   .     S
C849   H851    1.107   .     S
C849   H852    1.095   .     S
O853   C854    1.420   .     S
C854   C857    1.528   .     S
C854   H856    1.120   .     S
C854   H855    1.111   .     S
C857   H858    1.110   .     S
C857   H2281   1.112   .     S
C857   C1334   1.527   .     S
H859   C2279   1.112   1_554 S
C860   H863    1.111   .     S
C860   H862    1.106   .     S
C860   H2283   1.111   .     S
H861   C2282   1.111   1_554 S
O864   C865    1.423   .     S
C865   H866    1.107   .     S
C865   C868    1.540   .     S
C865   H2289   1.110   1_554 S
H867   C2287   1.110   .     S
C868   H870    1.111   .     S
C868   H869    1.107   .     S
C868   C871    1.527   .     S
C871   H2294   1.111   1_554 S
H872   C2293   1.111   .     S
H873   C1345   1.111   .     S
H874   C1345   1.110   .     S
O875   C876    1.409   .     S
C876   H878    1.107   .     S
C876   H877    1.112   .     S
C876   H879    1.112   .     S
O880   C881    1.412   .     S
C881   H882    1.115   .     S
C881   H883    1.106   .     S
C881   H884    1.109   .     S
O885   C886    1.417   .     S
C886   C889    1.533   .     S
C886   H888    1.110   .     S
C886   H887    1.110   .     S
C889   H891    1.109   .     S
C889   C892    1.529   .     S
H890   C573    1.108   1_655 S
C892   H895    1.111   .     S
C892   H894    1.108   .     S
C892   H893    1.110   .     S
O896   C897    1.416   .     S
C897   H898    1.110   .     S
C897   H899    1.118   .     S
C897   C900    1.522   .     S
C900   H901    1.111   .     S
C900   C903    1.527   .     S
C900   H902    1.110   .     S
C903   H906    1.110   .     S
C903   H904    1.111   .     S
C903   H1379   1.109   .     S
O907   C908    1.420   .     S
C908   H909    1.109   .     S
C908   C911    1.540   .     S
C908   H910    1.106   .     S
C911   C914    1.525   .     S
C911   H596    1.109   1_655 S
C911   H597    1.108   1_655 S
C914   H917    1.109   .     S
C914   H915    1.108   .     S
C914   H600    1.110   1_655 S
O918   C919    1.420   .     S
C919   C922    1.534   .     S
C919   H920    1.111   .     S
C919   H921    1.114   .     S
C922   C925    1.521   .     S
H923   C606    1.109   1_655 S
H924   C606    1.105   1_655 S
C925   H928    1.110   .     S
C925   H926    1.109   .     S
H927   C609    1.110   1_655 S
O929   C930    1.413   .     S
C930   H933    1.112   .     S
C930   H931    1.115   .     S
C930   H932    1.110   .     S
O934   C935    1.412   .     S
C935   H936    1.111   .     S
C935   H937    1.107   .     S
C935   H938    1.104   .     S
O939   C940    1.412   .     S
C940   H943    1.102   .     S
C940   H942    1.105   .     S
C940   H941    1.112   .     S
O944   C945    1.409   .     S
C945   H947    1.112   .     S
C945   H948    1.106   .     S
C945   H946    1.109   .     S
C949   O981    1.302   .     A
C949   C958    1.444   .     S
C949   O984    1.297   .     A
C950   O983    1.302   .     A
C950   O982    1.298   .     A
C950   C957    1.445   .     S
C951   O1033   1.378   .     S
C951   C976    1.412   .     A
C951   C2399   1.389   1_554 S
C952   O1038   1.382   .     S
C952   C975    1.407   .     A
C952   C2400   1.397   .     S
C953   O1043   1.387   .     S
C953   C958    1.416   .     A
C953   C1271   1.382   1_455 S
C954   C957    1.406   .     A
C954   O1054   1.382   .     S
C954   C1114   1.378   .     S
C955   O1065   1.387   .     S
C955   C957    1.413   .     A
C955   C1111   1.382   .     S
C956   O1076   1.387   .     S
C956   C958    1.411   .     A
C956   C1270   1.378   1_455 S
C959   O1087   1.377   .     S
C959   N980    1.377   .     A
C960   O1092   1.387   .     S
C960   N979    1.376   .     A
C960   C13     1.435   1_565 S
C961   N980    1.375   .     A
C961   O1097   1.372   .     S
C962   N979    1.367   .     A
C962   O1102   1.379   .     S
C962   C11     1.430   1_565 S
C963   O985    1.298   .     A
C963   C968    1.432   .     S
C963   O988    1.296   .     A
C964   C967    1.428   .     S
C964   O987    1.292   .     A
C964   O986    1.299   .     A
C965   C975    1.401   .     A
C965   O991    1.384   .     S
C965   C967    1.397   .     A
C966   C976    1.406   .     A
C966   O996    1.389   .     S
C966   C968    1.402   .     A
C967   C969    1.396   .     A
C968   C970    1.406   .     A
C969   C971    1.401   .     A
C969   O1001   1.387   .     S
C970   C972    1.399   .     A
C970   O1006   1.390   .     S
C971   C977    1.405   .     A
C971   C973    1.414   .     A
C972   C974    1.412   .     A
C972   C978    1.405   .     A
C973   C975    1.417   .     A
C973   C2396   1.406   .     S
C974   C976    1.418   .     A
C974   C2395   1.406   1_554 S
C977   O1011   1.381   .     S
C977   C2373   1.389   .     S
C978   O1022   1.384   .     S
C978   C2374   1.397   1_554 S
N979   Zn989   2.039   .     S
N980   Zn990   2.039   .     S
O981   Zn989   2.027   .     S
O982   Zn990   2.027   .     S
O983   Zn989   2.020   .     S
O984   Zn990   2.020   .     S
O985   Zn989   2.002   .     S
O986   Zn990   2.002   .     S
O987   Zn989   2.029   .     S
O988   Zn990   2.029   .     S
O991   C992    1.411   .     S
C992   H993    1.109   .     S
C992   H995    1.103   .     S
C992   H994    1.109   .     S
O996   C997    1.413   .     S
C997   H999    1.103   .     S
C997   H1000   1.108   .     S
C997   H998    1.114   .     S
O1001  C1002   1.411   .     S
C1002  H1004   1.114   .     S
C1002  H1003   1.109   .     S
C1002  H1005   1.109   .     S
O1006  C1007   1.407   .     S
C1007  H1008   1.107   .     S
C1007  H1009   1.107   .     S
C1007  H1010   1.095   .     S
O1011  C1012   1.420   .     S
C1012  C1015   1.528   .     S
C1012  H1014   1.120   .     S
C1012  H1013   1.111   .     S
C1015  H1016   1.110   .     S
C1015  H2439   1.112   .     S
C1015  C70     1.527   1_565 S
H1017  C2437   1.112   1_554 S
C1018  H1021   1.111   .     S
C1018  H1020   1.106   .     S
C1018  H2441   1.111   .     S
H1019  C2440   1.111   1_554 S
O1022  C1023   1.423   .     S
C1023  H1024   1.107   .     S
C1023  C1026   1.540   .     S
C1023  H2447   1.110   1_554 S
H1025  C2445   1.110   .     S
C1026  H1028   1.111   .     S
C1026  H1027   1.107   .     S
C1026  C1029   1.527   .     S
C1029  H2452   1.111   1_554 S
H1030  C2451   1.111   .     S
H1031  C81     1.111   1_565 S
H1032  C81     1.110   1_565 S
O1033  C1034   1.409   .     S
C1034  H1036   1.107   .     S
C1034  H1035   1.112   .     S
C1034  H1037   1.112   .     S
O1038  C1039   1.412   .     S
C1039  H1040   1.115   .     S
C1039  H1041   1.106   .     S
C1039  H1042   1.109   .     S
O1043  C1044   1.417   .     S
C1044  C1047   1.533   .     S
C1044  H1046   1.110   .     S
C1044  H1045   1.110   .     S
C1047  H1049   1.109   .     S
C1047  C1050   1.529   .     S
C1047  H1364   1.108   1_455 S
H1048  C1205   1.108   .     S
C1050  H1053   1.111   .     S
C1050  H1052   1.108   .     S
C1050  H1051   1.110   .     S
O1054  C1055   1.416   .     S
C1055  H1056   1.110   .     S
C1055  H1057   1.118   .     S
C1055  C1058   1.522   .     S
C1058  H1059   1.111   .     S
C1058  C1061   1.527   .     S
C1058  H1060   1.110   .     S
C1061  H1064   1.110   .     S
C1061  H1062   1.111   .     S
C1061  H115    1.109   1_565 S
O1065  C1066   1.420   .     S
C1066  H1067   1.109   .     S
C1066  C1069   1.540   .     S
C1066  H1068   1.106   .     S
C1069  C1072   1.525   .     S
C1069  H1228   1.109   .     S
C1069  H1229   1.108   .     S
H1070  C1385   1.109   1_455 S
H1071  C1385   1.108   1_455 S
C1072  H1075   1.109   .     S
C1072  H1073   1.108   .     S
C1072  H1232   1.110   .     S
H1074  C1388   1.110   1_455 S
O1076  C1077   1.420   .     S
C1077  C1080   1.534   .     S
C1077  H1078   1.111   .     S
C1077  H1079   1.114   .     S
C1080  C1083   1.521   .     S
C1080  H1397   1.109   1_455 S
C1080  H1398   1.105   1_455 S
H1081  C1238   1.109   .     S
H1082  C1238   1.105   .     S
C1083  H1086   1.110   .     S
C1083  H1084   1.109   .     S
C1083  H1401   1.110   1_455 S
H1085  C1241   1.110   .     S
O1087  C1088   1.413   .     S
C1088  H1091   1.112   .     S
C1088  H1089   1.115   .     S
C1088  H1090   1.110   .     S
O1092  C1093   1.412   .     S
C1093  H1094   1.111   .     S
C1093  H1095   1.107   .     S
C1093  H1096   1.104   .     S
O1097  C1098   1.412   .     S
C1098  H1101   1.102   .     S
C1098  H1100   1.105   .     S
C1098  H1099   1.112   .     S
O1102  C1103   1.409   .     S
C1103  H1105   1.112   .     S
C1103  H1106   1.106   .     S
C1103  H1104   1.109   .     S
C1107  O1139   1.302   .     A
C1107  C1116   1.444   .     S
C1107  O1142   1.297   .     A
C1108  O1141   1.302   .     A
C1108  O1140   1.298   .     A
C1108  C1115   1.445   .     S
C1109  O1191   1.378   .     S
C1109  C1134   1.412   .     A
C1109  C2557   1.389   1_554 S
C1110  O1196   1.382   .     S
C1110  C1133   1.407   .     A
C1110  C2558   1.397   .     S
C1111  O1201   1.387   .     S
C1111  C1116   1.416   .     A
C1112  C1115   1.406   .     A
C1112  O1212   1.382   .     S
C1112  C1272   1.378   .     S
C1113  O1223   1.387   .     S
C1113  C1115   1.413   .     A
C1113  C1269   1.382   .     S
C1114  O1234   1.387   .     S
C1114  C1116   1.411   .     A
C1117  O1245   1.377   .     S
C1117  N1138   1.377   .     A
C1118  O1250   1.387   .     S
C1118  N1137   1.376   .     A
C1118  C171    1.435   1_565 S
C1119  N1138   1.375   .     A
C1119  O1255   1.372   .     S
C1120  N1137   1.367   .     A
C1120  O1260   1.379   .     S
C1120  C169    1.430   1_565 S
C1121  O1143   1.298   .     A
C1121  C1126   1.432   .     S
C1121  O1146   1.296   .     A
C1122  C1125   1.428   .     S
C1122  O1145   1.292   .     A
C1122  O1144   1.299   .     A
C1123  C1133   1.401   .     A
C1123  O1149   1.384   .     S
C1123  C1125   1.397   .     A
C1124  C1134   1.406   .     A
C1124  O1154   1.389   .     S
C1124  C1126   1.402   .     A
C1125  C1127   1.396   .     A
C1126  C1128   1.406   .     A
C1127  C1129   1.401   .     A
C1127  O1159   1.387   .     S
C1128  C1130   1.399   .     A
C1128  O1164   1.390   .     S
C1129  C1135   1.405   .     A
C1129  C1131   1.414   .     A
C1130  C1132   1.412   .     A
C1130  C1136   1.405   .     A
C1131  C1133   1.417   .     A
C1131  C2554   1.406   .     S
C1132  C1134   1.418   .     A
C1132  C2553   1.406   1_554 S
C1135  O1169   1.381   .     S
C1135  C2531   1.389   .     S
C1136  O1180   1.384   .     S
C1136  C2532   1.397   1_554 S
N1137  Zn1147  2.039   .     S
N1138  Zn1148  2.039   .     S
O1139  Zn1147  2.027   .     S
O1140  Zn1148  2.027   .     S
O1141  Zn1147  2.020   .     S
O1142  Zn1148  2.020   .     S
O1143  Zn1147  2.002   .     S
O1144  Zn1148  2.002   .     S
O1145  Zn1147  2.029   .     S
O1146  Zn1148  2.029   .     S
O1149  C1150   1.411   .     S
C1150  H1151   1.109   .     S
C1150  H1153   1.103   .     S
C1150  H1152   1.109   .     S
O1154  C1155   1.413   .     S
C1155  H1157   1.103   .     S
C1155  H1158   1.108   .     S
C1155  H1156   1.114   .     S
O1159  C1160   1.411   .     S
C1160  H1162   1.114   .     S
C1160  H1161   1.109   .     S
C1160  H1163   1.109   .     S
O1164  C1165   1.407   .     S
C1165  H1166   1.107   .     S
C1165  H1167   1.107   .     S
C1165  H1168   1.095   .     S
O1169  C1170   1.420   .     S
C1170  C1173   1.528   .     S
C1170  H1172   1.120   .     S
C1170  H1171   1.111   .     S
C1173  H1174   1.110   .     S
C1173  H2597   1.112   .     S
C1173  C228    1.527   1_565 S
H1175  C2595   1.112   1_554 S
C1176  H1179   1.111   .     S
C1176  H1178   1.106   .     S
C1176  H2599   1.111   .     S
H1177  C2598   1.111   1_554 S
O1180  C1181   1.423   .     S
C1181  H1182   1.107   .     S
C1181  C1184   1.540   .     S
C1181  H2605   1.110   1_554 S
H1183  C2603   1.110   .     S
C1184  H1186   1.111   .     S
C1184  H1185   1.107   .     S
C1184  C1187   1.527   .     S
C1187  H2610   1.111   1_554 S
H1188  C2609   1.111   .     S
H1189  C239    1.111   1_565 S
H1190  C239    1.110   1_565 S
O1191  C1192   1.409   .     S
C1192  H1194   1.107   .     S
C1192  H1193   1.112   .     S
C1192  H1195   1.112   .     S
O1196  C1197   1.412   .     S
C1197  H1198   1.115   .     S
C1197  H1199   1.106   .     S
C1197  H1200   1.109   .     S
O1201  C1202   1.417   .     S
C1202  C1205   1.533   .     S
C1202  H1204   1.110   .     S
C1202  H1203   1.110   .     S
C1205  H1207   1.109   .     S
C1205  C1208   1.529   .     S
H1206  C1363   1.108   .     S
C1208  H1211   1.111   .     S
C1208  H1210   1.108   .     S
C1208  H1209   1.110   .     S
O1212  C1213   1.416   .     S
C1213  H1214   1.110   .     S
C1213  H1215   1.118   .     S
C1213  C1216   1.522   .     S
C1216  H1217   1.111   .     S
C1216  C1219   1.527   .     S
C1216  H1218   1.110   .     S
C1219  H1222   1.110   .     S
C1219  H1220   1.111   .     S
C1219  H273    1.109   1_565 S
O1223  C1224   1.420   .     S
C1224  H1225   1.109   .     S
C1224  C1227   1.540   .     S
C1224  H1226   1.106   .     S
C1227  C1230   1.525   .     S
C1227  H1386   1.109   .     S
C1227  H1387   1.108   .     S
C1230  H1233   1.109   .     S
C1230  H1231   1.108   .     S
C1230  H1390   1.110   .     S
O1234  C1235   1.420   .     S
C1235  C1238   1.534   .     S
C1235  H1236   1.111   .     S
C1235  H1237   1.114   .     S
C1238  C1241   1.521   .     S
H1239  C1396   1.109   .     S
H1240  C1396   1.105   .     S
C1241  H1244   1.110   .     S
C1241  H1242   1.109   .     S
H1243  C1399   1.110   .     S
O1245  C1246   1.413   .     S
C1246  H1249   1.112   .     S
C1246  H1247   1.115   .     S
C1246  H1248   1.110   .     S
O1250  C1251   1.412   .     S
C1251  H1252   1.111   .     S
C1251  H1253   1.107   .     S
C1251  H1254   1.104   .     S
O1255  C1256   1.412   .     S
C1256  H1259   1.102   .     S
C1256  H1258   1.105   .     S
C1256  H1257   1.112   .     S
O1260  C1261   1.409   .     S
C1261  H1263   1.112   .     S
C1261  H1264   1.106   .     S
C1261  H1262   1.109   .     S
C1265  O1297   1.302   .     A
C1265  C1274   1.444   .     S
C1265  O1300   1.297   .     A
C1266  O1299   1.302   .     A
C1266  O1298   1.298   .     A
C1266  C1273   1.445   .     S
C1267  O1349   1.378   .     S
C1267  C1292   1.412   .     A
C1267  C2715   1.389   1_554 S
C1268  O1354   1.382   .     S
C1268  C1291   1.407   .     A
C1268  C2716   1.397   .     S
C1269  O1359   1.387   .     S
C1269  C1274   1.416   .     A
C1270  C1273   1.406   .     A
C1270  O1370   1.382   .     S
C1270  C956    1.378   1_655 S
C1271  O1381   1.387   .     S
C1271  C1273   1.413   .     A
C1271  C953    1.382   1_655 S
C1272  O1392   1.387   .     S
C1272  C1274   1.411   .     A
C1275  O1403   1.377   .     S
C1275  N1296   1.377   .     A
C1276  O1408   1.387   .     S
C1276  N1295   1.376   .     A
C1276  C329    1.435   1_565 S
C1277  N1296   1.375   .     A
C1277  O1413   1.372   .     S
C1278  N1295   1.367   .     A
C1278  O1418   1.379   .     S
C1278  C327    1.430   1_565 S
C1279  O1301   1.298   .     A
C1279  C1284   1.432   .     S
C1279  O1304   1.296   .     A
C1280  C1283   1.428   .     S
C1280  O1303   1.292   .     A
C1280  O1302   1.299   .     A
C1281  C1291   1.401   .     A
C1281  O1307   1.384   .     S
C1281  C1283   1.397   .     A
C1282  C1292   1.406   .     A
C1282  O1312   1.389   .     S
C1282  C1284   1.402   .     A
C1283  C1285   1.396   .     A
C1284  C1286   1.406   .     A
C1285  C1287   1.401   .     A
C1285  O1317   1.387   .     S
C1286  C1288   1.399   .     A
C1286  O1322   1.390   .     S
C1287  C1293   1.405   .     A
C1287  C1289   1.414   .     A
C1288  C1290   1.412   .     A
C1288  C1294   1.405   .     A
C1289  C1291   1.417   .     A
C1289  C2712   1.406   .     S
C1290  C1292   1.418   .     A
C1290  C2711   1.406   1_554 S
C1293  O1327   1.381   .     S
C1293  C2689   1.389   .     S
C1294  O1338   1.384   .     S
C1294  C2690   1.397   1_554 S
N1295  Zn1305  2.039   .     S
N1296  Zn1306  2.039   .     S
O1297  Zn1305  2.027   .     S
O1298  Zn1306  2.027   .     S
O1299  Zn1305  2.020   .     S
O1300  Zn1306  2.020   .     S
O1301  Zn1305  2.002   .     S
O1302  Zn1306  2.002   .     S
O1303  Zn1305  2.029   .     S
O1304  Zn1306  2.029   .     S
O1307  C1308   1.411   .     S
C1308  H1309   1.109   .     S
C1308  H1311   1.103   .     S
C1308  H1310   1.109   .     S
O1312  C1313   1.413   .     S
C1313  H1315   1.103   .     S
C1313  H1316   1.108   .     S
C1313  H1314   1.114   .     S
O1317  C1318   1.411   .     S
C1318  H1320   1.114   .     S
C1318  H1319   1.109   .     S
C1318  H1321   1.109   .     S
O1322  C1323   1.407   .     S
C1323  H1324   1.107   .     S
C1323  H1325   1.107   .     S
C1323  H1326   1.095   .     S
O1327  C1328   1.420   .     S
C1328  C1331   1.528   .     S
C1328  H1330   1.120   .     S
C1328  H1329   1.111   .     S
C1331  H1332   1.110   .     S
C1331  H2755   1.112   .     S
C1331  C386    1.527   1_565 S
H1333  C2753   1.112   1_554 S
C1334  H1337   1.111   .     S
C1334  H1336   1.106   .     S
C1334  H2757   1.111   .     S
H1335  C2756   1.111   1_554 S
O1338  C1339   1.423   .     S
C1339  H1340   1.107   .     S
C1339  C1342   1.540   .     S
C1339  H2763   1.110   1_554 S
H1341  C2761   1.110   .     S
C1342  H1344   1.111   .     S
C1342  H1343   1.107   .     S
C1342  C1345   1.527   .     S
C1345  H2768   1.111   1_554 S
H1346  C2767   1.111   .     S
H1347  C397    1.111   1_565 S
H1348  C397    1.110   1_565 S
O1349  C1350   1.409   .     S
C1350  H1352   1.107   .     S
C1350  H1351   1.112   .     S
C1350  H1353   1.112   .     S
O1354  C1355   1.412   .     S
C1355  H1356   1.115   .     S
C1355  H1357   1.106   .     S
C1355  H1358   1.109   .     S
O1359  C1360   1.417   .     S
C1360  C1363   1.533   .     S
C1360  H1362   1.110   .     S
C1360  H1361   1.110   .     S
C1363  H1365   1.109   .     S
C1363  C1366   1.529   .     S
H1364  C1047   1.108   1_655 S
C1366  H1369   1.111   .     S
C1366  H1368   1.108   .     S
C1366  H1367   1.110   .     S
O1370  C1371   1.416   .     S
C1371  H1372   1.110   .     S
C1371  H1373   1.118   .     S
C1371  C1374   1.522   .     S
C1374  H1375   1.111   .     S
C1374  C1377   1.527   .     S
C1374  H1376   1.110   .     S
C1377  H1380   1.110   .     S
C1377  H1378   1.111   .     S
C1377  H431    1.109   1_565 S
O1381  C1382   1.420   .     S
C1382  H1383   1.109   .     S
C1382  C1385   1.540   .     S
C1382  H1384   1.106   .     S
C1385  C1388   1.525   .     S
C1385  H1070   1.109   1_655 S
C1385  H1071   1.108   1_655 S
C1388  H1391   1.109   .     S
C1388  H1389   1.108   .     S
C1388  H1074   1.110   1_655 S
O1392  C1393   1.420   .     S
C1393  C1396   1.534   .     S
C1393  H1394   1.111   .     S
C1393  H1395   1.114   .     S
C1396  C1399   1.521   .     S
H1397  C1080   1.109   1_655 S
H1398  C1080   1.105   1_655 S
C1399  H1402   1.110   .     S
C1399  H1400   1.109   .     S
H1401  C1083   1.110   1_655 S
O1403  C1404   1.413   .     S
C1404  H1407   1.112   .     S
C1404  H1405   1.115   .     S
C1404  H1406   1.110   .     S
O1408  C1409   1.412   .     S
C1409  H1410   1.111   .     S
C1409  H1411   1.107   .     S
C1409  H1412   1.104   .     S
O1413  C1414   1.412   .     S
C1414  H1417   1.102   .     S
C1414  H1416   1.105   .     S
C1414  H1415   1.112   .     S
O1418  C1419   1.409   .     S
C1419  H1421   1.112   .     S
C1419  H1422   1.106   .     S
C1419  H1420   1.109   .     S
C1423  O1455   1.302   .     A
C1423  C1432   1.444   .     S
C1423  O1458   1.297   .     A
C1424  O1457   1.302   .     A
C1424  O1456   1.298   .     A
C1424  C1431   1.445   .     S
C1425  O1507   1.378   .     S
C1425  C1450   1.412   .     A
C1426  O1512   1.382   .     S
C1426  C1449   1.407   .     A
C1426  C30     1.397   1_556 S
C1427  O1517   1.387   .     S
C1427  C1432   1.416   .     A
C1427  C1745   1.382   1_455 S
C1428  C1431   1.406   .     A
C1428  O1528   1.382   .     S
C1428  C1588   1.378   .     S
C1429  O1539   1.387   .     S
C1429  C1431   1.413   .     A
C1429  C1585   1.382   .     S
C1430  O1550   1.387   .     S
C1430  C1432   1.411   .     A
C1430  C1744   1.378   1_455 S
C1433  O1561   1.377   .     S
C1433  N1454   1.377   .     A
C1433  C2384   1.430   1_545 S
C1434  O1566   1.387   .     S
C1434  N1453   1.376   .     A
C1434  C1909   1.435   .     S
C1435  N1454   1.375   .     A
C1435  O1571   1.372   .     S
C1435  C2382   1.435   1_545 S
C1436  N1453   1.367   .     A
C1436  O1576   1.379   .     S
C1436  C1907   1.430   .     S
C1437  O1459   1.298   .     A
C1437  C1442   1.432   .     S
C1437  O1462   1.296   .     A
C1438  C1441   1.428   .     S
C1438  O1461   1.292   .     A
C1438  O1460   1.299   .     A
C1439  C1449   1.401   .     A
C1439  O1465   1.384   .     S
C1439  C1441   1.397   .     A
C1440  C1450   1.406   .     A
C1440  O1470   1.389   .     S
C1440  C1442   1.402   .     A
C1441  C1443   1.396   .     A
C1442  C1444   1.406   .     A
C1443  C1445   1.401   .     A
C1443  O1475   1.387   .     S
C1444  C1446   1.399   .     A
C1444  O1480   1.390   .     S
C1445  C1451   1.405   .     A
C1445  C1447   1.414   .     A
C1446  C1448   1.412   .     A
C1446  C1452   1.405   .     A
C1447  C1449   1.417   .     A
C1447  C26     1.406   1_556 S
C1448  C1450   1.418   .     A
C1451  O1485   1.381   .     S
C1451  C3      1.389   1_556 S
C1452  O1496   1.384   .     S
N1453  Zn1463  2.039   .     S
N1454  Zn1464  2.039   .     S
O1455  Zn1463  2.027   .     S
O1456  Zn1464  2.027   .     S
O1457  Zn1463  2.020   .     S
O1458  Zn1464  2.020   .     S
O1459  Zn1463  2.002   .     S
O1460  Zn1464  2.002   .     S
O1461  Zn1463  2.029   .     S
O1462  Zn1464  2.029   .     S
O1465  C1466   1.411   .     S
C1466  H1467   1.109   .     S
C1466  H1469   1.103   .     S
C1466  H1468   1.109   .     S
O1470  C1471   1.413   .     S
C1471  H1473   1.103   .     S
C1471  H1474   1.108   .     S
C1471  H1472   1.114   .     S
O1475  C1476   1.411   .     S
C1476  H1478   1.114   .     S
C1476  H1477   1.109   .     S
C1476  H1479   1.109   .     S
O1480  C1481   1.407   .     S
C1481  H1482   1.107   .     S
C1481  H1483   1.107   .     S
C1481  H1484   1.095   .     S
O1485  C1486   1.420   .     S
C1486  C1489   1.528   .     S
C1486  H1488   1.120   .     S
C1486  H1487   1.111   .     S
C1489  H1490   1.110   .     S
C1489  H69     1.112   1_556 S
C1489  C1966   1.527   .     S
C1492  H1495   1.111   .     S
C1492  H1494   1.106   .     S
C1492  C2437   1.527   1_545 S
C1492  H71     1.111   1_556 S
O1496  C1497   1.423   .     S
C1497  H1498   1.107   .     S
C1497  C1500   1.540   .     S
H1499  C75     1.110   1_556 S
C1500  H1502   1.111   .     S
C1500  H1501   1.107   .     S
C1500  C1503   1.527   .     S
C1503  H2453   1.111   1_545 S
C1503  H2454   1.110   1_545 S
H1504  C81     1.111   1_556 S
H1505  C1977   1.111   .     S
H1506  C1977   1.110   .     S
O1507  C1508   1.409   .     S
C1508  H1510   1.107   .     S
C1508  H1509   1.112   .     S
C1508  H1511   1.112   .     S
O1512  C1513   1.412   .     S
C1513  H1514   1.115   .     S
C1513  H1515   1.106   .     S
C1513  H1516   1.109   .     S
O1517  C1518   1.417   .     S
C1518  C1521   1.533   .     S
C1518  H1520   1.110   .     S
C1518  H1519   1.110   .     S
C1521  H1523   1.109   .     S
C1521  C1524   1.529   .     S
C1521  H1838   1.108   1_455 S
H1522  C1679   1.108   .     S
C1524  H1527   1.111   .     S
C1524  H1526   1.108   .     S
C1524  H1525   1.110   .     S
O1528  C1529   1.416   .     S
C1529  H1530   1.110   .     S
C1529  H1531   1.118   .     S
C1529  C1532   1.522   .     S
C1532  H1533   1.111   .     S
C1532  C1535   1.527   .     S
C1532  H1534   1.110   .     S
C1535  H1538   1.110   .     S
C1535  H1536   1.111   .     S
C1535  H2011   1.109   .     S
H1537  C2483   1.109   1_545 S
O1539  C1540   1.420   .     S
C1540  H1541   1.109   .     S
C1540  C1543   1.540   .     S
C1540  H1542   1.106   .     S
C1543  C1546   1.525   .     S
C1543  H1702   1.109   .     S
C1543  H1703   1.108   .     S
H1544  C1859   1.109   1_455 S
H1545  C1859   1.108   1_455 S
C1546  H1549   1.109   .     S
C1546  H1547   1.108   .     S
C1546  H1706   1.110   .     S
H1548  C1862   1.110   1_455 S
O1550  C1551   1.420   .     S
C1551  C1554   1.534   .     S
C1551  H1552   1.111   .     S
C1551  H1553   1.114   .     S
C1554  C1557   1.521   .     S
C1554  H1871   1.109   1_455 S
C1554  H1872   1.105   1_455 S
H1555  C1712   1.109   .     S
H1556  C1712   1.105   .     S
C1557  H1560   1.110   .     S
C1557  H1558   1.109   .     S
C1557  H1875   1.110   1_455 S
H1559  C1715   1.110   .     S
O1561  C1562   1.413   .     S
C1562  H1565   1.112   .     S
C1562  H1563   1.115   .     S
C1562  H1564   1.110   .     S
O1566  C1567   1.412   .     S
C1567  H1568   1.111   .     S
C1567  H1569   1.107   .     S
C1567  H1570   1.104   .     S
O1571  C1572   1.412   .     S
C1572  H1575   1.102   .     S
C1572  H1574   1.105   .     S
C1572  H1573   1.112   .     S
O1576  C1577   1.409   .     S
C1577  H1579   1.112   .     S
C1577  H1580   1.106   .     S
C1577  H1578   1.109   .     S
C1581  O1613   1.302   .     A
C1581  C1590   1.444   .     S
C1581  O1616   1.297   .     A
C1582  O1615   1.302   .     A
C1582  O1614   1.298   .     A
C1582  C1589   1.445   .     S
C1583  O1665   1.378   .     S
C1583  C1608   1.412   .     A
C1584  O1670   1.382   .     S
C1584  C1607   1.407   .     A
C1584  C188    1.397   1_556 S
C1585  O1675   1.387   .     S
C1585  C1590   1.416   .     A
C1586  C1589   1.406   .     A
C1586  O1686   1.382   .     S
C1586  C1746   1.378   .     S
C1587  O1697   1.387   .     S
C1587  C1589   1.413   .     A
C1587  C1743   1.382   .     S
C1588  O1708   1.387   .     S
C1588  C1590   1.411   .     A
C1591  O1719   1.377   .     S
C1591  N1612   1.377   .     A
C1591  C2542   1.430   1_545 S
C1592  O1724   1.387   .     S
C1592  N1611   1.376   .     A
C1592  C2067   1.435   .     S
C1593  N1612   1.375   .     A
C1593  O1729   1.372   .     S
C1593  C2540   1.435   1_545 S
C1594  N1611   1.367   .     A
C1594  O1734   1.379   .     S
C1594  C2065   1.430   .     S
C1595  O1617   1.298   .     A
C1595  C1600   1.432   .     S
C1595  O1620   1.296   .     A
C1596  C1599   1.428   .     S
C1596  O1619   1.292   .     A
C1596  O1618   1.299   .     A
C1597  C1607   1.401   .     A
C1597  O1623   1.384   .     S
C1597  C1599   1.397   .     A
C1598  C1608   1.406   .     A
C1598  O1628   1.389   .     S
C1598  C1600   1.402   .     A
C1599  C1601   1.396   .     A
C1600  C1602   1.406   .     A
C1601  C1603   1.401   .     A
C1601  O1633   1.387   .     S
C1602  C1604   1.399   .     A
C1602  O1638   1.390   .     S
C1603  C1609   1.405   .     A
C1603  C1605   1.414   .     A
C1604  C1606   1.412   .     A
C1604  C1610   1.405   .     A
C1605  C1607   1.417   .     A
C1605  C184    1.406   1_556 S
C1606  C1608   1.418   .     A
C1609  O1643   1.381   .     S
C1609  C161    1.389   1_556 S
C1610  O1654   1.384   .     S
N1611  Zn1621  2.039   .     S
N1612  Zn1622  2.039   .     S
O1613  Zn1621  2.027   .     S
O1614  Zn1622  2.027   .     S
O1615  Zn1621  2.020   .     S
O1616  Zn1622  2.020   .     S
O1617  Zn1621  2.002   .     S
O1618  Zn1622  2.002   .     S
O1619  Zn1621  2.029   .     S
O1620  Zn1622  2.029   .     S
O1623  C1624   1.411   .     S
C1624  H1625   1.109   .     S
C1624  H1627   1.103   .     S
C1624  H1626   1.109   .     S
O1628  C1629   1.413   .     S
C1629  H1631   1.103   .     S
C1629  H1632   1.108   .     S
C1629  H1630   1.114   .     S
O1633  C1634   1.411   .     S
C1634  H1636   1.114   .     S
C1634  H1635   1.109   .     S
C1634  H1637   1.109   .     S
O1638  C1639   1.407   .     S
C1639  H1640   1.107   .     S
C1639  H1641   1.107   .     S
C1639  H1642   1.095   .     S
O1643  C1644   1.420   .     S
C1644  C1647   1.528   .     S
C1644  H1646   1.120   .     S
C1644  H1645   1.111   .     S
C1647  H1648   1.110   .     S
C1647  H227    1.112   1_556 S
C1647  C2124   1.527   .     S
C1650  H1653   1.111   .     S
C1650  H1652   1.106   .     S
C1650  C2595   1.527   1_545 S
C1650  H229    1.111   1_556 S
O1654  C1655   1.423   .     S
C1655  H1656   1.107   .     S
C1655  C1658   1.540   .     S
H1657  C233    1.110   1_556 S
C1658  H1660   1.111   .     S
C1658  H1659   1.107   .     S
C1658  C1661   1.527   .     S
C1661  H2611   1.111   1_545 S
C1661  H2612   1.110   1_545 S
H1662  C239    1.111   1_556 S
H1663  C2135   1.111   .     S
H1664  C2135   1.110   .     S
O1665  C1666   1.409   .     S
C1666  H1668   1.107   .     S
C1666  H1667   1.112   .     S
C1666  H1669   1.112   .     S
O1670  C1671   1.412   .     S
C1671  H1672   1.115   .     S
C1671  H1673   1.106   .     S
C1671  H1674   1.109   .     S
O1675  C1676   1.417   .     S
C1676  C1679   1.533   .     S
C1676  H1678   1.110   .     S
C1676  H1677   1.110   .     S
C1679  H1681   1.109   .     S
C1679  C1682   1.529   .     S
H1680  C1837   1.108   .     S
C1682  H1685   1.111   .     S
C1682  H1684   1.108   .     S
C1682  H1683   1.110   .     S
O1686  C1687   1.416   .     S
C1687  H1688   1.110   .     S
C1687  H1689   1.118   .     S
C1687  C1690   1.522   .     S
C1690  H1691   1.111   .     S
C1690  C1693   1.527   .     S
C1690  H1692   1.110   .     S
C1693  H1696   1.110   .     S
C1693  H1694   1.111   .     S
C1693  H2169   1.109   .     S
H1695  C2641   1.109   1_545 S
O1697  C1698   1.420   .     S
C1698  H1699   1.109   .     S
C1698  C1701   1.540   .     S
C1698  H1700   1.106   .     S
C1701  C1704   1.525   .     S
C1701  H1860   1.109   .     S
C1701  H1861   1.108   .     S
C1704  H1707   1.109   .     S
C1704  H1705   1.108   .     S
C1704  H1864   1.110   .     S
O1708  C1709   1.420   .     S
C1709  C1712   1.534   .     S
C1709  H1710   1.111   .     S
C1709  H1711   1.114   .     S
C1712  C1715   1.521   .     S
H1713  C1870   1.109   .     S
H1714  C1870   1.105   .     S
C1715  H1718   1.110   .     S
C1715  H1716   1.109   .     S
H1717  C1873   1.110   .     S
O1719  C1720   1.413   .     S
C1720  H1723   1.112   .     S
C1720  H1721   1.115   .     S
C1720  H1722   1.110   .     S
O1724  C1725   1.412   .     S
C1725  H1726   1.111   .     S
C1725  H1727   1.107   .     S
C1725  H1728   1.104   .     S
O1729  C1730   1.412   .     S
C1730  H1733   1.102   .     S
C1730  H1732   1.105   .     S
C1730  H1731   1.112   .     S
O1734  C1735   1.409   .     S
C1735  H1737   1.112   .     S
C1735  H1738   1.106   .     S
C1735  H1736   1.109   .     S
C1739  O1771   1.302   .     A
C1739  C1748   1.444   .     S
C1739  O1774   1.297   .     A
C1740  O1773   1.302   .     A
C1740  O1772   1.298   .     A
C1740  C1747   1.445   .     S
C1741  O1823   1.378   .     S
C1741  C1766   1.412   .     A
C1742  O1828   1.382   .     S
C1742  C1765   1.407   .     A
C1742  C346    1.397   1_556 S
C1743  O1833   1.387   .     S
C1743  C1748   1.416   .     A
C1744  C1747   1.406   .     A
C1744  O1844   1.382   .     S
C1744  C1430   1.378   1_655 S
C1745  O1855   1.387   .     S
C1745  C1747   1.413   .     A
C1745  C1427   1.382   1_655 S
C1746  O1866   1.387   .     S
C1746  C1748   1.411   .     A
C1749  O1877   1.377   .     S
C1749  N1770   1.377   .     A
C1749  C2700   1.430   1_545 S
C1750  O1882   1.387   .     S
C1750  N1769   1.376   .     A
C1750  C2225   1.435   .     S
C1751  N1770   1.375   .     A
C1751  O1887   1.372   .     S
C1751  C2698   1.435   1_545 S
C1752  N1769   1.367   .     A
C1752  O1892   1.379   .     S
C1752  C2223   1.430   .     S
C1753  O1775   1.298   .     A
C1753  C1758   1.432   .     S
C1753  O1778   1.296   .     A
C1754  C1757   1.428   .     S
C1754  O1777   1.292   .     A
C1754  O1776   1.299   .     A
C1755  C1765   1.401   .     A
C1755  O1781   1.384   .     S
C1755  C1757   1.397   .     A
C1756  C1766   1.406   .     A
C1756  O1786   1.389   .     S
C1756  C1758   1.402   .     A
C1757  C1759   1.396   .     A
C1758  C1760   1.406   .     A
C1759  C1761   1.401   .     A
C1759  O1791   1.387   .     S
C1760  C1762   1.399   .     A
C1760  O1796   1.390   .     S
C1761  C1767   1.405   .     A
C1761  C1763   1.414   .     A
C1762  C1764   1.412   .     A
C1762  C1768   1.405   .     A
C1763  C1765   1.417   .     A
C1763  C342    1.406   1_556 S
C1764  C1766   1.418   .     A
C1767  O1801   1.381   .     S
C1767  C319    1.389   1_556 S
C1768  O1812   1.384   .     S
N1769  Zn1779  2.039   .     S
N1770  Zn1780  2.039   .     S
O1771  Zn1779  2.027   .     S
O1772  Zn1780  2.027   .     S
O1773  Zn1779  2.020   .     S
O1774  Zn1780  2.020   .     S
O1775  Zn1779  2.002   .     S
O1776  Zn1780  2.002   .     S
O1777  Zn1779  2.029   .     S
O1778  Zn1780  2.029   .     S
O1781  C1782   1.411   .     S
C1782  H1783   1.109   .     S
C1782  H1785   1.103   .     S
C1782  H1784   1.109   .     S
O1786  C1787   1.413   .     S
C1787  H1789   1.103   .     S
C1787  H1790   1.108   .     S
C1787  H1788   1.114   .     S
O1791  C1792   1.411   .     S
C1792  H1794   1.114   .     S
C1792  H1793   1.109   .     S
C1792  H1795   1.109   .     S
O1796  C1797   1.407   .     S
C1797  H1798   1.107   .     S
C1797  H1799   1.107   .     S
C1797  H1800   1.095   .     S
O1801  C1802   1.420   .     S
C1802  C1805   1.528   .     S
C1802  H1804   1.120   .     S
C1802  H1803   1.111   .     S
C1805  H1806   1.110   .     S
C1805  H385    1.112   1_556 S
C1805  C2282   1.527   .     S
C1808  H1811   1.111   .     S
C1808  H1810   1.106   .     S
C1808  C2753   1.527   1_545 S
C1808  H387    1.111   1_556 S
O1812  C1813   1.423   .     S
C1813  H1814   1.107   .     S
C1813  C1816   1.540   .     S
H1815  C391    1.110   1_556 S
C1816  H1818   1.111   .     S
C1816  H1817   1.107   .     S
C1816  C1819   1.527   .     S
C1819  H2769   1.111   1_545 S
C1819  H2770   1.110   1_545 S
H1820  C397    1.111   1_556 S
H1821  C2293   1.111   .     S
H1822  C2293   1.110   .     S
O1823  C1824   1.409   .     S
C1824  H1826   1.107   .     S
C1824  H1825   1.112   .     S
C1824  H1827   1.112   .     S
O1828  C1829   1.412   .     S
C1829  H1830   1.115   .     S
C1829  H1831   1.106   .     S
C1829  H1832   1.109   .     S
O1833  C1834   1.417   .     S
C1834  C1837   1.533   .     S
C1834  H1836   1.110   .     S
C1834  H1835   1.110   .     S
C1837  H1839   1.109   .     S
C1837  C1840   1.529   .     S
H1838  C1521   1.108   1_655 S
C1840  H1843   1.111   .     S
C1840  H1842   1.108   .     S
C1840  H1841   1.110   .     S
O1844  C1845   1.416   .     S
C1845  H1846   1.110   .     S
C1845  H1847   1.118   .     S
C1845  C1848   1.522   .     S
C1848  H1849   1.111   .     S
C1848  C1851   1.527   .     S
C1848  H1850   1.110   .     S
C1851  H1854   1.110   .     S
C1851  H1852   1.111   .     S
C1851  H2327   1.109   .     S
H1853  C2799   1.109   1_545 S
O1855  C1856   1.420   .     S
C1856  H1857   1.109   .     S
C1856  C1859   1.540   .     S
C1856  H1858   1.106   .     S
C1859  C1862   1.525   .     S
C1859  H1544   1.109   1_655 S
C1859  H1545   1.108   1_655 S
C1862  H1865   1.109   .     S
C1862  H1863   1.108   .     S
C1862  H1548   1.110   1_655 S
O1866  C1867   1.420   .     S
C1867  C1870   1.534   .     S
C1867  H1868   1.111   .     S
C1867  H1869   1.114   .     S
C1870  C1873   1.521   .     S
H1871  C1554   1.109   1_655 S
H1872  C1554   1.105   1_655 S
C1873  H1876   1.110   .     S
C1873  H1874   1.109   .     S
H1875  C1557   1.110   1_655 S
O1877  C1878   1.413   .     S
C1878  H1881   1.112   .     S
C1878  H1879   1.115   .     S
C1878  H1880   1.110   .     S
O1882  C1883   1.412   .     S
C1883  H1884   1.111   .     S
C1883  H1885   1.107   .     S
C1883  H1886   1.104   .     S
O1887  C1888   1.412   .     S
C1888  H1891   1.102   .     S
C1888  H1890   1.105   .     S
C1888  H1889   1.112   .     S
O1892  C1893   1.409   .     S
C1893  H1895   1.112   .     S
C1893  H1896   1.106   .     S
C1893  H1894   1.109   .     S
C1897  O1929   1.302   .     A
C1897  C1906   1.444   .     S
C1897  O1932   1.297   .     A
C1898  O1931   1.302   .     A
C1898  O1930   1.298   .     A
C1898  C1905   1.445   .     S
C1899  O1981   1.378   .     S
C1899  C1924   1.412   .     A
C1900  O1986   1.382   .     S
C1900  C1923   1.407   .     A
C1900  C504    1.397   1_556 S
C1901  O1991   1.387   .     S
C1901  C1906   1.416   .     A
C1901  C2219   1.382   1_455 S
C1902  C1905   1.406   .     A
C1902  O2002   1.382   .     S
C1902  C2062   1.378   .     S
C1903  O2013   1.387   .     S
C1903  C1905   1.413   .     A
C1903  C2059   1.382   .     S
C1904  O2024   1.387   .     S
C1904  C1906   1.411   .     A
C1904  C2218   1.378   1_455 S
C1907  O2035   1.377   .     S
C1907  N1928   1.377   .     A
C1908  O2040   1.387   .     S
C1908  N1927   1.376   .     A
C1908  C2383   1.435   .     S
C1909  N1928   1.375   .     A
C1909  O2045   1.372   .     S
C1910  N1927   1.367   .     A
C1910  O2050   1.379   .     S
C1910  C2381   1.430   .     S
C1911  O1933   1.298   .     A
C1911  C1916   1.432   .     S
C1911  O1936   1.296   .     A
C1912  C1915   1.428   .     S
C1912  O1935   1.292   .     A
C1912  O1934   1.299   .     A
C1913  C1923   1.401   .     A
C1913  O1939   1.384   .     S
C1913  C1915   1.397   .     A
C1914  C1924   1.406   .     A
C1914  O1944   1.389   .     S
C1914  C1916   1.402   .     A
C1915  C1917   1.396   .     A
C1916  C1918   1.406   .     A
C1917  C1919   1.401   .     A
C1917  O1949   1.387   .     S
C1918  C1920   1.399   .     A
C1918  O1954   1.390   .     S
C1919  C1925   1.405   .     A
C1919  C1921   1.414   .     A
C1920  C1922   1.412   .     A
C1920  C1926   1.405   .     A
C1921  C1923   1.417   .     A
C1921  C500    1.406   1_556 S
C1922  C1924   1.418   .     A
C1925  O1959   1.381   .     S
C1925  C477    1.389   1_556 S
C1926  O1970   1.384   .     S
N1927  Zn1937  2.039   .     S
N1928  Zn1938  2.039   .     S
O1929  Zn1937  2.027   .     S
O1930  Zn1938  2.027   .     S
O1931  Zn1937  2.020   .     S
O1932  Zn1938  2.020   .     S
O1933  Zn1937  2.002   .     S
O1934  Zn1938  2.002   .     S
O1935  Zn1937  2.029   .     S
O1936  Zn1938  2.029   .     S
O1939  C1940   1.411   .     S
C1940  H1941   1.109   .     S
C1940  H1943   1.103   .     S
C1940  H1942   1.109   .     S
O1944  C1945   1.413   .     S
C1945  H1947   1.103   .     S
C1945  H1948   1.108   .     S
C1945  H1946   1.114   .     S
O1949  C1950   1.411   .     S
C1950  H1952   1.114   .     S
C1950  H1951   1.109   .     S
C1950  H1953   1.109   .     S
O1954  C1955   1.407   .     S
C1955  H1956   1.107   .     S
C1955  H1957   1.107   .     S
C1955  H1958   1.095   .     S
O1959  C1960   1.420   .     S
C1960  C1963   1.528   .     S
C1960  H1962   1.120   .     S
C1960  H1961   1.111   .     S
C1963  H1964   1.110   .     S
C1963  H543    1.112   1_556 S
C1963  C2440   1.527   .     S
C1966  H1969   1.111   .     S
C1966  H1968   1.106   .     S
C1966  H545    1.111   1_556 S
O1970  C1971   1.423   .     S
C1971  H1972   1.107   .     S
C1971  C1974   1.540   .     S
H1973  C549    1.110   1_556 S
C1974  H1976   1.111   .     S
C1974  H1975   1.107   .     S
C1974  C1977   1.527   .     S
H1978  C555    1.111   1_556 S
H1979  C2451   1.111   .     S
H1980  C2451   1.110   .     S
O1981  C1982   1.409   .     S
C1982  H1984   1.107   .     S
C1982  H1983   1.112   .     S
C1982  H1985   1.112   .     S
O1986  C1987   1.412   .     S
C1987  H1988   1.115   .     S
C1987  H1989   1.106   .     S
C1987  H1990   1.109   .     S
O1991  C1992   1.417   .     S
C1992  C1995   1.533   .     S
C1992  H1994   1.110   .     S
C1992  H1993   1.110   .     S
C1995  H1997   1.109   .     S
C1995  C1998   1.529   .     S
C1995  H2312   1.108   1_455 S
H1996  C2153   1.108   .     S
C1998  H2001   1.111   .     S
C1998  H2000   1.108   .     S
C1998  H1999   1.110   .     S
O2002  C2003   1.416   .     S
C2003  H2004   1.110   .     S
C2003  H2005   1.118   .     S
C2003  C2006   1.522   .     S
C2006  H2007   1.111   .     S
C2006  C2009   1.527   .     S
C2006  H2008   1.110   .     S
C2009  H2012   1.110   .     S
C2009  H2010   1.111   .     S
C2009  H2485   1.109   .     S
O2013  C2014   1.420   .     S
C2014  H2015   1.109   .     S
C2014  C2017   1.540   .     S
C2014  H2016   1.106   .     S
C2017  C2020   1.525   .     S
C2017  H2176   1.109   .     S
C2017  H2177   1.108   .     S
H2018  C2333   1.109   1_455 S
H2019  C2333   1.108   1_455 S
C2020  H2023   1.109   .     S
C2020  H2021   1.108   .     S
C2020  H2180   1.110   .     S
H2022  C2336   1.110   1_455 S
O2024  C2025   1.420   .     S
C2025  C2028   1.534   .     S
C2025  H2026   1.111   .     S
C2025  H2027   1.114   .     S
C2028  C2031   1.521   .     S
C2028  H2345   1.109   1_455 S
C2028  H2346   1.105   1_455 S
H2029  C2186   1.109   .     S
H2030  C2186   1.105   .     S
C2031  H2034   1.110   .     S
C2031  H2032   1.109   .     S
C2031  H2349   1.110   1_455 S
H2033  C2189   1.110   .     S
O2035  C2036   1.413   .     S
C2036  H2039   1.112   .     S
C2036  H2037   1.115   .     S
C2036  H2038   1.110   .     S
O2040  C2041   1.412   .     S
C2041  H2042   1.111   .     S
C2041  H2043   1.107   .     S
C2041  H2044   1.104   .     S
O2045  C2046   1.412   .     S
C2046  H2049   1.102   .     S
C2046  H2048   1.105   .     S
C2046  H2047   1.112   .     S
O2050  C2051   1.409   .     S
C2051  H2053   1.112   .     S
C2051  H2054   1.106   .     S
C2051  H2052   1.109   .     S
C2055  O2087   1.302   .     A
C2055  C2064   1.444   .     S
C2055  O2090   1.297   .     A
C2056  O2089   1.302   .     A
C2056  O2088   1.298   .     A
C2056  C2063   1.445   .     S
C2057  O2139   1.378   .     S
C2057  C2082   1.412   .     A
C2058  O2144   1.382   .     S
C2058  C2081   1.407   .     A
C2058  C662    1.397   1_556 S
C2059  O2149   1.387   .     S
C2059  C2064   1.416   .     A
C2060  C2063   1.406   .     A
C2060  O2160   1.382   .     S
C2060  C2220   1.378   .     S
C2061  O2171   1.387   .     S
C2061  C2063   1.413   .     A
C2061  C2217   1.382   .     S
C2062  O2182   1.387   .     S
C2062  C2064   1.411   .     A
C2065  O2193   1.377   .     S
C2065  N2086   1.377   .     A
C2066  O2198   1.387   .     S
C2066  N2085   1.376   .     A
C2066  C2541   1.435   .     S
C2067  N2086   1.375   .     A
C2067  O2203   1.372   .     S
C2068  N2085   1.367   .     A
C2068  O2208   1.379   .     S
C2068  C2539   1.430   .     S
C2069  O2091   1.298   .     A
C2069  C2074   1.432   .     S
C2069  O2094   1.296   .     A
C2070  C2073   1.428   .     S
C2070  O2093   1.292   .     A
C2070  O2092   1.299   .     A
C2071  C2081   1.401   .     A
C2071  O2097   1.384   .     S
C2071  C2073   1.397   .     A
C2072  C2082   1.406   .     A
C2072  O2102   1.389   .     S
C2072  C2074   1.402   .     A
C2073  C2075   1.396   .     A
C2074  C2076   1.406   .     A
C2075  C2077   1.401   .     A
C2075  O2107   1.387   .     S
C2076  C2078   1.399   .     A
C2076  O2112   1.390   .     S
C2077  C2083   1.405   .     A
C2077  C2079   1.414   .     A
C2078  C2080   1.412   .     A
C2078  C2084   1.405   .     A
C2079  C2081   1.417   .     A
C2079  C658    1.406   1_556 S
C2080  C2082   1.418   .     A
C2083  O2117   1.381   .     S
C2083  C635    1.389   1_556 S
C2084  O2128   1.384   .     S
N2085  Zn2095  2.039   .     S
N2086  Zn2096  2.039   .     S
O2087  Zn2095  2.027   .     S
O2088  Zn2096  2.027   .     S
O2089  Zn2095  2.020   .     S
O2090  Zn2096  2.020   .     S
O2091  Zn2095  2.002   .     S
O2092  Zn2096  2.002   .     S
O2093  Zn2095  2.029   .     S
O2094  Zn2096  2.029   .     S
O2097  C2098   1.411   .     S
C2098  H2099   1.109   .     S
C2098  H2101   1.103   .     S
C2098  H2100   1.109   .     S
O2102  C2103   1.413   .     S
C2103  H2105   1.103   .     S
C2103  H2106   1.108   .     S
C2103  H2104   1.114   .     S
O2107  C2108   1.411   .     S
C2108  H2110   1.114   .     S
C2108  H2109   1.109   .     S
C2108  H2111   1.109   .     S
O2112  C2113   1.407   .     S
C2113  H2114   1.107   .     S
C2113  H2115   1.107   .     S
C2113  H2116   1.095   .     S
O2117  C2118   1.420   .     S
C2118  C2121   1.528   .     S
C2118  H2120   1.120   .     S
C2118  H2119   1.111   .     S
C2121  H2122   1.110   .     S
C2121  H701    1.112   1_556 S
C2121  C2598   1.527   .     S
C2124  H2127   1.111   .     S
C2124  H2126   1.106   .     S
C2124  H703    1.111   1_556 S
O2128  C2129   1.423   .     S
C2129  H2130   1.107   .     S
C2129  C2132   1.540   .     S
H2131  C707    1.110   1_556 S
C2132  H2134   1.111   .     S
C2132  H2133   1.107   .     S
C2132  C2135   1.527   .     S
H2136  C713    1.111   1_556 S
H2137  C2609   1.111   .     S
H2138  C2609   1.110   .     S
O2139  C2140   1.409   .     S
C2140  H2142   1.107   .     S
C2140  H2141   1.112   .     S
C2140  H2143   1.112   .     S
O2144  C2145   1.412   .     S
C2145  H2146   1.115   .     S
C2145  H2147   1.106   .     S
C2145  H2148   1.109   .     S
O2149  C2150   1.417   .     S
C2150  C2153   1.533   .     S
C2150  H2152   1.110   .     S
C2150  H2151   1.110   .     S
C2153  H2155   1.109   .     S
C2153  C2156   1.529   .     S
H2154  C2311   1.108   .     S
C2156  H2159   1.111   .     S
C2156  H2158   1.108   .     S
C2156  H2157   1.110   .     S
O2160  C2161   1.416   .     S
C2161  H2162   1.110   .     S
C2161  H2163   1.118   .     S
C2161  C2164   1.522   .     S
C2164  H2165   1.111   .     S
C2164  C2167   1.527   .     S
C2164  H2166   1.110   .     S
C2167  H2170   1.110   .     S
C2167  H2168   1.111   .     S
C2167  H2643   1.109   .     S
O2171  C2172   1.420   .     S
C2172  H2173   1.109   .     S
C2172  C2175   1.540   .     S
C2172  H2174   1.106   .     S
C2175  C2178   1.525   .     S
C2175  H2334   1.109   .     S
C2175  H2335   1.108   .     S
C2178  H2181   1.109   .     S
C2178  H2179   1.108   .     S
C2178  H2338   1.110   .     S
O2182  C2183   1.420   .     S
C2183  C2186   1.534   .     S
C2183  H2184   1.111   .     S
C2183  H2185   1.114   .     S
C2186  C2189   1.521   .     S
H2187  C2344   1.109   .     S
H2188  C2344   1.105   .     S
C2189  H2192   1.110   .     S
C2189  H2190   1.109   .     S
H2191  C2347   1.110   .     S
O2193  C2194   1.413   .     S
C2194  H2197   1.112   .     S
C2194  H2195   1.115   .     S
C2194  H2196   1.110   .     S
O2198  C2199   1.412   .     S
C2199  H2200   1.111   .     S
C2199  H2201   1.107   .     S
C2199  H2202   1.104   .     S
O2203  C2204   1.412   .     S
C2204  H2207   1.102   .     S
C2204  H2206   1.105   .     S
C2204  H2205   1.112   .     S
O2208  C2209   1.409   .     S
C2209  H2211   1.112   .     S
C2209  H2212   1.106   .     S
C2209  H2210   1.109   .     S
C2213  O2245   1.302   .     A
C2213  C2222   1.444   .     S
C2213  O2248   1.297   .     A
C2214  O2247   1.302   .     A
C2214  O2246   1.298   .     A
C2214  C2221   1.445   .     S
C2215  O2297   1.378   .     S
C2215  C2240   1.412   .     A
C2216  O2302   1.382   .     S
C2216  C2239   1.407   .     A
C2216  C820    1.397   1_556 S
C2217  O2307   1.387   .     S
C2217  C2222   1.416   .     A
C2218  C2221   1.406   .     A
C2218  O2318   1.382   .     S
C2218  C1904   1.378   1_655 S
C2219  O2329   1.387   .     S
C2219  C2221   1.413   .     A
C2219  C1901   1.382   1_655 S
C2220  O2340   1.387   .     S
C2220  C2222   1.411   .     A
C2223  O2351   1.377   .     S
C2223  N2244   1.377   .     A
C2224  O2356   1.387   .     S
C2224  N2243   1.376   .     A
C2224  C2699   1.435   .     S
C2225  N2244   1.375   .     A
C2225  O2361   1.372   .     S
C2226  N2243   1.367   .     A
C2226  O2366   1.379   .     S
C2226  C2697   1.430   .     S
C2227  O2249   1.298   .     A
C2227  C2232   1.432   .     S
C2227  O2252   1.296   .     A
C2228  C2231   1.428   .     S
C2228  O2251   1.292   .     A
C2228  O2250   1.299   .     A
C2229  C2239   1.401   .     A
C2229  O2255   1.384   .     S
C2229  C2231   1.397   .     A
C2230  C2240   1.406   .     A
C2230  O2260   1.389   .     S
C2230  C2232   1.402   .     A
C2231  C2233   1.396   .     A
C2232  C2234   1.406   .     A
C2233  C2235   1.401   .     A
C2233  O2265   1.387   .     S
C2234  C2236   1.399   .     A
C2234  O2270   1.390   .     S
C2235  C2241   1.405   .     A
C2235  C2237   1.414   .     A
C2236  C2238   1.412   .     A
C2236  C2242   1.405   .     A
C2237  C2239   1.417   .     A
C2237  C816    1.406   1_556 S
C2238  C2240   1.418   .     A
C2241  O2275   1.381   .     S
C2241  C793    1.389   1_556 S
C2242  O2286   1.384   .     S
N2243  Zn2253  2.039   .     S
N2244  Zn2254  2.039   .     S
O2245  Zn2253  2.027   .     S
O2246  Zn2254  2.027   .     S
O2247  Zn2253  2.020   .     S
O2248  Zn2254  2.020   .     S
O2249  Zn2253  2.002   .     S
O2250  Zn2254  2.002   .     S
O2251  Zn2253  2.029   .     S
O2252  Zn2254  2.029   .     S
O2255  C2256   1.411   .     S
C2256  H2257   1.109   .     S
C2256  H2259   1.103   .     S
C2256  H2258   1.109   .     S
O2260  C2261   1.413   .     S
C2261  H2263   1.103   .     S
C2261  H2264   1.108   .     S
C2261  H2262   1.114   .     S
O2265  C2266   1.411   .     S
C2266  H2268   1.114   .     S
C2266  H2267   1.109   .     S
C2266  H2269   1.109   .     S
O2270  C2271   1.407   .     S
C2271  H2272   1.107   .     S
C2271  H2273   1.107   .     S
C2271  H2274   1.095   .     S
O2275  C2276   1.420   .     S
C2276  C2279   1.528   .     S
C2276  H2278   1.120   .     S
C2276  H2277   1.111   .     S
C2279  H2280   1.110   .     S
C2279  H859    1.112   1_556 S
C2279  C2756   1.527   .     S
C2282  H2285   1.111   .     S
C2282  H2284   1.106   .     S
C2282  H861    1.111   1_556 S
O2286  C2287   1.423   .     S
C2287  H2288   1.107   .     S
C2287  C2290   1.540   .     S
H2289  C865    1.110   1_556 S
C2290  H2292   1.111   .     S
C2290  H2291   1.107   .     S
C2290  C2293   1.527   .     S
H2294  C871    1.111   1_556 S
H2295  C2767   1.111   .     S
H2296  C2767   1.110   .     S
O2297  C2298   1.409   .     S
C2298  H2300   1.107   .     S
C2298  H2299   1.112   .     S
C2298  H2301   1.112   .     S
O2302  C2303   1.412   .     S
C2303  H2304   1.115   .     S
C2303  H2305   1.106   .     S
C2303  H2306   1.109   .     S
O2307  C2308   1.417   .     S
C2308  C2311   1.533   .     S
C2308  H2310   1.110   .     S
C2308  H2309   1.110   .     S
C2311  H2313   1.109   .     S
C2311  C2314   1.529   .     S
H2312  C1995   1.108   1_655 S
C2314  H2317   1.111   .     S
C2314  H2316   1.108   .     S
C2314  H2315   1.110   .     S
O2318  C2319   1.416   .     S
C2319  H2320   1.110   .     S
C2319  H2321   1.118   .     S
C2319  C2322   1.522   .     S
C2322  H2323   1.111   .     S
C2322  C2325   1.527   .     S
C2322  H2324   1.110   .     S
C2325  H2328   1.110   .     S
C2325  H2326   1.111   .     S
C2325  H2801   1.109   .     S
O2329  C2330   1.420   .     S
C2330  H2331   1.109   .     S
C2330  C2333   1.540   .     S
C2330  H2332   1.106   .     S
C2333  C2336   1.525   .     S
C2333  H2018   1.109   1_655 S
C2333  H2019   1.108   1_655 S
C2336  H2339   1.109   .     S
C2336  H2337   1.108   .     S
C2336  H2022   1.110   1_655 S
O2340  C2341   1.420   .     S
C2341  C2344   1.534   .     S
C2341  H2342   1.111   .     S
C2341  H2343   1.114   .     S
C2344  C2347   1.521   .     S
H2345  C2028   1.109   1_655 S
H2346  C2028   1.105   1_655 S
C2347  H2350   1.110   .     S
C2347  H2348   1.109   .     S
H2349  C2031   1.110   1_655 S
O2351  C2352   1.413   .     S
C2352  H2355   1.112   .     S
C2352  H2353   1.115   .     S
C2352  H2354   1.110   .     S
O2356  C2357   1.412   .     S
C2357  H2358   1.111   .     S
C2357  H2359   1.107   .     S
C2357  H2360   1.104   .     S
O2361  C2362   1.412   .     S
C2362  H2365   1.102   .     S
C2362  H2364   1.105   .     S
C2362  H2363   1.112   .     S
O2366  C2367   1.409   .     S
C2367  H2369   1.112   .     S
C2367  H2370   1.106   .     S
C2367  H2368   1.109   .     S
C2371  O2403   1.302   .     A
C2371  C2380   1.444   .     S
C2371  O2406   1.297   .     A
C2372  O2405   1.302   .     A
C2372  O2404   1.298   .     A
C2372  C2379   1.445   .     S
C2373  O2455   1.378   .     S
C2373  C2398   1.412   .     A
C2374  O2460   1.382   .     S
C2374  C2397   1.407   .     A
C2374  C978    1.397   1_556 S
C2375  O2465   1.387   .     S
C2375  C2380   1.416   .     A
C2375  C2693   1.382   1_455 S
C2376  C2379   1.406   .     A
C2376  O2476   1.382   .     S
C2376  C2536   1.378   .     S
C2377  O2487   1.387   .     S
C2377  C2379   1.413   .     A
C2377  C2533   1.382   .     S
C2378  O2498   1.387   .     S
C2378  C2380   1.411   .     A
C2378  C2692   1.378   1_455 S
C2381  O2509   1.377   .     S
C2381  N2402   1.377   .     A
C2382  O2514   1.387   .     S
C2382  N2401   1.376   .     A
C2382  C1435   1.435   1_565 S
C2383  N2402   1.375   .     A
C2383  O2519   1.372   .     S
C2384  N2401   1.367   .     A
C2384  O2524   1.379   .     S
C2384  C1433   1.430   1_565 S
C2385  O2407   1.298   .     A
C2385  C2390   1.432   .     S
C2385  O2410   1.296   .     A
C2386  C2389   1.428   .     S
C2386  O2409   1.292   .     A
C2386  O2408   1.299   .     A
C2387  C2397   1.401   .     A
C2387  O2413   1.384   .     S
C2387  C2389   1.397   .     A
C2388  C2398   1.406   .     A
C2388  O2418   1.389   .     S
C2388  C2390   1.402   .     A
C2389  C2391   1.396   .     A
C2390  C2392   1.406   .     A
C2391  C2393   1.401   .     A
C2391  O2423   1.387   .     S
C2392  C2394   1.399   .     A
C2392  O2428   1.390   .     S
C2393  C2399   1.405   .     A
C2393  C2395   1.414   .     A
C2394  C2396   1.412   .     A
C2394  C2400   1.405   .     A
C2395  C2397   1.417   .     A
C2395  C974    1.406   1_556 S
C2396  C2398   1.418   .     A
C2399  O2433   1.381   .     S
C2399  C951    1.389   1_556 S
C2400  O2444   1.384   .     S
N2401  Zn2411  2.039   .     S
N2402  Zn2412  2.039   .     S
O2403  Zn2411  2.027   .     S
O2404  Zn2412  2.027   .     S
O2405  Zn2411  2.020   .     S
O2406  Zn2412  2.020   .     S
O2407  Zn2411  2.002   .     S
O2408  Zn2412  2.002   .     S
O2409  Zn2411  2.029   .     S
O2410  Zn2412  2.029   .     S
O2413  C2414   1.411   .     S
C2414  H2415   1.109   .     S
C2414  H2417   1.103   .     S
C2414  H2416   1.109   .     S
O2418  C2419   1.413   .     S
C2419  H2421   1.103   .     S
C2419  H2422   1.108   .     S
C2419  H2420   1.114   .     S
O2423  C2424   1.411   .     S
C2424  H2426   1.114   .     S
C2424  H2425   1.109   .     S
C2424  H2427   1.109   .     S
O2428  C2429   1.407   .     S
C2429  H2430   1.107   .     S
C2429  H2431   1.107   .     S
C2429  H2432   1.095   .     S
O2433  C2434   1.420   .     S
C2434  C2437   1.528   .     S
C2434  H2436   1.120   .     S
C2434  H2435   1.111   .     S
C2437  H2438   1.110   .     S
C2437  H1017   1.112   1_556 S
C2437  C1492   1.527   1_565 S
C2440  H2443   1.111   .     S
C2440  H2442   1.106   .     S
C2440  H1019   1.111   1_556 S
O2444  C2445   1.423   .     S
C2445  H2446   1.107   .     S
C2445  C2448   1.540   .     S
H2447  C1023   1.110   1_556 S
C2448  H2450   1.111   .     S
C2448  H2449   1.107   .     S
C2448  C2451   1.527   .     S
H2452  C1029   1.111   1_556 S
H2453  C1503   1.111   1_565 S
H2454  C1503   1.110   1_565 S
O2455  C2456   1.409   .     S
C2456  H2458   1.107   .     S
C2456  H2457   1.112   .     S
C2456  H2459   1.112   .     S
O2460  C2461   1.412   .     S
C2461  H2462   1.115   .     S
C2461  H2463   1.106   .     S
C2461  H2464   1.109   .     S
O2465  C2466   1.417   .     S
C2466  C2469   1.533   .     S
C2466  H2468   1.110   .     S
C2466  H2467   1.110   .     S
C2469  H2471   1.109   .     S
C2469  C2472   1.529   .     S
C2469  H2786   1.108   1_455 S
H2470  C2627   1.108   .     S
C2472  H2475   1.111   .     S
C2472  H2474   1.108   .     S
C2472  H2473   1.110   .     S
O2476  C2477   1.416   .     S
C2477  H2478   1.110   .     S
C2477  H2479   1.118   .     S
C2477  C2480   1.522   .     S
C2480  H2481   1.111   .     S
C2480  C2483   1.527   .     S
C2480  H2482   1.110   .     S
C2483  H2486   1.110   .     S
C2483  H2484   1.111   .     S
C2483  H1537   1.109   1_565 S
O2487  C2488   1.420   .     S
C2488  H2489   1.109   .     S
C2488  C2491   1.540   .     S
C2488  H2490   1.106   .     S
C2491  C2494   1.525   .     S
C2491  H2650   1.109   .     S
C2491  H2651   1.108   .     S
H2492  C2807   1.109   1_455 S
H2493  C2807   1.108   1_455 S
C2494  H2497   1.109   .     S
C2494  H2495   1.108   .     S
C2494  H2654   1.110   .     S
H2496  C2810   1.110   1_455 S
O2498  C2499   1.420   .     S
C2499  C2502   1.534   .     S
C2499  H2500   1.111   .     S
C2499  H2501   1.114   .     S
C2502  C2505   1.521   .     S
C2502  H2819   1.109   1_455 S
C2502  H2820   1.105   1_455 S
H2503  C2660   1.109   .     S
H2504  C2660   1.105   .     S
C2505  H2508   1.110   .     S
C2505  H2506   1.109   .     S
C2505  H2823   1.110   1_455 S
H2507  C2663   1.110   .     S
O2509  C2510   1.413   .     S
C2510  H2513   1.112   .     S
C2510  H2511   1.115   .     S
C2510  H2512   1.110   .     S
O2514  C2515   1.412   .     S
C2515  H2516   1.111   .     S
C2515  H2517   1.107   .     S
C2515  H2518   1.104   .     S
O2519  C2520   1.412   .     S
C2520  H2523   1.102   .     S
C2520  H2522   1.105   .     S
C2520  H2521   1.112   .     S
O2524  C2525   1.409   .     S
C2525  H2527   1.112   .     S
C2525  H2528   1.106   .     S
C2525  H2526   1.109   .     S
C2529  O2561   1.302   .     A
C2529  C2538   1.444   .     S
C2529  O2564   1.297   .     A
C2530  O2563   1.302   .     A
C2530  O2562   1.298   .     A
C2530  C2537   1.445   .     S
C2531  O2613   1.378   .     S
C2531  C2556   1.412   .     A
C2532  O2618   1.382   .     S
C2532  C2555   1.407   .     A
C2532  C1136   1.397   1_556 S
C2533  O2623   1.387   .     S
C2533  C2538   1.416   .     A
C2534  C2537   1.406   .     A
C2534  O2634   1.382   .     S
C2534  C2694   1.378   .     S
C2535  O2645   1.387   .     S
C2535  C2537   1.413   .     A
C2535  C2691   1.382   .     S
C2536  O2656   1.387   .     S
C2536  C2538   1.411   .     A
C2539  O2667   1.377   .     S
C2539  N2560   1.377   .     A
C2540  O2672   1.387   .     S
C2540  N2559   1.376   .     A
C2540  C1593   1.435   1_565 S
C2541  N2560   1.375   .     A
C2541  O2677   1.372   .     S
C2542  N2559   1.367   .     A
C2542  O2682   1.379   .     S
C2542  C1591   1.430   1_565 S
C2543  O2565   1.298   .     A
C2543  C2548   1.432   .     S
C2543  O2568   1.296   .     A
C2544  C2547   1.428   .     S
C2544  O2567   1.292   .     A
C2544  O2566   1.299   .     A
C2545  C2555   1.401   .     A
C2545  O2571   1.384   .     S
C2545  C2547   1.397   .     A
C2546  C2556   1.406   .     A
C2546  O2576   1.389   .     S
C2546  C2548   1.402   .     A
C2547  C2549   1.396   .     A
C2548  C2550   1.406   .     A
C2549  C2551   1.401   .     A
C2549  O2581   1.387   .     S
C2550  C2552   1.399   .     A
C2550  O2586   1.390   .     S
C2551  C2557   1.405   .     A
C2551  C2553   1.414   .     A
C2552  C2554   1.412   .     A
C2552  C2558   1.405   .     A
C2553  C2555   1.417   .     A
C2553  C1132   1.406   1_556 S
C2554  C2556   1.418   .     A
C2557  O2591   1.381   .     S
C2557  C1109   1.389   1_556 S
C2558  O2602   1.384   .     S
N2559  Zn2569  2.039   .     S
N2560  Zn2570  2.039   .     S
O2561  Zn2569  2.027   .     S
O2562  Zn2570  2.027   .     S
O2563  Zn2569  2.020   .     S
O2564  Zn2570  2.020   .     S
O2565  Zn2569  2.002   .     S
O2566  Zn2570  2.002   .     S
O2567  Zn2569  2.029   .     S
O2568  Zn2570  2.029   .     S
O2571  C2572   1.411   .     S
C2572  H2573   1.109   .     S
C2572  H2575   1.103   .     S
C2572  H2574   1.109   .     S
O2576  C2577   1.413   .     S
C2577  H2579   1.103   .     S
C2577  H2580   1.108   .     S
C2577  H2578   1.114   .     S
O2581  C2582   1.411   .     S
C2582  H2584   1.114   .     S
C2582  H2583   1.109   .     S
C2582  H2585   1.109   .     S
O2586  C2587   1.407   .     S
C2587  H2588   1.107   .     S
C2587  H2589   1.107   .     S
C2587  H2590   1.095   .     S
O2591  C2592   1.420   .     S
C2592  C2595   1.528   .     S
C2592  H2594   1.120   .     S
C2592  H2593   1.111   .     S
C2595  H2596   1.110   .     S
C2595  H1175   1.112   1_556 S
C2595  C1650   1.527   1_565 S
C2598  H2601   1.111   .     S
C2598  H2600   1.106   .     S
C2598  H1177   1.111   1_556 S
O2602  C2603   1.423   .     S
C2603  H2604   1.107   .     S
C2603  C2606   1.540   .     S
H2605  C1181   1.110   1_556 S
C2606  H2608   1.111   .     S
C2606  H2607   1.107   .     S
C2606  C2609   1.527   .     S
H2610  C1187   1.111   1_556 S
H2611  C1661   1.111   1_565 S
H2612  C1661   1.110   1_565 S
O2613  C2614   1.409   .     S
C2614  H2616   1.107   .     S
C2614  H2615   1.112   .     S
C2614  H2617   1.112   .     S
O2618  C2619   1.412   .     S
C2619  H2620   1.115   .     S
C2619  H2621   1.106   .     S
C2619  H2622   1.109   .     S
O2623  C2624   1.417   .     S
C2624  C2627   1.533   .     S
C2624  H2626   1.110   .     S
C2624  H2625   1.110   .     S
C2627  H2629   1.109   .     S
C2627  C2630   1.529   .     S
H2628  C2785   1.108   .     S
C2630  H2633   1.111   .     S
C2630  H2632   1.108   .     S
C2630  H2631   1.110   .     S
O2634  C2635   1.416   .     S
C2635  H2636   1.110   .     S
C2635  H2637   1.118   .     S
C2635  C2638   1.522   .     S
C2638  H2639   1.111   .     S
C2638  C2641   1.527   .     S
C2638  H2640   1.110   .     S
C2641  H2644   1.110   .     S
C2641  H2642   1.111   .     S
C2641  H1695   1.109   1_565 S
O2645  C2646   1.420   .     S
C2646  H2647   1.109   .     S
C2646  C2649   1.540   .     S
C2646  H2648   1.106   .     S
C2649  C2652   1.525   .     S
C2649  H2808   1.109   .     S
C2649  H2809   1.108   .     S
C2652  H2655   1.109   .     S
C2652  H2653   1.108   .     S
C2652  H2812   1.110   .     S
O2656  C2657   1.420   .     S
C2657  C2660   1.534   .     S
C2657  H2658   1.111   .     S
C2657  H2659   1.114   .     S
C2660  C2663   1.521   .     S
H2661  C2818   1.109   .     S
H2662  C2818   1.105   .     S
C2663  H2666   1.110   .     S
C2663  H2664   1.109   .     S
H2665  C2821   1.110   .     S
O2667  C2668   1.413   .     S
C2668  H2671   1.112   .     S
C2668  H2669   1.115   .     S
C2668  H2670   1.110   .     S
O2672  C2673   1.412   .     S
C2673  H2674   1.111   .     S
C2673  H2675   1.107   .     S
C2673  H2676   1.104   .     S
O2677  C2678   1.412   .     S
C2678  H2681   1.102   .     S
C2678  H2680   1.105   .     S
C2678  H2679   1.112   .     S
O2682  C2683   1.409   .     S
C2683  H2685   1.112   .     S
C2683  H2686   1.106   .     S
C2683  H2684   1.109   .     S
C2687  O2719   1.302   .     A
C2687  C2696   1.444   .     S
C2687  O2722   1.297   .     A
C2688  O2721   1.302   .     A
C2688  O2720   1.298   .     A
C2688  C2695   1.445   .     S
C2689  O2771   1.378   .     S
C2689  C2714   1.412   .     A
C2690  O2776   1.382   .     S
C2690  C2713   1.407   .     A
C2690  C1294   1.397   1_556 S
C2691  O2781   1.387   .     S
C2691  C2696   1.416   .     A
C2692  C2695   1.406   .     A
C2692  O2792   1.382   .     S
C2692  C2378   1.378   1_655 S
C2693  O2803   1.387   .     S
C2693  C2695   1.413   .     A
C2693  C2375   1.382   1_655 S
C2694  O2814   1.387   .     S
C2694  C2696   1.411   .     A
C2697  O2825   1.377   .     S
C2697  N2718   1.377   .     A
C2698  O2830   1.387   .     S
C2698  N2717   1.376   .     A
C2698  C1751   1.435   1_565 S
C2699  N2718   1.375   .     A
C2699  O2835   1.372   .     S
C2700  N2717   1.367   .     A
C2700  O2840   1.379   .     S
C2700  C1749   1.430   1_565 S
C2701  O2723   1.298   .     A
C2701  C2706   1.432   .     S
C2701  O2726   1.296   .     A
C2702  C2705   1.428   .     S
C2702  O2725   1.292   .     A
C2702  O2724   1.299   .     A
C2703  C2713   1.401   .     A
C2703  O2729   1.384   .     S
C2703  C2705   1.397   .     A
C2704  C2714   1.406   .     A
C2704  O2734   1.389   .     S
C2704  C2706   1.402   .     A
C2705  C2707   1.396   .     A
C2706  C2708   1.406   .     A
C2707  C2709   1.401   .     A
C2707  O2739   1.387   .     S
C2708  C2710   1.399   .     A
C2708  O2744   1.390   .     S
C2709  C2715   1.405   .     A
C2709  C2711   1.414   .     A
C2710  C2712   1.412   .     A
C2710  C2716   1.405   .     A
C2711  C2713   1.417   .     A
C2711  C1290   1.406   1_556 S
C2712  C2714   1.418   .     A
C2715  O2749   1.381   .     S
C2715  C1267   1.389   1_556 S
C2716  O2760   1.384   .     S
N2717  Zn2727  2.039   .     S
N2718  Zn2728  2.039   .     S
O2719  Zn2727  2.027   .     S
O2720  Zn2728  2.027   .     S
O2721  Zn2727  2.020   .     S
O2722  Zn2728  2.020   .     S
O2723  Zn2727  2.002   .     S
O2724  Zn2728  2.002   .     S
O2725  Zn2727  2.029   .     S
O2726  Zn2728  2.029   .     S
O2729  C2730   1.411   .     S
C2730  H2731   1.109   .     S
C2730  H2733   1.103   .     S
C2730  H2732   1.109   .     S
O2734  C2735   1.413   .     S
C2735  H2737   1.103   .     S
C2735  H2738   1.108   .     S
C2735  H2736   1.114   .     S
O2739  C2740   1.411   .     S
C2740  H2742   1.114   .     S
C2740  H2741   1.109   .     S
C2740  H2743   1.109   .     S
O2744  C2745   1.407   .     S
C2745  H2746   1.107   .     S
C2745  H2747   1.107   .     S
C2745  H2748   1.095   .     S
O2749  C2750   1.420   .     S
C2750  C2753   1.528   .     S
C2750  H2752   1.120   .     S
C2750  H2751   1.111   .     S
C2753  H2754   1.110   .     S
C2753  H1333   1.112   1_556 S
C2753  C1808   1.527   1_565 S
C2756  H2759   1.111   .     S
C2756  H2758   1.106   .     S
C2756  H1335   1.111   1_556 S
O2760  C2761   1.423   .     S
C2761  H2762   1.107   .     S
C2761  C2764   1.540   .     S
H2763  C1339   1.110   1_556 S
C2764  H2766   1.111   .     S
C2764  H2765   1.107   .     S
C2764  C2767   1.527   .     S
H2768  C1345   1.111   1_556 S
H2769  C1819   1.111   1_565 S
H2770  C1819   1.110   1_565 S
O2771  C2772   1.409   .     S
C2772  H2774   1.107   .     S
C2772  H2773   1.112   .     S
C2772  H2775   1.112   .     S
O2776  C2777   1.412   .     S
C2777  H2778   1.115   .     S
C2777  H2779   1.106   .     S
C2777  H2780   1.109   .     S
O2781  C2782   1.417   .     S
C2782  C2785   1.533   .     S
C2782  H2784   1.110   .     S
C2782  H2783   1.110   .     S
C2785  H2787   1.109   .     S
C2785  C2788   1.529   .     S
H2786  C2469   1.108   1_655 S
C2788  H2791   1.111   .     S
C2788  H2790   1.108   .     S
C2788  H2789   1.110   .     S
O2792  C2793   1.416   .     S
C2793  H2794   1.110   .     S
C2793  H2795   1.118   .     S
C2793  C2796   1.522   .     S
C2796  H2797   1.111   .     S
C2796  C2799   1.527   .     S
C2796  H2798   1.110   .     S
C2799  H2802   1.110   .     S
C2799  H2800   1.111   .     S
C2799  H1853   1.109   1_565 S
O2803  C2804   1.420   .     S
C2804  H2805   1.109   .     S
C2804  C2807   1.540   .     S
C2804  H2806   1.106   .     S
C2807  C2810   1.525   .     S
C2807  H2492   1.109   1_655 S
C2807  H2493   1.108   1_655 S
C2810  H2813   1.109   .     S
C2810  H2811   1.108   .     S
C2810  H2496   1.110   1_655 S
O2814  C2815   1.420   .     S
C2815  C2818   1.534   .     S
C2815  H2816   1.111   .     S
C2815  H2817   1.114   .     S
C2818  C2821   1.521   .     S
H2819  C2502   1.109   1_655 S
H2820  C2502   1.105   1_655 S
C2821  H2824   1.110   .     S
C2821  H2822   1.109   .     S
H2823  C2505   1.110   1_655 S
O2825  C2826   1.413   .     S
C2826  H2829   1.112   .     S
C2826  H2827   1.115   .     S
C2826  H2828   1.110   .     S
O2830  C2831   1.412   .     S
C2831  H2832   1.111   .     S
C2831  H2833   1.107   .     S
C2831  H2834   1.104   .     S
O2835  C2836   1.412   .     S
C2836  H2839   1.102   .     S
C2836  H2838   1.105   .     S
C2836  H2837   1.112   .     S
O2840  C2841   1.409   .     S
C2841  H2843   1.112   .     S
C2841  H2844   1.106   .     S
C2841  H2842   1.109   .     S
