data_str_m3_o2_o10_pcu_sym.24
_audit_creation_date              2020-01-03
_audit_creation_method            'Materials Studio'
_symmetry_space_group_name_H-M    'P1'
_symmetry_Int_Tables_number       1
_symmetry_cell_setting            triclinic
loop_
_symmetry_equiv_pos_as_xyz
  x,y,z
_cell_length_a                    25.5615
_cell_length_b                    29.8870
_cell_length_c                    28.6694
_cell_angle_alpha                 88.5743
_cell_angle_beta                  95.5229
_cell_angle_gamma                 91.5454
loop_
_atom_site_label
_atom_site_type_symbol
_atom_site_fract_x
_atom_site_fract_y
_atom_site_fract_z
_atom_site_U_iso_or_equiv
_atom_site_adp_type
_atom_site_occupancy
C1     C     0.16793   0.16412   0.25056   0.00000  Uiso   1.00
C2     C     0.13506   0.22005   0.44614   0.00000  Uiso   1.00
C3     C     0.16241   0.25270   0.02578   0.00000  Uiso   1.00
C4     C     0.16250   0.25310   0.47271   0.00000  Uiso   1.00
C5     C     0.06755   0.24766   0.23862   0.00000  Uiso   1.00
C6     C     0.26590   0.25161   0.26144   0.00000  Uiso   1.00
C7     C     0.01335   0.24060   0.23422   0.00000  Uiso   1.00
C8     C     0.32027   0.25787   0.26605   0.00000  Uiso   1.00
C9     C     0.13466   0.04509   0.27486   0.00000  Uiso   1.00
C10    C     0.12630   0.45253   0.23041   0.00000  Uiso   1.00
C11    C     0.13438   0.09126   0.27512   0.00000  Uiso   1.00
C12    C     0.16750   0.33579   0.24956   0.00000  Uiso   1.00
C13    C     0.12600   0.40637   0.23020   0.00000  Uiso   1.00
C14    C     0.17140   0.11624   0.25170   0.00000  Uiso   1.00
C15    C     0.17060   0.38356   0.24859   0.00000  Uiso   1.00
C16    C     0.20992   0.09495   0.22838   0.00000  Uiso   1.00
C17    C     0.21685   0.40664   0.26647   0.00000  Uiso   1.00
C18    C     0.20925   0.04846   0.22814   0.00000  Uiso   1.00
C19    C     0.21659   0.45315   0.26632   0.00000  Uiso   1.00
C20    C     0.17161   0.02388   0.25076   0.00000  Uiso   1.00
C21    C     0.17135   0.47574   0.24916   0.00000  Uiso   1.00
C22    C     0.25287   0.11999   0.20467   0.00000  Uiso   1.00
C23    C     0.11778   0.24148   0.04957   0.00000  Uiso   1.00
C24    C     0.24056   0.12064   0.15118   0.00000  Uiso   1.00
C25    C     0.28599   0.14149   0.12666   0.00000  Uiso   1.00
C26    C     0.26677   0.38316   0.28501   0.00000  Uiso   1.00
C27    C     0.27820   0.38890   0.33808   0.00000  Uiso   1.00
C28    C     0.32328   0.35965   0.35835   0.00000  Uiso   1.00
C29    C     0.26344   0.27704   0.12733   0.00000  Uiso   1.00
C30    C     0.26363   0.32474   0.14615   0.00000  Uiso   1.00
C31    C     0.31914   0.34502   0.15341   0.00000  Uiso   1.00
C32    C     0.09198   0.19170   0.37084   0.00000  Uiso   1.00
C33    C     0.03655   0.21104   0.36977   0.00000  Uiso   1.00
C34    C     0.19225   0.28482   0.44806   0.00000  Uiso   1.00
C35    C     0.00881   0.20080   0.41384   0.00000  Uiso   1.00
C36    C     0.12092   0.23968   0.09928   0.00000  Uiso   1.00
C37    C     0.19533   0.28163   0.39928   0.00000  Uiso   1.00
C38    C     0.21071   0.26236   0.10297   0.00000  Uiso   1.00
C39    C     0.13361   0.22114   0.39671   0.00000  Uiso   1.00
C40    C     0.20890   0.26189   0.05343   0.00000  Uiso   1.00
F41    F     0.09901   0.02101   0.29801   0.00000  Uiso   1.00
F42    F     0.08298   0.47464   0.21220   0.00000  Uiso   1.00
F43    F     0.09678   0.11161   0.29675   0.00000  Uiso   1.00
F44    F     0.08187   0.38369   0.21313   0.00000  Uiso   1.00
F45    F     0.25356   0.26932   0.03182   0.00000  Uiso   1.00
F46    F     0.11035   0.18596   0.46820   0.00000  Uiso   1.00
H47    H     0.32903   0.21977   0.20628   0.00000  Uiso   1.00
H48    H     0.29422   0.17632   0.13809   0.00000  Uiso   1.00
H49    H     0.32198   0.12162   0.13473   0.00000  Uiso   1.00
H50    H     0.23319   0.08595   0.13861   0.00000  Uiso   1.00
H51    H     0.20461   0.14014   0.14125   0.00000  Uiso   1.00
H52    H     0.25873   0.15474   0.21725   0.00000  Uiso   1.00
H53    H     0.29083   0.10319   0.21434   0.00000  Uiso   1.00
H54    H     0.31176   0.32372   0.35505   0.00000  Uiso   1.00
H55    H     0.02561   0.36674   0.33984   0.00000  Uiso   1.00
H56    H     0.33270   0.36669   0.39611   0.00000  Uiso   1.00
H57    H     0.28889   0.42446   0.34558   0.00000  Uiso   1.00
H58    H     0.00519   0.27787   0.29452   0.00000  Uiso   1.00
H59    H     0.24253   0.37977   0.35585   0.00000  Uiso   1.00
H60    H     0.26438   0.34700   0.27717   0.00000  Uiso   1.00
H61    H     0.30019   0.39747   0.26691   0.00000  Uiso   1.00
H62    H     0.01103   0.32351   0.17781   0.00000  Uiso   1.00
H63    H     0.00327   0.34858   0.11946   0.00000  Uiso   1.00
H64    H     0.31765   0.37871   0.16865   0.00000  Uiso   1.00
H65    H     0.23942   0.34673   0.12129   0.00000  Uiso   1.00
H66    H     0.24752   0.32460   0.18029   0.00000  Uiso   1.00
H67    H     0.27793   0.25163   0.15257   0.00000  Uiso   1.00
H68    H     0.29479   0.27660   0.10318   0.00000  Uiso   1.00
H69    H     0.23799   0.03127   0.21011   0.00000  Uiso   1.00
H70    H     0.01162   0.16480   0.42406   0.00000  Uiso   1.00
H71    H     0.02564   0.22187   0.44315   0.00000  Uiso   1.00
H72    H     0.29991   0.20889   0.40681   0.00000  Uiso   1.00
H73    H     0.03866   0.24789   0.36406   0.00000  Uiso   1.00
H74    H     0.01174   0.19631   0.33975   0.00000  Uiso   1.00
H75    H     0.09979   0.18831   0.33452   0.00000  Uiso   1.00
H76    H     0.09273   0.15711   0.38601   0.00000  Uiso   1.00
H77    H     0.25142   0.47187   0.27999   0.00000  Uiso   1.00
H78    H     0.08032   0.23420   0.02997   0.00000  Uiso   1.00
H79    H     0.21353   0.31197   0.46629   0.00000  Uiso   1.00
H80    H     0.08595   0.23047   0.11599   0.00000  Uiso   1.00
H81    H     0.21945   0.30553   0.38161   0.00000  Uiso   1.00
H82    H     0.27553   0.14205   0.08815   0.00000  Uiso   1.00
N83    N     0.16667   0.24999   0.12623   0.00000  Uiso   1.00
N84    N     0.16667   0.25001   0.37376   0.00000  Uiso   1.00
O85    O     0.16667   0.18453   0.28974   0.00000  Uiso   1.00
O86    O     0.16666   0.31546   0.21026   0.00000  Uiso   1.00
O87    O     0.16667   0.18453   0.21026   0.00000  Uiso   1.00
O88    O     0.16666   0.31547   0.28974   0.00000  Uiso   1.00
O89    O     0.09058   0.25000   0.28045   0.00000  Uiso   1.00
O90    O     0.24275   0.25000   0.21955   0.00000  Uiso   1.00
O91    O     0.09058   0.24999   0.20096   0.00000  Uiso   1.00
O92    O     0.24275   0.25000   0.29903   0.00000  Uiso   1.00
Zn93   Zn    0.16667   0.25000   0.30307   0.00000  Uiso   1.00
Zn94   Zn    0.16667   0.24999   0.19693   0.00000  Uiso   1.00
C95    C     0.50127   0.16412   0.25056   0.00000  Uiso   1.00
C96    C     0.46840   0.22005   0.44614   0.00000  Uiso   1.00
C97    C     0.49574   0.25270   0.02578   0.00000  Uiso   1.00
C98    C     0.49583   0.25310   0.47271   0.00000  Uiso   1.00
C99    C     0.40088   0.24766   0.23862   0.00000  Uiso   1.00
C100   C     0.59923   0.25161   0.26144   0.00000  Uiso   1.00
C101   C     0.34669   0.24060   0.23422   0.00000  Uiso   1.00
C102   C     0.65360   0.25787   0.26605   0.00000  Uiso   1.00
C103   C     0.46799   0.04509   0.27486   0.00000  Uiso   1.00
C104   C     0.45963   0.45253   0.23041   0.00000  Uiso   1.00
C105   C     0.46771   0.09126   0.27512   0.00000  Uiso   1.00
C106   C     0.50083   0.33579   0.24956   0.00000  Uiso   1.00
C107   C     0.45933   0.40637   0.23020   0.00000  Uiso   1.00
C108   C     0.50473   0.11624   0.25170   0.00000  Uiso   1.00
C109   C     0.50393   0.38356   0.24859   0.00000  Uiso   1.00
C110   C     0.54325   0.09495   0.22838   0.00000  Uiso   1.00
C111   C     0.55018   0.40664   0.26647   0.00000  Uiso   1.00
C112   C     0.54259   0.04846   0.22814   0.00000  Uiso   1.00
C113   C     0.54992   0.45315   0.26632   0.00000  Uiso   1.00
C114   C     0.50494   0.02388   0.25076   0.00000  Uiso   1.00
C115   C     0.50468   0.47574   0.24916   0.00000  Uiso   1.00
C116   C     0.58620   0.11999   0.20467   0.00000  Uiso   1.00
C117   C     0.45111   0.24148   0.04957   0.00000  Uiso   1.00
C118   C     0.57390   0.12064   0.15118   0.00000  Uiso   1.00
C119   C     0.61933   0.14149   0.12666   0.00000  Uiso   1.00
C120   C     0.60010   0.38316   0.28501   0.00000  Uiso   1.00
C121   C     0.61154   0.38890   0.33808   0.00000  Uiso   1.00
C122   C     0.65662   0.35965   0.35835   0.00000  Uiso   1.00
C123   C     0.59677   0.27704   0.12733   0.00000  Uiso   1.00
C124   C     0.59696   0.32474   0.14615   0.00000  Uiso   1.00
C125   C     0.65247   0.34502   0.15341   0.00000  Uiso   1.00
C126   C     0.42531   0.19170   0.37084   0.00000  Uiso   1.00
C127   C     0.36988   0.21104   0.36977   0.00000  Uiso   1.00
C128   C     0.52559   0.28482   0.44806   0.00000  Uiso   1.00
C129   C     0.34214   0.20080   0.41384   0.00000  Uiso   1.00
C130   C     0.45426   0.23968   0.09928   0.00000  Uiso   1.00
C131   C     0.52866   0.28163   0.39928   0.00000  Uiso   1.00
C132   C     0.54404   0.26236   0.10297   0.00000  Uiso   1.00
C133   C     0.46694   0.22114   0.39671   0.00000  Uiso   1.00
C134   C     0.54223   0.26189   0.05343   0.00000  Uiso   1.00
F135   F     0.43234   0.02101   0.29801   0.00000  Uiso   1.00
F136   F     0.41632   0.47464   0.21220   0.00000  Uiso   1.00
F137   F     0.43012   0.11161   0.29675   0.00000  Uiso   1.00
F138   F     0.41521   0.38369   0.21313   0.00000  Uiso   1.00
F139   F     0.58689   0.26932   0.03182   0.00000  Uiso   1.00
F140   F     0.44368   0.18596   0.46820   0.00000  Uiso   1.00
H141   H     0.66236   0.21977   0.20628   0.00000  Uiso   1.00
H142   H     0.62755   0.17632   0.13809   0.00000  Uiso   1.00
H143   H     0.65531   0.12162   0.13473   0.00000  Uiso   1.00
H144   H     0.56653   0.08595   0.13861   0.00000  Uiso   1.00
H145   H     0.53795   0.14014   0.14125   0.00000  Uiso   1.00
H146   H     0.59206   0.15474   0.21725   0.00000  Uiso   1.00
H147   H     0.62417   0.10319   0.21434   0.00000  Uiso   1.00
H148   H     0.64510   0.32372   0.35505   0.00000  Uiso   1.00
H149   H     0.35894   0.36674   0.33984   0.00000  Uiso   1.00
H150   H     0.66603   0.36669   0.39611   0.00000  Uiso   1.00
H151   H     0.62222   0.42446   0.34558   0.00000  Uiso   1.00
H152   H     0.33853   0.27787   0.29452   0.00000  Uiso   1.00
H153   H     0.57586   0.37977   0.35585   0.00000  Uiso   1.00
H154   H     0.59771   0.34700   0.27717   0.00000  Uiso   1.00
H155   H     0.63352   0.39747   0.26691   0.00000  Uiso   1.00
H156   H     0.34437   0.32351   0.17781   0.00000  Uiso   1.00
H157   H     0.33660   0.34858   0.11946   0.00000  Uiso   1.00
H158   H     0.65099   0.37871   0.16865   0.00000  Uiso   1.00
H159   H     0.57276   0.34673   0.12129   0.00000  Uiso   1.00
H160   H     0.58085   0.32460   0.18029   0.00000  Uiso   1.00
H161   H     0.61127   0.25163   0.15257   0.00000  Uiso   1.00
H162   H     0.62813   0.27660   0.10318   0.00000  Uiso   1.00
H163   H     0.57132   0.03127   0.21011   0.00000  Uiso   1.00
H164   H     0.34495   0.16480   0.42406   0.00000  Uiso   1.00
H165   H     0.35897   0.22187   0.44315   0.00000  Uiso   1.00
H166   H     0.63324   0.20889   0.40681   0.00000  Uiso   1.00
H167   H     0.37200   0.24789   0.36406   0.00000  Uiso   1.00
H168   H     0.34507   0.19631   0.33975   0.00000  Uiso   1.00
H169   H     0.43312   0.18831   0.33452   0.00000  Uiso   1.00
H170   H     0.42606   0.15711   0.38601   0.00000  Uiso   1.00
H171   H     0.58475   0.47187   0.27999   0.00000  Uiso   1.00
H172   H     0.41366   0.23420   0.02997   0.00000  Uiso   1.00
H173   H     0.54686   0.31197   0.46629   0.00000  Uiso   1.00
H174   H     0.41928   0.23047   0.11599   0.00000  Uiso   1.00
H175   H     0.55278   0.30553   0.38161   0.00000  Uiso   1.00
H176   H     0.60887   0.14205   0.08815   0.00000  Uiso   1.00
N177   N     0.50000   0.24999   0.12623   0.00000  Uiso   1.00
N178   N     0.50000   0.25001   0.37376   0.00000  Uiso   1.00
O179   O     0.50000   0.18453   0.28974   0.00000  Uiso   1.00
O180   O     0.50000   0.31546   0.21026   0.00000  Uiso   1.00
O181   O     0.50000   0.18453   0.21026   0.00000  Uiso   1.00
O182   O     0.50000   0.31547   0.28974   0.00000  Uiso   1.00
O183   O     0.42392   0.25000   0.28045   0.00000  Uiso   1.00
O184   O     0.57608   0.25000   0.21955   0.00000  Uiso   1.00
O185   O     0.42392   0.24999   0.20096   0.00000  Uiso   1.00
O186   O     0.57608   0.25000   0.29903   0.00000  Uiso   1.00
Zn187  Zn    0.50000   0.25000   0.30307   0.00000  Uiso   1.00
Zn188  Zn    0.50000   0.24999   0.19693   0.00000  Uiso   1.00
C189   C     0.83460   0.16412   0.25056   0.00000  Uiso   1.00
C190   C     0.80173   0.22005   0.44614   0.00000  Uiso   1.00
C191   C     0.82908   0.25270   0.02578   0.00000  Uiso   1.00
C192   C     0.82916   0.25310   0.47271   0.00000  Uiso   1.00
C193   C     0.73421   0.24766   0.23862   0.00000  Uiso   1.00
C194   C     0.93257   0.25161   0.26144   0.00000  Uiso   1.00
C195   C     0.68002   0.24060   0.23422   0.00000  Uiso   1.00
C196   C     0.98694   0.25787   0.26605   0.00000  Uiso   1.00
C197   C     0.80133   0.04509   0.27486   0.00000  Uiso   1.00
C198   C     0.79297   0.45253   0.23041   0.00000  Uiso   1.00
C199   C     0.80105   0.09126   0.27512   0.00000  Uiso   1.00
C200   C     0.83416   0.33579   0.24956   0.00000  Uiso   1.00
C201   C     0.79266   0.40637   0.23020   0.00000  Uiso   1.00
C202   C     0.83807   0.11624   0.25170   0.00000  Uiso   1.00
C203   C     0.83727   0.38356   0.24859   0.00000  Uiso   1.00
C204   C     0.87658   0.09495   0.22838   0.00000  Uiso   1.00
C205   C     0.88351   0.40664   0.26647   0.00000  Uiso   1.00
C206   C     0.87592   0.04846   0.22814   0.00000  Uiso   1.00
C207   C     0.88326   0.45315   0.26632   0.00000  Uiso   1.00
C208   C     0.83827   0.02388   0.25076   0.00000  Uiso   1.00
C209   C     0.83802   0.47574   0.24916   0.00000  Uiso   1.00
C210   C     0.91954   0.11999   0.20467   0.00000  Uiso   1.00
C211   C     0.78445   0.24148   0.04957   0.00000  Uiso   1.00
C212   C     0.90723   0.12064   0.15118   0.00000  Uiso   1.00
C213   C     0.95266   0.14149   0.12666   0.00000  Uiso   1.00
C214   C     0.93343   0.38316   0.28501   0.00000  Uiso   1.00
C215   C     0.94487   0.38890   0.33808   0.00000  Uiso   1.00
C216   C     0.98995   0.35965   0.35835   0.00000  Uiso   1.00
C217   C     0.93011   0.27704   0.12733   0.00000  Uiso   1.00
C218   C     0.93029   0.32474   0.14615   0.00000  Uiso   1.00
C219   C     0.98580   0.34502   0.15341   0.00000  Uiso   1.00
C220   C     0.75865   0.19170   0.37084   0.00000  Uiso   1.00
C221   C     0.70321   0.21104   0.36977   0.00000  Uiso   1.00
C222   C     0.85892   0.28482   0.44806   0.00000  Uiso   1.00
C223   C     0.67548   0.20080   0.41384   0.00000  Uiso   1.00
C224   C     0.78759   0.23968   0.09928   0.00000  Uiso   1.00
C225   C     0.86200   0.28163   0.39928   0.00000  Uiso   1.00
C226   C     0.87737   0.26236   0.10297   0.00000  Uiso   1.00
C227   C     0.80027   0.22114   0.39671   0.00000  Uiso   1.00
C228   C     0.87557   0.26189   0.05343   0.00000  Uiso   1.00
F229   F     0.76568   0.02101   0.29801   0.00000  Uiso   1.00
F230   F     0.74965   0.47464   0.21220   0.00000  Uiso   1.00
F231   F     0.76345   0.11161   0.29675   0.00000  Uiso   1.00
F232   F     0.74854   0.38369   0.21313   0.00000  Uiso   1.00
F233   F     0.92023   0.26932   0.03182   0.00000  Uiso   1.00
F234   F     0.77701   0.18596   0.46820   0.00000  Uiso   1.00
H235   H     0.99570   0.21977   0.20628   0.00000  Uiso   1.00
H236   H     0.96089   0.17632   0.13809   0.00000  Uiso   1.00
H237   H     0.98864   0.12162   0.13473   0.00000  Uiso   1.00
H238   H     0.89986   0.08595   0.13861   0.00000  Uiso   1.00
H239   H     0.87128   0.14014   0.14125   0.00000  Uiso   1.00
H240   H     0.92539   0.15474   0.21725   0.00000  Uiso   1.00
H241   H     0.95750   0.10319   0.21434   0.00000  Uiso   1.00
H242   H     0.97843   0.32372   0.35505   0.00000  Uiso   1.00
H243   H     0.69227   0.36674   0.33984   0.00000  Uiso   1.00
H244   H     0.99936   0.36669   0.39611   0.00000  Uiso   1.00
H245   H     0.95556   0.42446   0.34558   0.00000  Uiso   1.00
H246   H     0.67186   0.27787   0.29452   0.00000  Uiso   1.00
H247   H     0.90919   0.37977   0.35585   0.00000  Uiso   1.00
H248   H     0.93104   0.34700   0.27717   0.00000  Uiso   1.00
H249   H     0.96686   0.39747   0.26691   0.00000  Uiso   1.00
H250   H     0.67770   0.32351   0.17781   0.00000  Uiso   1.00
H251   H     0.66994   0.34858   0.11946   0.00000  Uiso   1.00
H252   H     0.98432   0.37871   0.16865   0.00000  Uiso   1.00
H253   H     0.90609   0.34673   0.12129   0.00000  Uiso   1.00
H254   H     0.91418   0.32460   0.18029   0.00000  Uiso   1.00
H255   H     0.94460   0.25163   0.15257   0.00000  Uiso   1.00
H256   H     0.96146   0.27660   0.10318   0.00000  Uiso   1.00
H257   H     0.90465   0.03127   0.21011   0.00000  Uiso   1.00
H258   H     0.67828   0.16480   0.42406   0.00000  Uiso   1.00
H259   H     0.69230   0.22187   0.44315   0.00000  Uiso   1.00
H260   H     0.96657   0.20889   0.40681   0.00000  Uiso   1.00
H261   H     0.70533   0.24789   0.36406   0.00000  Uiso   1.00
H262   H     0.67841   0.19631   0.33975   0.00000  Uiso   1.00
H263   H     0.76645   0.18831   0.33452   0.00000  Uiso   1.00
H264   H     0.75940   0.15711   0.38601   0.00000  Uiso   1.00
H265   H     0.91809   0.47187   0.27999   0.00000  Uiso   1.00
H266   H     0.74699   0.23420   0.02997   0.00000  Uiso   1.00
H267   H     0.88020   0.31197   0.46629   0.00000  Uiso   1.00
H268   H     0.75262   0.23047   0.11599   0.00000  Uiso   1.00
H269   H     0.88612   0.30553   0.38161   0.00000  Uiso   1.00
H270   H     0.94220   0.14205   0.08815   0.00000  Uiso   1.00
N271   N     0.83333   0.24999   0.12623   0.00000  Uiso   1.00
N272   N     0.83333   0.25001   0.37376   0.00000  Uiso   1.00
O273   O     0.83334   0.18453   0.28974   0.00000  Uiso   1.00
O274   O     0.83333   0.31546   0.21026   0.00000  Uiso   1.00
O275   O     0.83334   0.18453   0.21026   0.00000  Uiso   1.00
O276   O     0.83333   0.31547   0.28974   0.00000  Uiso   1.00
O277   O     0.75725   0.25000   0.28045   0.00000  Uiso   1.00
O278   O     0.90942   0.25000   0.21955   0.00000  Uiso   1.00
O279   O     0.75725   0.24999   0.20096   0.00000  Uiso   1.00
O280   O     0.90942   0.25000   0.29903   0.00000  Uiso   1.00
Zn281  Zn    0.83333   0.25000   0.30307   0.00000  Uiso   1.00
Zn282  Zn    0.83333   0.24999   0.19693   0.00000  Uiso   1.00
C283   C     0.16793   0.66412   0.25056   0.00000  Uiso   1.00
C284   C     0.13506   0.72005   0.44614   0.00000  Uiso   1.00
C285   C     0.16241   0.75270   0.02578   0.00000  Uiso   1.00
C286   C     0.16250   0.75310   0.47271   0.00000  Uiso   1.00
C287   C     0.06755   0.74766   0.23862   0.00000  Uiso   1.00
C288   C     0.26590   0.75161   0.26144   0.00000  Uiso   1.00
C289   C     0.01335   0.74060   0.23422   0.00000  Uiso   1.00
C290   C     0.32027   0.75787   0.26605   0.00000  Uiso   1.00
C291   C     0.13466   0.54509   0.27486   0.00000  Uiso   1.00
C292   C     0.12630   0.95253   0.23041   0.00000  Uiso   1.00
C293   C     0.13438   0.59126   0.27512   0.00000  Uiso   1.00
C294   C     0.16750   0.83579   0.24956   0.00000  Uiso   1.00
C295   C     0.12600   0.90637   0.23020   0.00000  Uiso   1.00
C296   C     0.17140   0.61624   0.25170   0.00000  Uiso   1.00
C297   C     0.17060   0.88356   0.24859   0.00000  Uiso   1.00
C298   C     0.20992   0.59495   0.22838   0.00000  Uiso   1.00
C299   C     0.21685   0.90664   0.26647   0.00000  Uiso   1.00
C300   C     0.20925   0.54846   0.22814   0.00000  Uiso   1.00
C301   C     0.21659   0.95315   0.26632   0.00000  Uiso   1.00
C302   C     0.17161   0.52388   0.25076   0.00000  Uiso   1.00
C303   C     0.17135   0.97574   0.24916   0.00000  Uiso   1.00
C304   C     0.25287   0.61999   0.20467   0.00000  Uiso   1.00
C305   C     0.11778   0.74148   0.04957   0.00000  Uiso   1.00
C306   C     0.24056   0.62064   0.15118   0.00000  Uiso   1.00
C307   C     0.28599   0.64149   0.12666   0.00000  Uiso   1.00
C308   C     0.26677   0.88316   0.28501   0.00000  Uiso   1.00
C309   C     0.27820   0.88890   0.33808   0.00000  Uiso   1.00
C310   C     0.32328   0.85965   0.35835   0.00000  Uiso   1.00
C311   C     0.26344   0.77704   0.12733   0.00000  Uiso   1.00
C312   C     0.26363   0.82474   0.14615   0.00000  Uiso   1.00
C313   C     0.31914   0.84502   0.15341   0.00000  Uiso   1.00
C314   C     0.09198   0.69170   0.37084   0.00000  Uiso   1.00
C315   C     0.03655   0.71104   0.36977   0.00000  Uiso   1.00
C316   C     0.19225   0.78482   0.44806   0.00000  Uiso   1.00
C317   C     0.00881   0.70080   0.41384   0.00000  Uiso   1.00
C318   C     0.12092   0.73968   0.09928   0.00000  Uiso   1.00
C319   C     0.19533   0.78163   0.39928   0.00000  Uiso   1.00
C320   C     0.21071   0.76236   0.10297   0.00000  Uiso   1.00
C321   C     0.13361   0.72114   0.39671   0.00000  Uiso   1.00
C322   C     0.20890   0.76189   0.05343   0.00000  Uiso   1.00
F323   F     0.09901   0.52101   0.29801   0.00000  Uiso   1.00
F324   F     0.08298   0.97464   0.21220   0.00000  Uiso   1.00
F325   F     0.09678   0.61161   0.29675   0.00000  Uiso   1.00
F326   F     0.08187   0.88369   0.21313   0.00000  Uiso   1.00
F327   F     0.25356   0.76932   0.03182   0.00000  Uiso   1.00
F328   F     0.11035   0.68596   0.46820   0.00000  Uiso   1.00
H329   H     0.32903   0.71977   0.20628   0.00000  Uiso   1.00
H330   H     0.29422   0.67632   0.13809   0.00000  Uiso   1.00
H331   H     0.32198   0.62162   0.13473   0.00000  Uiso   1.00
H332   H     0.23319   0.58595   0.13861   0.00000  Uiso   1.00
H333   H     0.20461   0.64014   0.14125   0.00000  Uiso   1.00
H334   H     0.25873   0.65474   0.21725   0.00000  Uiso   1.00
H335   H     0.29083   0.60319   0.21434   0.00000  Uiso   1.00
H336   H     0.31176   0.82372   0.35505   0.00000  Uiso   1.00
H337   H     0.02561   0.86674   0.33984   0.00000  Uiso   1.00
H338   H     0.33270   0.86669   0.39611   0.00000  Uiso   1.00
H339   H     0.28889   0.92446   0.34558   0.00000  Uiso   1.00
H340   H     0.00519   0.77787   0.29452   0.00000  Uiso   1.00
H341   H     0.24253   0.87977   0.35585   0.00000  Uiso   1.00
H342   H     0.26438   0.84700   0.27717   0.00000  Uiso   1.00
H343   H     0.30019   0.89747   0.26691   0.00000  Uiso   1.00
H344   H     0.01103   0.82351   0.17781   0.00000  Uiso   1.00
H345   H     0.00327   0.84858   0.11946   0.00000  Uiso   1.00
H346   H     0.31765   0.87871   0.16865   0.00000  Uiso   1.00
H347   H     0.23942   0.84673   0.12129   0.00000  Uiso   1.00
H348   H     0.24752   0.82460   0.18029   0.00000  Uiso   1.00
H349   H     0.27793   0.75163   0.15257   0.00000  Uiso   1.00
H350   H     0.29479   0.77660   0.10318   0.00000  Uiso   1.00
H351   H     0.23799   0.53127   0.21011   0.00000  Uiso   1.00
H352   H     0.01162   0.66480   0.42406   0.00000  Uiso   1.00
H353   H     0.02564   0.72187   0.44315   0.00000  Uiso   1.00
H354   H     0.29991   0.70889   0.40681   0.00000  Uiso   1.00
H355   H     0.03866   0.74789   0.36406   0.00000  Uiso   1.00
H356   H     0.01174   0.69631   0.33975   0.00000  Uiso   1.00
H357   H     0.09979   0.68831   0.33452   0.00000  Uiso   1.00
H358   H     0.09273   0.65711   0.38601   0.00000  Uiso   1.00
H359   H     0.25142   0.97187   0.27999   0.00000  Uiso   1.00
H360   H     0.08032   0.73420   0.02997   0.00000  Uiso   1.00
H361   H     0.21353   0.81197   0.46629   0.00000  Uiso   1.00
H362   H     0.08595   0.73047   0.11599   0.00000  Uiso   1.00
H363   H     0.21945   0.80553   0.38161   0.00000  Uiso   1.00
H364   H     0.27553   0.64205   0.08815   0.00000  Uiso   1.00
N365   N     0.16667   0.74999   0.12623   0.00000  Uiso   1.00
N366   N     0.16667   0.75001   0.37376   0.00000  Uiso   1.00
O367   O     0.16667   0.68453   0.28974   0.00000  Uiso   1.00
O368   O     0.16666   0.81546   0.21026   0.00000  Uiso   1.00
O369   O     0.16667   0.68453   0.21026   0.00000  Uiso   1.00
O370   O     0.16666   0.81547   0.28974   0.00000  Uiso   1.00
O371   O     0.09058   0.75000   0.28045   0.00000  Uiso   1.00
O372   O     0.24275   0.75000   0.21955   0.00000  Uiso   1.00
O373   O     0.09058   0.74999   0.20096   0.00000  Uiso   1.00
O374   O     0.24275   0.75000   0.29903   0.00000  Uiso   1.00
Zn375  Zn    0.16667   0.75000   0.30307   0.00000  Uiso   1.00
Zn376  Zn    0.16667   0.74999   0.19693   0.00000  Uiso   1.00
C377   C     0.50127   0.66412   0.25056   0.00000  Uiso   1.00
C378   C     0.46840   0.72005   0.44614   0.00000  Uiso   1.00
C379   C     0.49574   0.75270   0.02578   0.00000  Uiso   1.00
C380   C     0.49583   0.75310   0.47271   0.00000  Uiso   1.00
C381   C     0.40088   0.74766   0.23862   0.00000  Uiso   1.00
C382   C     0.59923   0.75161   0.26144   0.00000  Uiso   1.00
C383   C     0.34669   0.74060   0.23422   0.00000  Uiso   1.00
C384   C     0.65360   0.75787   0.26605   0.00000  Uiso   1.00
C385   C     0.46799   0.54509   0.27486   0.00000  Uiso   1.00
C386   C     0.45963   0.95253   0.23041   0.00000  Uiso   1.00
C387   C     0.46771   0.59126   0.27512   0.00000  Uiso   1.00
C388   C     0.50083   0.83579   0.24956   0.00000  Uiso   1.00
C389   C     0.45933   0.90637   0.23020   0.00000  Uiso   1.00
C390   C     0.50473   0.61624   0.25170   0.00000  Uiso   1.00
C391   C     0.50393   0.88356   0.24859   0.00000  Uiso   1.00
C392   C     0.54325   0.59495   0.22838   0.00000  Uiso   1.00
C393   C     0.55018   0.90664   0.26647   0.00000  Uiso   1.00
C394   C     0.54259   0.54846   0.22814   0.00000  Uiso   1.00
C395   C     0.54992   0.95315   0.26632   0.00000  Uiso   1.00
C396   C     0.50494   0.52388   0.25076   0.00000  Uiso   1.00
C397   C     0.50468   0.97574   0.24916   0.00000  Uiso   1.00
C398   C     0.58620   0.61999   0.20467   0.00000  Uiso   1.00
C399   C     0.45111   0.74148   0.04957   0.00000  Uiso   1.00
C400   C     0.57390   0.62064   0.15118   0.00000  Uiso   1.00
C401   C     0.61933   0.64149   0.12666   0.00000  Uiso   1.00
C402   C     0.60010   0.88316   0.28501   0.00000  Uiso   1.00
C403   C     0.61154   0.88890   0.33808   0.00000  Uiso   1.00
C404   C     0.65662   0.85965   0.35835   0.00000  Uiso   1.00
C405   C     0.59677   0.77704   0.12733   0.00000  Uiso   1.00
C406   C     0.59696   0.82474   0.14615   0.00000  Uiso   1.00
C407   C     0.65247   0.84502   0.15341   0.00000  Uiso   1.00
C408   C     0.42531   0.69170   0.37084   0.00000  Uiso   1.00
C409   C     0.36988   0.71104   0.36977   0.00000  Uiso   1.00
C410   C     0.52559   0.78482   0.44806   0.00000  Uiso   1.00
C411   C     0.34214   0.70080   0.41384   0.00000  Uiso   1.00
C412   C     0.45426   0.73968   0.09928   0.00000  Uiso   1.00
C413   C     0.52866   0.78163   0.39928   0.00000  Uiso   1.00
C414   C     0.54404   0.76236   0.10297   0.00000  Uiso   1.00
C415   C     0.46694   0.72114   0.39671   0.00000  Uiso   1.00
C416   C     0.54223   0.76189   0.05343   0.00000  Uiso   1.00
F417   F     0.43234   0.52101   0.29801   0.00000  Uiso   1.00
F418   F     0.41632   0.97464   0.21220   0.00000  Uiso   1.00
F419   F     0.43012   0.61161   0.29675   0.00000  Uiso   1.00
F420   F     0.41521   0.88369   0.21313   0.00000  Uiso   1.00
F421   F     0.58689   0.76932   0.03182   0.00000  Uiso   1.00
F422   F     0.44368   0.68596   0.46820   0.00000  Uiso   1.00
H423   H     0.66236   0.71977   0.20628   0.00000  Uiso   1.00
H424   H     0.62755   0.67632   0.13809   0.00000  Uiso   1.00
H425   H     0.65531   0.62162   0.13473   0.00000  Uiso   1.00
H426   H     0.56653   0.58595   0.13861   0.00000  Uiso   1.00
H427   H     0.53795   0.64014   0.14125   0.00000  Uiso   1.00
H428   H     0.59206   0.65474   0.21725   0.00000  Uiso   1.00
H429   H     0.62417   0.60319   0.21434   0.00000  Uiso   1.00
H430   H     0.64510   0.82372   0.35505   0.00000  Uiso   1.00
H431   H     0.35894   0.86674   0.33984   0.00000  Uiso   1.00
H432   H     0.66603   0.86669   0.39611   0.00000  Uiso   1.00
H433   H     0.62222   0.92446   0.34558   0.00000  Uiso   1.00
H434   H     0.33853   0.77787   0.29452   0.00000  Uiso   1.00
H435   H     0.57586   0.87977   0.35585   0.00000  Uiso   1.00
H436   H     0.59771   0.84700   0.27717   0.00000  Uiso   1.00
H437   H     0.63352   0.89747   0.26691   0.00000  Uiso   1.00
H438   H     0.34437   0.82351   0.17781   0.00000  Uiso   1.00
H439   H     0.33660   0.84858   0.11946   0.00000  Uiso   1.00
H440   H     0.65099   0.87871   0.16865   0.00000  Uiso   1.00
H441   H     0.57276   0.84673   0.12129   0.00000  Uiso   1.00
H442   H     0.58085   0.82460   0.18029   0.00000  Uiso   1.00
H443   H     0.61127   0.75163   0.15257   0.00000  Uiso   1.00
H444   H     0.62813   0.77660   0.10318   0.00000  Uiso   1.00
H445   H     0.57132   0.53127   0.21011   0.00000  Uiso   1.00
H446   H     0.34495   0.66480   0.42406   0.00000  Uiso   1.00
H447   H     0.35897   0.72187   0.44315   0.00000  Uiso   1.00
H448   H     0.63324   0.70889   0.40681   0.00000  Uiso   1.00
H449   H     0.37200   0.74789   0.36406   0.00000  Uiso   1.00
H450   H     0.34507   0.69631   0.33975   0.00000  Uiso   1.00
H451   H     0.43312   0.68831   0.33452   0.00000  Uiso   1.00
H452   H     0.42606   0.65711   0.38601   0.00000  Uiso   1.00
H453   H     0.58475   0.97187   0.27999   0.00000  Uiso   1.00
H454   H     0.41366   0.73420   0.02997   0.00000  Uiso   1.00
H455   H     0.54686   0.81197   0.46629   0.00000  Uiso   1.00
H456   H     0.41928   0.73047   0.11599   0.00000  Uiso   1.00
H457   H     0.55278   0.80553   0.38161   0.00000  Uiso   1.00
H458   H     0.60887   0.64205   0.08815   0.00000  Uiso   1.00
N459   N     0.50000   0.74999   0.12623   0.00000  Uiso   1.00
N460   N     0.50000   0.75001   0.37376   0.00000  Uiso   1.00
O461   O     0.50000   0.68453   0.28974   0.00000  Uiso   1.00
O462   O     0.50000   0.81546   0.21026   0.00000  Uiso   1.00
O463   O     0.50000   0.68453   0.21026   0.00000  Uiso   1.00
O464   O     0.50000   0.81547   0.28974   0.00000  Uiso   1.00
O465   O     0.42392   0.75000   0.28045   0.00000  Uiso   1.00
O466   O     0.57608   0.75000   0.21955   0.00000  Uiso   1.00
O467   O     0.42392   0.74999   0.20096   0.00000  Uiso   1.00
O468   O     0.57608   0.75000   0.29903   0.00000  Uiso   1.00
Zn469  Zn    0.50000   0.75000   0.30307   0.00000  Uiso   1.00
Zn470  Zn    0.50000   0.74999   0.19693   0.00000  Uiso   1.00
C471   C     0.83460   0.66412   0.25056   0.00000  Uiso   1.00
C472   C     0.80173   0.72005   0.44614   0.00000  Uiso   1.00
C473   C     0.82908   0.75270   0.02578   0.00000  Uiso   1.00
C474   C     0.82916   0.75310   0.47271   0.00000  Uiso   1.00
C475   C     0.73421   0.74766   0.23862   0.00000  Uiso   1.00
C476   C     0.93257   0.75161   0.26144   0.00000  Uiso   1.00
C477   C     0.68002   0.74060   0.23422   0.00000  Uiso   1.00
C478   C     0.98694   0.75787   0.26605   0.00000  Uiso   1.00
C479   C     0.80133   0.54509   0.27486   0.00000  Uiso   1.00
C480   C     0.79297   0.95253   0.23041   0.00000  Uiso   1.00
C481   C     0.80105   0.59126   0.27512   0.00000  Uiso   1.00
C482   C     0.83416   0.83579   0.24956   0.00000  Uiso   1.00
C483   C     0.79266   0.90637   0.23020   0.00000  Uiso   1.00
C484   C     0.83807   0.61624   0.25170   0.00000  Uiso   1.00
C485   C     0.83727   0.88356   0.24859   0.00000  Uiso   1.00
C486   C     0.87658   0.59495   0.22838   0.00000  Uiso   1.00
C487   C     0.88351   0.90664   0.26647   0.00000  Uiso   1.00
C488   C     0.87592   0.54846   0.22814   0.00000  Uiso   1.00
C489   C     0.88326   0.95315   0.26632   0.00000  Uiso   1.00
C490   C     0.83827   0.52388   0.25076   0.00000  Uiso   1.00
C491   C     0.83802   0.97574   0.24916   0.00000  Uiso   1.00
C492   C     0.91954   0.61999   0.20467   0.00000  Uiso   1.00
C493   C     0.78445   0.74148   0.04957   0.00000  Uiso   1.00
C494   C     0.90723   0.62064   0.15118   0.00000  Uiso   1.00
C495   C     0.95266   0.64149   0.12666   0.00000  Uiso   1.00
C496   C     0.93343   0.88316   0.28501   0.00000  Uiso   1.00
C497   C     0.94487   0.88890   0.33808   0.00000  Uiso   1.00
C498   C     0.98995   0.85965   0.35835   0.00000  Uiso   1.00
C499   C     0.93011   0.77704   0.12733   0.00000  Uiso   1.00
C500   C     0.93029   0.82474   0.14615   0.00000  Uiso   1.00
C501   C     0.98580   0.84502   0.15341   0.00000  Uiso   1.00
C502   C     0.75865   0.69170   0.37084   0.00000  Uiso   1.00
C503   C     0.70321   0.71104   0.36977   0.00000  Uiso   1.00
C504   C     0.85892   0.78482   0.44806   0.00000  Uiso   1.00
C505   C     0.67548   0.70080   0.41384   0.00000  Uiso   1.00
C506   C     0.78759   0.73968   0.09928   0.00000  Uiso   1.00
C507   C     0.86200   0.78163   0.39928   0.00000  Uiso   1.00
C508   C     0.87737   0.76236   0.10297   0.00000  Uiso   1.00
C509   C     0.80027   0.72114   0.39671   0.00000  Uiso   1.00
C510   C     0.87557   0.76189   0.05343   0.00000  Uiso   1.00
F511   F     0.76568   0.52101   0.29801   0.00000  Uiso   1.00
F512   F     0.74965   0.97464   0.21220   0.00000  Uiso   1.00
F513   F     0.76345   0.61161   0.29675   0.00000  Uiso   1.00
F514   F     0.74854   0.88369   0.21313   0.00000  Uiso   1.00
F515   F     0.92023   0.76932   0.03182   0.00000  Uiso   1.00
F516   F     0.77701   0.68596   0.46820   0.00000  Uiso   1.00
H517   H     0.99570   0.71977   0.20628   0.00000  Uiso   1.00
H518   H     0.96089   0.67632   0.13809   0.00000  Uiso   1.00
H519   H     0.98864   0.62162   0.13473   0.00000  Uiso   1.00
H520   H     0.89986   0.58595   0.13861   0.00000  Uiso   1.00
H521   H     0.87128   0.64014   0.14125   0.00000  Uiso   1.00
H522   H     0.92539   0.65474   0.21725   0.00000  Uiso   1.00
H523   H     0.95750   0.60319   0.21434   0.00000  Uiso   1.00
H524   H     0.97843   0.82372   0.35505   0.00000  Uiso   1.00
H525   H     0.69227   0.86674   0.33984   0.00000  Uiso   1.00
H526   H     0.99936   0.86669   0.39611   0.00000  Uiso   1.00
H527   H     0.95556   0.92446   0.34558   0.00000  Uiso   1.00
H528   H     0.67186   0.77787   0.29452   0.00000  Uiso   1.00
H529   H     0.90919   0.87977   0.35585   0.00000  Uiso   1.00
H530   H     0.93104   0.84700   0.27717   0.00000  Uiso   1.00
H531   H     0.96686   0.89747   0.26691   0.00000  Uiso   1.00
H532   H     0.67770   0.82351   0.17781   0.00000  Uiso   1.00
H533   H     0.66994   0.84858   0.11946   0.00000  Uiso   1.00
H534   H     0.98432   0.87871   0.16865   0.00000  Uiso   1.00
H535   H     0.90609   0.84673   0.12129   0.00000  Uiso   1.00
H536   H     0.91418   0.82460   0.18029   0.00000  Uiso   1.00
H537   H     0.94460   0.75163   0.15257   0.00000  Uiso   1.00
H538   H     0.96146   0.77660   0.10318   0.00000  Uiso   1.00
H539   H     0.90465   0.53127   0.21011   0.00000  Uiso   1.00
H540   H     0.67828   0.66480   0.42406   0.00000  Uiso   1.00
H541   H     0.69230   0.72187   0.44315   0.00000  Uiso   1.00
H542   H     0.96657   0.70889   0.40681   0.00000  Uiso   1.00
H543   H     0.70533   0.74789   0.36406   0.00000  Uiso   1.00
H544   H     0.67841   0.69631   0.33975   0.00000  Uiso   1.00
H545   H     0.76645   0.68831   0.33452   0.00000  Uiso   1.00
H546   H     0.75940   0.65711   0.38601   0.00000  Uiso   1.00
H547   H     0.91809   0.97187   0.27999   0.00000  Uiso   1.00
H548   H     0.74699   0.73420   0.02997   0.00000  Uiso   1.00
H549   H     0.88020   0.81197   0.46629   0.00000  Uiso   1.00
H550   H     0.75262   0.73047   0.11599   0.00000  Uiso   1.00
H551   H     0.88612   0.80553   0.38161   0.00000  Uiso   1.00
H552   H     0.94220   0.64205   0.08815   0.00000  Uiso   1.00
N553   N     0.83333   0.74999   0.12623   0.00000  Uiso   1.00
N554   N     0.83333   0.75001   0.37376   0.00000  Uiso   1.00
O555   O     0.83334   0.68453   0.28974   0.00000  Uiso   1.00
O556   O     0.83333   0.81546   0.21026   0.00000  Uiso   1.00
O557   O     0.83334   0.68453   0.21026   0.00000  Uiso   1.00
O558   O     0.83333   0.81547   0.28974   0.00000  Uiso   1.00
O559   O     0.75725   0.75000   0.28045   0.00000  Uiso   1.00
O560   O     0.90942   0.75000   0.21955   0.00000  Uiso   1.00
O561   O     0.75725   0.74999   0.20096   0.00000  Uiso   1.00
O562   O     0.90942   0.75000   0.29903   0.00000  Uiso   1.00
Zn563  Zn    0.83333   0.75000   0.30307   0.00000  Uiso   1.00
Zn564  Zn    0.83333   0.74999   0.19693   0.00000  Uiso   1.00
C565   C     0.16793   0.16412   0.75056   0.00000  Uiso   1.00
C566   C     0.13506   0.22005   0.94614   0.00000  Uiso   1.00
C567   C     0.16241   0.25270   0.52578   0.00000  Uiso   1.00
C568   C     0.16250   0.25310   0.97271   0.00000  Uiso   1.00
C569   C     0.06755   0.24766   0.73862   0.00000  Uiso   1.00
C570   C     0.26590   0.25161   0.76144   0.00000  Uiso   1.00
C571   C     0.01335   0.24060   0.73422   0.00000  Uiso   1.00
C572   C     0.32027   0.25787   0.76605   0.00000  Uiso   1.00
C573   C     0.13466   0.04509   0.77486   0.00000  Uiso   1.00
C574   C     0.12630   0.45253   0.73041   0.00000  Uiso   1.00
C575   C     0.13438   0.09126   0.77512   0.00000  Uiso   1.00
C576   C     0.16750   0.33579   0.74956   0.00000  Uiso   1.00
C577   C     0.12600   0.40637   0.73020   0.00000  Uiso   1.00
C578   C     0.17140   0.11624   0.75170   0.00000  Uiso   1.00
C579   C     0.17060   0.38356   0.74859   0.00000  Uiso   1.00
C580   C     0.20992   0.09495   0.72838   0.00000  Uiso   1.00
C581   C     0.21685   0.40664   0.76647   0.00000  Uiso   1.00
C582   C     0.20925   0.04846   0.72814   0.00000  Uiso   1.00
C583   C     0.21659   0.45315   0.76632   0.00000  Uiso   1.00
C584   C     0.17161   0.02388   0.75076   0.00000  Uiso   1.00
C585   C     0.17135   0.47574   0.74916   0.00000  Uiso   1.00
C586   C     0.25287   0.11999   0.70467   0.00000  Uiso   1.00
C587   C     0.11778   0.24148   0.54957   0.00000  Uiso   1.00
C588   C     0.24056   0.12064   0.65118   0.00000  Uiso   1.00
C589   C     0.28599   0.14149   0.62666   0.00000  Uiso   1.00
C590   C     0.26677   0.38316   0.78501   0.00000  Uiso   1.00
C591   C     0.27820   0.38890   0.83808   0.00000  Uiso   1.00
C592   C     0.32328   0.35965   0.85835   0.00000  Uiso   1.00
C593   C     0.26344   0.27704   0.62733   0.00000  Uiso   1.00
C594   C     0.26363   0.32474   0.64615   0.00000  Uiso   1.00
C595   C     0.31914   0.34502   0.65341   0.00000  Uiso   1.00
C596   C     0.09198   0.19170   0.87084   0.00000  Uiso   1.00
C597   C     0.03655   0.21104   0.86977   0.00000  Uiso   1.00
C598   C     0.19225   0.28482   0.94806   0.00000  Uiso   1.00
C599   C     0.00881   0.20080   0.91384   0.00000  Uiso   1.00
C600   C     0.12092   0.23968   0.59928   0.00000  Uiso   1.00
C601   C     0.19533   0.28163   0.89928   0.00000  Uiso   1.00
C602   C     0.21071   0.26236   0.60297   0.00000  Uiso   1.00
C603   C     0.13361   0.22114   0.89671   0.00000  Uiso   1.00
C604   C     0.20890   0.26189   0.55343   0.00000  Uiso   1.00
F605   F     0.09901   0.02101   0.79801   0.00000  Uiso   1.00
F606   F     0.08298   0.47464   0.71220   0.00000  Uiso   1.00
F607   F     0.09678   0.11161   0.79675   0.00000  Uiso   1.00
F608   F     0.08187   0.38369   0.71313   0.00000  Uiso   1.00
F609   F     0.25356   0.26932   0.53182   0.00000  Uiso   1.00
F610   F     0.11035   0.18596   0.96820   0.00000  Uiso   1.00
H611   H     0.32903   0.21977   0.70628   0.00000  Uiso   1.00
H612   H     0.29422   0.17632   0.63809   0.00000  Uiso   1.00
H613   H     0.32198   0.12162   0.63473   0.00000  Uiso   1.00
H614   H     0.23319   0.08595   0.63861   0.00000  Uiso   1.00
H615   H     0.20461   0.14014   0.64125   0.00000  Uiso   1.00
H616   H     0.25873   0.15474   0.71725   0.00000  Uiso   1.00
H617   H     0.29083   0.10319   0.71434   0.00000  Uiso   1.00
H618   H     0.31176   0.32372   0.85505   0.00000  Uiso   1.00
H619   H     0.02561   0.36674   0.83984   0.00000  Uiso   1.00
H620   H     0.33270   0.36669   0.89611   0.00000  Uiso   1.00
H621   H     0.28889   0.42446   0.84558   0.00000  Uiso   1.00
H622   H     0.00519   0.27787   0.79452   0.00000  Uiso   1.00
H623   H     0.24253   0.37977   0.85585   0.00000  Uiso   1.00
H624   H     0.26438   0.34700   0.77717   0.00000  Uiso   1.00
H625   H     0.30019   0.39747   0.76691   0.00000  Uiso   1.00
H626   H     0.01103   0.32351   0.67781   0.00000  Uiso   1.00
H627   H     0.00327   0.34858   0.61946   0.00000  Uiso   1.00
H628   H     0.31765   0.37871   0.66865   0.00000  Uiso   1.00
H629   H     0.23942   0.34673   0.62129   0.00000  Uiso   1.00
H630   H     0.24752   0.32460   0.68029   0.00000  Uiso   1.00
H631   H     0.27793   0.25163   0.65257   0.00000  Uiso   1.00
H632   H     0.29479   0.27660   0.60318   0.00000  Uiso   1.00
H633   H     0.23799   0.03127   0.71011   0.00000  Uiso   1.00
H634   H     0.01162   0.16480   0.92406   0.00000  Uiso   1.00
H635   H     0.02564   0.22187   0.94315   0.00000  Uiso   1.00
H636   H     0.29991   0.20889   0.90681   0.00000  Uiso   1.00
H637   H     0.03866   0.24789   0.86406   0.00000  Uiso   1.00
H638   H     0.01174   0.19631   0.83975   0.00000  Uiso   1.00
H639   H     0.09979   0.18831   0.83452   0.00000  Uiso   1.00
H640   H     0.09273   0.15711   0.88601   0.00000  Uiso   1.00
H641   H     0.25142   0.47187   0.77999   0.00000  Uiso   1.00
H642   H     0.08032   0.23420   0.52997   0.00000  Uiso   1.00
H643   H     0.21353   0.31197   0.96629   0.00000  Uiso   1.00
H644   H     0.08595   0.23047   0.61599   0.00000  Uiso   1.00
H645   H     0.21945   0.30553   0.88161   0.00000  Uiso   1.00
H646   H     0.27553   0.14205   0.58815   0.00000  Uiso   1.00
N647   N     0.16667   0.24999   0.62623   0.00000  Uiso   1.00
N648   N     0.16667   0.25001   0.87376   0.00000  Uiso   1.00
O649   O     0.16667   0.18453   0.78974   0.00000  Uiso   1.00
O650   O     0.16666   0.31546   0.71026   0.00000  Uiso   1.00
O651   O     0.16667   0.18453   0.71026   0.00000  Uiso   1.00
O652   O     0.16666   0.31547   0.78974   0.00000  Uiso   1.00
O653   O     0.09058   0.25000   0.78045   0.00000  Uiso   1.00
O654   O     0.24275   0.25000   0.71955   0.00000  Uiso   1.00
O655   O     0.09058   0.24999   0.70096   0.00000  Uiso   1.00
O656   O     0.24275   0.25000   0.79903   0.00000  Uiso   1.00
Zn657  Zn    0.16667   0.25000   0.80307   0.00000  Uiso   1.00
Zn658  Zn    0.16667   0.24999   0.69693   0.00000  Uiso   1.00
C659   C     0.50127   0.16412   0.75056   0.00000  Uiso   1.00
C660   C     0.46840   0.22005   0.94614   0.00000  Uiso   1.00
C661   C     0.49574   0.25270   0.52578   0.00000  Uiso   1.00
C662   C     0.49583   0.25310   0.97271   0.00000  Uiso   1.00
C663   C     0.40088   0.24766   0.73862   0.00000  Uiso   1.00
C664   C     0.59923   0.25161   0.76144   0.00000  Uiso   1.00
C665   C     0.34669   0.24060   0.73422   0.00000  Uiso   1.00
C666   C     0.65360   0.25787   0.76605   0.00000  Uiso   1.00
C667   C     0.46799   0.04509   0.77486   0.00000  Uiso   1.00
C668   C     0.45963   0.45253   0.73041   0.00000  Uiso   1.00
C669   C     0.46771   0.09126   0.77512   0.00000  Uiso   1.00
C670   C     0.50083   0.33579   0.74956   0.00000  Uiso   1.00
C671   C     0.45933   0.40637   0.73020   0.00000  Uiso   1.00
C672   C     0.50473   0.11624   0.75170   0.00000  Uiso   1.00
C673   C     0.50393   0.38356   0.74859   0.00000  Uiso   1.00
C674   C     0.54325   0.09495   0.72838   0.00000  Uiso   1.00
C675   C     0.55018   0.40664   0.76647   0.00000  Uiso   1.00
C676   C     0.54259   0.04846   0.72814   0.00000  Uiso   1.00
C677   C     0.54992   0.45315   0.76632   0.00000  Uiso   1.00
C678   C     0.50494   0.02388   0.75076   0.00000  Uiso   1.00
C679   C     0.50468   0.47574   0.74916   0.00000  Uiso   1.00
C680   C     0.58620   0.11999   0.70467   0.00000  Uiso   1.00
C681   C     0.45111   0.24148   0.54957   0.00000  Uiso   1.00
C682   C     0.57390   0.12064   0.65118   0.00000  Uiso   1.00
C683   C     0.61933   0.14149   0.62666   0.00000  Uiso   1.00
C684   C     0.60010   0.38316   0.78501   0.00000  Uiso   1.00
C685   C     0.61154   0.38890   0.83808   0.00000  Uiso   1.00
C686   C     0.65662   0.35965   0.85835   0.00000  Uiso   1.00
C687   C     0.59677   0.27704   0.62733   0.00000  Uiso   1.00
C688   C     0.59696   0.32474   0.64615   0.00000  Uiso   1.00
C689   C     0.65247   0.34502   0.65341   0.00000  Uiso   1.00
C690   C     0.42531   0.19170   0.87084   0.00000  Uiso   1.00
C691   C     0.36988   0.21104   0.86977   0.00000  Uiso   1.00
C692   C     0.52559   0.28482   0.94806   0.00000  Uiso   1.00
C693   C     0.34214   0.20080   0.91384   0.00000  Uiso   1.00
C694   C     0.45426   0.23968   0.59928   0.00000  Uiso   1.00
C695   C     0.52866   0.28163   0.89928   0.00000  Uiso   1.00
C696   C     0.54404   0.26236   0.60297   0.00000  Uiso   1.00
C697   C     0.46694   0.22114   0.89671   0.00000  Uiso   1.00
C698   C     0.54223   0.26189   0.55343   0.00000  Uiso   1.00
F699   F     0.43234   0.02101   0.79801   0.00000  Uiso   1.00
F700   F     0.41632   0.47464   0.71220   0.00000  Uiso   1.00
F701   F     0.43012   0.11161   0.79675   0.00000  Uiso   1.00
F702   F     0.41521   0.38369   0.71313   0.00000  Uiso   1.00
F703   F     0.58689   0.26932   0.53182   0.00000  Uiso   1.00
F704   F     0.44368   0.18596   0.96820   0.00000  Uiso   1.00
H705   H     0.66236   0.21977   0.70628   0.00000  Uiso   1.00
H706   H     0.62755   0.17632   0.63809   0.00000  Uiso   1.00
H707   H     0.65531   0.12162   0.63473   0.00000  Uiso   1.00
H708   H     0.56653   0.08595   0.63861   0.00000  Uiso   1.00
H709   H     0.53795   0.14014   0.64125   0.00000  Uiso   1.00
H710   H     0.59206   0.15474   0.71725   0.00000  Uiso   1.00
H711   H     0.62417   0.10319   0.71434   0.00000  Uiso   1.00
H712   H     0.64510   0.32372   0.85505   0.00000  Uiso   1.00
H713   H     0.35894   0.36674   0.83984   0.00000  Uiso   1.00
H714   H     0.66603   0.36669   0.89611   0.00000  Uiso   1.00
H715   H     0.62222   0.42446   0.84558   0.00000  Uiso   1.00
H716   H     0.33853   0.27787   0.79452   0.00000  Uiso   1.00
H717   H     0.57586   0.37977   0.85585   0.00000  Uiso   1.00
H718   H     0.59771   0.34700   0.77717   0.00000  Uiso   1.00
H719   H     0.63352   0.39747   0.76691   0.00000  Uiso   1.00
H720   H     0.34437   0.32351   0.67781   0.00000  Uiso   1.00
H721   H     0.33660   0.34858   0.61946   0.00000  Uiso   1.00
H722   H     0.65099   0.37871   0.66865   0.00000  Uiso   1.00
H723   H     0.57276   0.34673   0.62129   0.00000  Uiso   1.00
H724   H     0.58085   0.32460   0.68029   0.00000  Uiso   1.00
H725   H     0.61127   0.25163   0.65257   0.00000  Uiso   1.00
H726   H     0.62813   0.27660   0.60318   0.00000  Uiso   1.00
H727   H     0.57132   0.03127   0.71011   0.00000  Uiso   1.00
H728   H     0.34495   0.16480   0.92406   0.00000  Uiso   1.00
H729   H     0.35897   0.22187   0.94315   0.00000  Uiso   1.00
H730   H     0.63324   0.20889   0.90681   0.00000  Uiso   1.00
H731   H     0.37200   0.24789   0.86406   0.00000  Uiso   1.00
H732   H     0.34507   0.19631   0.83975   0.00000  Uiso   1.00
H733   H     0.43312   0.18831   0.83452   0.00000  Uiso   1.00
H734   H     0.42606   0.15711   0.88601   0.00000  Uiso   1.00
H735   H     0.58475   0.47187   0.77999   0.00000  Uiso   1.00
H736   H     0.41366   0.23420   0.52997   0.00000  Uiso   1.00
H737   H     0.54686   0.31197   0.96629   0.00000  Uiso   1.00
H738   H     0.41928   0.23047   0.61599   0.00000  Uiso   1.00
H739   H     0.55278   0.30553   0.88161   0.00000  Uiso   1.00
H740   H     0.60887   0.14205   0.58815   0.00000  Uiso   1.00
N741   N     0.50000   0.24999   0.62623   0.00000  Uiso   1.00
N742   N     0.50000   0.25001   0.87376   0.00000  Uiso   1.00
O743   O     0.50000   0.18453   0.78974   0.00000  Uiso   1.00
O744   O     0.50000   0.31546   0.71026   0.00000  Uiso   1.00
O745   O     0.50000   0.18453   0.71026   0.00000  Uiso   1.00
O746   O     0.50000   0.31547   0.78974   0.00000  Uiso   1.00
O747   O     0.42392   0.25000   0.78045   0.00000  Uiso   1.00
O748   O     0.57608   0.25000   0.71955   0.00000  Uiso   1.00
O749   O     0.42392   0.24999   0.70096   0.00000  Uiso   1.00
O750   O     0.57608   0.25000   0.79903   0.00000  Uiso   1.00
Zn751  Zn    0.50000   0.25000   0.80307   0.00000  Uiso   1.00
Zn752  Zn    0.50000   0.24999   0.69693   0.00000  Uiso   1.00
C753   C     0.83460   0.16412   0.75056   0.00000  Uiso   1.00
C754   C     0.80173   0.22005   0.94614   0.00000  Uiso   1.00
C755   C     0.82908   0.25270   0.52578   0.00000  Uiso   1.00
C756   C     0.82916   0.25310   0.97271   0.00000  Uiso   1.00
C757   C     0.73421   0.24766   0.73862   0.00000  Uiso   1.00
C758   C     0.93257   0.25161   0.76144   0.00000  Uiso   1.00
C759   C     0.68002   0.24060   0.73422   0.00000  Uiso   1.00
C760   C     0.98694   0.25787   0.76605   0.00000  Uiso   1.00
C761   C     0.80133   0.04509   0.77486   0.00000  Uiso   1.00
C762   C     0.79297   0.45253   0.73041   0.00000  Uiso   1.00
C763   C     0.80105   0.09126   0.77512   0.00000  Uiso   1.00
C764   C     0.83416   0.33579   0.74956   0.00000  Uiso   1.00
C765   C     0.79266   0.40637   0.73020   0.00000  Uiso   1.00
C766   C     0.83807   0.11624   0.75170   0.00000  Uiso   1.00
C767   C     0.83727   0.38356   0.74859   0.00000  Uiso   1.00
C768   C     0.87658   0.09495   0.72838   0.00000  Uiso   1.00
C769   C     0.88351   0.40664   0.76647   0.00000  Uiso   1.00
C770   C     0.87592   0.04846   0.72814   0.00000  Uiso   1.00
C771   C     0.88326   0.45315   0.76632   0.00000  Uiso   1.00
C772   C     0.83827   0.02388   0.75076   0.00000  Uiso   1.00
C773   C     0.83802   0.47574   0.74916   0.00000  Uiso   1.00
C774   C     0.91954   0.11999   0.70467   0.00000  Uiso   1.00
C775   C     0.78445   0.24148   0.54957   0.00000  Uiso   1.00
C776   C     0.90723   0.12064   0.65118   0.00000  Uiso   1.00
C777   C     0.95266   0.14149   0.62666   0.00000  Uiso   1.00
C778   C     0.93343   0.38316   0.78501   0.00000  Uiso   1.00
C779   C     0.94487   0.38890   0.83808   0.00000  Uiso   1.00
C780   C     0.98995   0.35965   0.85835   0.00000  Uiso   1.00
C781   C     0.93011   0.27704   0.62733   0.00000  Uiso   1.00
C782   C     0.93029   0.32474   0.64615   0.00000  Uiso   1.00
C783   C     0.98580   0.34502   0.65341   0.00000  Uiso   1.00
C784   C     0.75865   0.19170   0.87084   0.00000  Uiso   1.00
C785   C     0.70321   0.21104   0.86977   0.00000  Uiso   1.00
C786   C     0.85892   0.28482   0.94806   0.00000  Uiso   1.00
C787   C     0.67548   0.20080   0.91384   0.00000  Uiso   1.00
C788   C     0.78759   0.23968   0.59928   0.00000  Uiso   1.00
C789   C     0.86200   0.28163   0.89928   0.00000  Uiso   1.00
C790   C     0.87737   0.26236   0.60297   0.00000  Uiso   1.00
C791   C     0.80027   0.22114   0.89671   0.00000  Uiso   1.00
C792   C     0.87557   0.26189   0.55343   0.00000  Uiso   1.00
F793   F     0.76568   0.02101   0.79801   0.00000  Uiso   1.00
F794   F     0.74965   0.47464   0.71220   0.00000  Uiso   1.00
F795   F     0.76345   0.11161   0.79675   0.00000  Uiso   1.00
F796   F     0.74854   0.38369   0.71313   0.00000  Uiso   1.00
F797   F     0.92023   0.26932   0.53182   0.00000  Uiso   1.00
F798   F     0.77701   0.18596   0.96820   0.00000  Uiso   1.00
H799   H     0.99570   0.21977   0.70628   0.00000  Uiso   1.00
H800   H     0.96089   0.17632   0.63809   0.00000  Uiso   1.00
H801   H     0.98864   0.12162   0.63473   0.00000  Uiso   1.00
H802   H     0.89986   0.08595   0.63861   0.00000  Uiso   1.00
H803   H     0.87128   0.14014   0.64125   0.00000  Uiso   1.00
H804   H     0.92539   0.15474   0.71725   0.00000  Uiso   1.00
H805   H     0.95750   0.10319   0.71434   0.00000  Uiso   1.00
H806   H     0.97843   0.32372   0.85505   0.00000  Uiso   1.00
H807   H     0.69227   0.36674   0.83984   0.00000  Uiso   1.00
H808   H     0.99936   0.36669   0.89611   0.00000  Uiso   1.00
H809   H     0.95556   0.42446   0.84558   0.00000  Uiso   1.00
H810   H     0.67186   0.27787   0.79452   0.00000  Uiso   1.00
H811   H     0.90919   0.37977   0.85585   0.00000  Uiso   1.00
H812   H     0.93104   0.34700   0.77717   0.00000  Uiso   1.00
H813   H     0.96686   0.39747   0.76691   0.00000  Uiso   1.00
H814   H     0.67770   0.32351   0.67781   0.00000  Uiso   1.00
H815   H     0.66994   0.34858   0.61946   0.00000  Uiso   1.00
H816   H     0.98432   0.37871   0.66865   0.00000  Uiso   1.00
H817   H     0.90609   0.34673   0.62129   0.00000  Uiso   1.00
H818   H     0.91418   0.32460   0.68029   0.00000  Uiso   1.00
H819   H     0.94460   0.25163   0.65257   0.00000  Uiso   1.00
H820   H     0.96146   0.27660   0.60318   0.00000  Uiso   1.00
H821   H     0.90465   0.03127   0.71011   0.00000  Uiso   1.00
H822   H     0.67828   0.16480   0.92406   0.00000  Uiso   1.00
H823   H     0.69230   0.22187   0.94315   0.00000  Uiso   1.00
H824   H     0.96657   0.20889   0.90681   0.00000  Uiso   1.00
H825   H     0.70533   0.24789   0.86406   0.00000  Uiso   1.00
H826   H     0.67841   0.19631   0.83975   0.00000  Uiso   1.00
H827   H     0.76645   0.18831   0.83452   0.00000  Uiso   1.00
H828   H     0.75940   0.15711   0.88601   0.00000  Uiso   1.00
H829   H     0.91809   0.47187   0.77999   0.00000  Uiso   1.00
H830   H     0.74699   0.23420   0.52997   0.00000  Uiso   1.00
H831   H     0.88020   0.31197   0.96629   0.00000  Uiso   1.00
H832   H     0.75262   0.23047   0.61599   0.00000  Uiso   1.00
H833   H     0.88612   0.30553   0.88161   0.00000  Uiso   1.00
H834   H     0.94220   0.14205   0.58815   0.00000  Uiso   1.00
N835   N     0.83333   0.24999   0.62623   0.00000  Uiso   1.00
N836   N     0.83333   0.25001   0.87376   0.00000  Uiso   1.00
O837   O     0.83334   0.18453   0.78974   0.00000  Uiso   1.00
O838   O     0.83333   0.31546   0.71026   0.00000  Uiso   1.00
O839   O     0.83334   0.18453   0.71026   0.00000  Uiso   1.00
O840   O     0.83333   0.31547   0.78974   0.00000  Uiso   1.00
O841   O     0.75725   0.25000   0.78045   0.00000  Uiso   1.00
O842   O     0.90942   0.25000   0.71955   0.00000  Uiso   1.00
O843   O     0.75725   0.24999   0.70096   0.00000  Uiso   1.00
O844   O     0.90942   0.25000   0.79903   0.00000  Uiso   1.00
Zn845  Zn    0.83333   0.25000   0.80307   0.00000  Uiso   1.00
Zn846  Zn    0.83333   0.24999   0.69693   0.00000  Uiso   1.00
C847   C     0.16793   0.66412   0.75056   0.00000  Uiso   1.00
C848   C     0.13506   0.72005   0.94614   0.00000  Uiso   1.00
C849   C     0.16241   0.75270   0.52578   0.00000  Uiso   1.00
C850   C     0.16250   0.75310   0.97271   0.00000  Uiso   1.00
C851   C     0.06755   0.74766   0.73862   0.00000  Uiso   1.00
C852   C     0.26590   0.75161   0.76144   0.00000  Uiso   1.00
C853   C     0.01335   0.74060   0.73422   0.00000  Uiso   1.00
C854   C     0.32027   0.75787   0.76605   0.00000  Uiso   1.00
C855   C     0.13466   0.54509   0.77486   0.00000  Uiso   1.00
C856   C     0.12630   0.95253   0.73041   0.00000  Uiso   1.00
C857   C     0.13438   0.59126   0.77512   0.00000  Uiso   1.00
C858   C     0.16750   0.83579   0.74956   0.00000  Uiso   1.00
C859   C     0.12600   0.90637   0.73020   0.00000  Uiso   1.00
C860   C     0.17140   0.61624   0.75170   0.00000  Uiso   1.00
C861   C     0.17060   0.88356   0.74859   0.00000  Uiso   1.00
C862   C     0.20992   0.59495   0.72838   0.00000  Uiso   1.00
C863   C     0.21685   0.90664   0.76647   0.00000  Uiso   1.00
C864   C     0.20925   0.54846   0.72814   0.00000  Uiso   1.00
C865   C     0.21659   0.95315   0.76632   0.00000  Uiso   1.00
C866   C     0.17161   0.52388   0.75076   0.00000  Uiso   1.00
C867   C     0.17135   0.97574   0.74916   0.00000  Uiso   1.00
C868   C     0.25287   0.61999   0.70467   0.00000  Uiso   1.00
C869   C     0.11778   0.74148   0.54957   0.00000  Uiso   1.00
C870   C     0.24056   0.62064   0.65118   0.00000  Uiso   1.00
C871   C     0.28599   0.64149   0.62666   0.00000  Uiso   1.00
C872   C     0.26677   0.88316   0.78501   0.00000  Uiso   1.00
C873   C     0.27820   0.88890   0.83808   0.00000  Uiso   1.00
C874   C     0.32328   0.85965   0.85835   0.00000  Uiso   1.00
C875   C     0.26344   0.77704   0.62733   0.00000  Uiso   1.00
C876   C     0.26363   0.82474   0.64615   0.00000  Uiso   1.00
C877   C     0.31914   0.84502   0.65341   0.00000  Uiso   1.00
C878   C     0.09198   0.69170   0.87084   0.00000  Uiso   1.00
C879   C     0.03655   0.71104   0.86977   0.00000  Uiso   1.00
C880   C     0.19225   0.78482   0.94806   0.00000  Uiso   1.00
C881   C     0.00881   0.70080   0.91384   0.00000  Uiso   1.00
C882   C     0.12092   0.73968   0.59928   0.00000  Uiso   1.00
C883   C     0.19533   0.78163   0.89928   0.00000  Uiso   1.00
C884   C     0.21071   0.76236   0.60297   0.00000  Uiso   1.00
C885   C     0.13361   0.72114   0.89671   0.00000  Uiso   1.00
C886   C     0.20890   0.76189   0.55343   0.00000  Uiso   1.00
F887   F     0.09901   0.52101   0.79801   0.00000  Uiso   1.00
F888   F     0.08298   0.97464   0.71220   0.00000  Uiso   1.00
F889   F     0.09678   0.61161   0.79675   0.00000  Uiso   1.00
F890   F     0.08187   0.88369   0.71313   0.00000  Uiso   1.00
F891   F     0.25356   0.76932   0.53182   0.00000  Uiso   1.00
F892   F     0.11035   0.68596   0.96820   0.00000  Uiso   1.00
H893   H     0.32903   0.71977   0.70628   0.00000  Uiso   1.00
H894   H     0.29422   0.67632   0.63809   0.00000  Uiso   1.00
H895   H     0.32198   0.62162   0.63473   0.00000  Uiso   1.00
H896   H     0.23319   0.58595   0.63861   0.00000  Uiso   1.00
H897   H     0.20461   0.64014   0.64125   0.00000  Uiso   1.00
H898   H     0.25873   0.65474   0.71725   0.00000  Uiso   1.00
H899   H     0.29083   0.60319   0.71434   0.00000  Uiso   1.00
H900   H     0.31176   0.82372   0.85505   0.00000  Uiso   1.00
H901   H     0.02561   0.86674   0.83984   0.00000  Uiso   1.00
H902   H     0.33270   0.86669   0.89611   0.00000  Uiso   1.00
H903   H     0.28889   0.92446   0.84558   0.00000  Uiso   1.00
H904   H     0.00519   0.77787   0.79452   0.00000  Uiso   1.00
H905   H     0.24253   0.87977   0.85585   0.00000  Uiso   1.00
H906   H     0.26438   0.84700   0.77717   0.00000  Uiso   1.00
H907   H     0.30019   0.89747   0.76691   0.00000  Uiso   1.00
H908   H     0.01103   0.82351   0.67781   0.00000  Uiso   1.00
H909   H     0.00327   0.84858   0.61946   0.00000  Uiso   1.00
H910   H     0.31765   0.87871   0.66865   0.00000  Uiso   1.00
H911   H     0.23942   0.84673   0.62129   0.00000  Uiso   1.00
H912   H     0.24752   0.82460   0.68029   0.00000  Uiso   1.00
H913   H     0.27793   0.75163   0.65257   0.00000  Uiso   1.00
H914   H     0.29479   0.77660   0.60318   0.00000  Uiso   1.00
H915   H     0.23799   0.53127   0.71011   0.00000  Uiso   1.00
H916   H     0.01162   0.66480   0.92406   0.00000  Uiso   1.00
H917   H     0.02564   0.72187   0.94315   0.00000  Uiso   1.00
H918   H     0.29991   0.70889   0.90681   0.00000  Uiso   1.00
H919   H     0.03866   0.74789   0.86406   0.00000  Uiso   1.00
H920   H     0.01174   0.69631   0.83975   0.00000  Uiso   1.00
H921   H     0.09979   0.68831   0.83452   0.00000  Uiso   1.00
H922   H     0.09273   0.65711   0.88601   0.00000  Uiso   1.00
H923   H     0.25142   0.97187   0.77999   0.00000  Uiso   1.00
H924   H     0.08032   0.73420   0.52997   0.00000  Uiso   1.00
H925   H     0.21353   0.81197   0.96629   0.00000  Uiso   1.00
H926   H     0.08595   0.73047   0.61599   0.00000  Uiso   1.00
H927   H     0.21945   0.80553   0.88161   0.00000  Uiso   1.00
H928   H     0.27553   0.64205   0.58815   0.00000  Uiso   1.00
N929   N     0.16667   0.74999   0.62623   0.00000  Uiso   1.00
N930   N     0.16667   0.75001   0.87376   0.00000  Uiso   1.00
O931   O     0.16667   0.68453   0.78974   0.00000  Uiso   1.00
O932   O     0.16666   0.81546   0.71026   0.00000  Uiso   1.00
O933   O     0.16667   0.68453   0.71026   0.00000  Uiso   1.00
O934   O     0.16666   0.81547   0.78974   0.00000  Uiso   1.00
O935   O     0.09058   0.75000   0.78045   0.00000  Uiso   1.00
O936   O     0.24275   0.75000   0.71955   0.00000  Uiso   1.00
O937   O     0.09058   0.74999   0.70096   0.00000  Uiso   1.00
O938   O     0.24275   0.75000   0.79903   0.00000  Uiso   1.00
Zn939  Zn    0.16667   0.75000   0.80307   0.00000  Uiso   1.00
Zn940  Zn    0.16667   0.74999   0.69693   0.00000  Uiso   1.00
C941   C     0.50127   0.66412   0.75056   0.00000  Uiso   1.00
C942   C     0.46840   0.72005   0.94614   0.00000  Uiso   1.00
C943   C     0.49574   0.75270   0.52578   0.00000  Uiso   1.00
C944   C     0.49583   0.75310   0.97271   0.00000  Uiso   1.00
C945   C     0.40088   0.74766   0.73862   0.00000  Uiso   1.00
C946   C     0.59923   0.75161   0.76144   0.00000  Uiso   1.00
C947   C     0.34669   0.74060   0.73422   0.00000  Uiso   1.00
C948   C     0.65360   0.75787   0.76605   0.00000  Uiso   1.00
C949   C     0.46799   0.54509   0.77486   0.00000  Uiso   1.00
C950   C     0.45963   0.95253   0.73041   0.00000  Uiso   1.00
C951   C     0.46771   0.59126   0.77512   0.00000  Uiso   1.00
C952   C     0.50083   0.83579   0.74956   0.00000  Uiso   1.00
C953   C     0.45933   0.90637   0.73020   0.00000  Uiso   1.00
C954   C     0.50473   0.61624   0.75170   0.00000  Uiso   1.00
C955   C     0.50393   0.88356   0.74859   0.00000  Uiso   1.00
C956   C     0.54325   0.59495   0.72838   0.00000  Uiso   1.00
C957   C     0.55018   0.90664   0.76647   0.00000  Uiso   1.00
C958   C     0.54259   0.54846   0.72814   0.00000  Uiso   1.00
C959   C     0.54992   0.95315   0.76632   0.00000  Uiso   1.00
C960   C     0.50494   0.52388   0.75076   0.00000  Uiso   1.00
C961   C     0.50468   0.97574   0.74916   0.00000  Uiso   1.00
C962   C     0.58620   0.61999   0.70467   0.00000  Uiso   1.00
C963   C     0.45111   0.74148   0.54957   0.00000  Uiso   1.00
C964   C     0.57390   0.62064   0.65118   0.00000  Uiso   1.00
C965   C     0.61933   0.64149   0.62666   0.00000  Uiso   1.00
C966   C     0.60010   0.88316   0.78501   0.00000  Uiso   1.00
C967   C     0.61154   0.88890   0.83808   0.00000  Uiso   1.00
C968   C     0.65662   0.85965   0.85835   0.00000  Uiso   1.00
C969   C     0.59677   0.77704   0.62733   0.00000  Uiso   1.00
C970   C     0.59696   0.82474   0.64615   0.00000  Uiso   1.00
C971   C     0.65247   0.84502   0.65341   0.00000  Uiso   1.00
C972   C     0.42531   0.69170   0.87084   0.00000  Uiso   1.00
C973   C     0.36988   0.71104   0.86977   0.00000  Uiso   1.00
C974   C     0.52559   0.78482   0.94806   0.00000  Uiso   1.00
C975   C     0.34214   0.70080   0.91384   0.00000  Uiso   1.00
C976   C     0.45426   0.73968   0.59928   0.00000  Uiso   1.00
C977   C     0.52866   0.78163   0.89928   0.00000  Uiso   1.00
C978   C     0.54404   0.76236   0.60297   0.00000  Uiso   1.00
C979   C     0.46694   0.72114   0.89671   0.00000  Uiso   1.00
C980   C     0.54223   0.76189   0.55343   0.00000  Uiso   1.00
F981   F     0.43234   0.52101   0.79801   0.00000  Uiso   1.00
F982   F     0.41632   0.97464   0.71220   0.00000  Uiso   1.00
F983   F     0.43012   0.61161   0.79675   0.00000  Uiso   1.00
F984   F     0.41521   0.88369   0.71313   0.00000  Uiso   1.00
F985   F     0.58689   0.76932   0.53182   0.00000  Uiso   1.00
F986   F     0.44368   0.68596   0.96820   0.00000  Uiso   1.00
H987   H     0.66236   0.71977   0.70628   0.00000  Uiso   1.00
H988   H     0.62755   0.67632   0.63809   0.00000  Uiso   1.00
H989   H     0.65531   0.62162   0.63473   0.00000  Uiso   1.00
H990   H     0.56653   0.58595   0.63861   0.00000  Uiso   1.00
H991   H     0.53795   0.64014   0.64125   0.00000  Uiso   1.00
H992   H     0.59206   0.65474   0.71725   0.00000  Uiso   1.00
H993   H     0.62417   0.60319   0.71434   0.00000  Uiso   1.00
H994   H     0.64510   0.82372   0.85505   0.00000  Uiso   1.00
H995   H     0.35894   0.86674   0.83984   0.00000  Uiso   1.00
H996   H     0.66603   0.86669   0.89611   0.00000  Uiso   1.00
H997   H     0.62222   0.92446   0.84558   0.00000  Uiso   1.00
H998   H     0.33853   0.77787   0.79452   0.00000  Uiso   1.00
H999   H     0.57586   0.87977   0.85585   0.00000  Uiso   1.00
H1000  H     0.59771   0.84700   0.77717   0.00000  Uiso   1.00
H1001  H     0.63352   0.89747   0.76691   0.00000  Uiso   1.00
H1002  H     0.34437   0.82351   0.67781   0.00000  Uiso   1.00
H1003  H     0.33660   0.84858   0.61946   0.00000  Uiso   1.00
H1004  H     0.65099   0.87871   0.66865   0.00000  Uiso   1.00
H1005  H     0.57276   0.84673   0.62129   0.00000  Uiso   1.00
H1006  H     0.58085   0.82460   0.68029   0.00000  Uiso   1.00
H1007  H     0.61127   0.75163   0.65257   0.00000  Uiso   1.00
H1008  H     0.62813   0.77660   0.60318   0.00000  Uiso   1.00
H1009  H     0.57132   0.53127   0.71011   0.00000  Uiso   1.00
H1010  H     0.34495   0.66480   0.92406   0.00000  Uiso   1.00
H1011  H     0.35897   0.72187   0.94315   0.00000  Uiso   1.00
H1012  H     0.63324   0.70889   0.90681   0.00000  Uiso   1.00
H1013  H     0.37200   0.74789   0.86406   0.00000  Uiso   1.00
H1014  H     0.34507   0.69631   0.83975   0.00000  Uiso   1.00
H1015  H     0.43312   0.68831   0.83452   0.00000  Uiso   1.00
H1016  H     0.42606   0.65711   0.88601   0.00000  Uiso   1.00
H1017  H     0.58475   0.97187   0.77999   0.00000  Uiso   1.00
H1018  H     0.41366   0.73420   0.52997   0.00000  Uiso   1.00
H1019  H     0.54686   0.81197   0.96629   0.00000  Uiso   1.00
H1020  H     0.41928   0.73047   0.61599   0.00000  Uiso   1.00
H1021  H     0.55278   0.80553   0.88161   0.00000  Uiso   1.00
H1022  H     0.60887   0.64205   0.58815   0.00000  Uiso   1.00
N1023  N     0.50000   0.74999   0.62623   0.00000  Uiso   1.00
N1024  N     0.50000   0.75001   0.87376   0.00000  Uiso   1.00
O1025  O     0.50000   0.68453   0.78974   0.00000  Uiso   1.00
O1026  O     0.50000   0.81546   0.71026   0.00000  Uiso   1.00
O1027  O     0.50000   0.68453   0.71026   0.00000  Uiso   1.00
O1028  O     0.50000   0.81547   0.78974   0.00000  Uiso   1.00
O1029  O     0.42392   0.75000   0.78045   0.00000  Uiso   1.00
O1030  O     0.57608   0.75000   0.71955   0.00000  Uiso   1.00
O1031  O     0.42392   0.74999   0.70096   0.00000  Uiso   1.00
O1032  O     0.57608   0.75000   0.79903   0.00000  Uiso   1.00
Zn1033 Zn    0.50000   0.75000   0.80307   0.00000  Uiso   1.00
Zn1034 Zn    0.50000   0.74999   0.69693   0.00000  Uiso   1.00
C1035  C     0.83460   0.66412   0.75056   0.00000  Uiso   1.00
C1036  C     0.80173   0.72005   0.94614   0.00000  Uiso   1.00
C1037  C     0.82908   0.75270   0.52578   0.00000  Uiso   1.00
C1038  C     0.82916   0.75310   0.97271   0.00000  Uiso   1.00
C1039  C     0.73421   0.74766   0.73862   0.00000  Uiso   1.00
C1040  C     0.93257   0.75161   0.76144   0.00000  Uiso   1.00
C1041  C     0.68002   0.74060   0.73422   0.00000  Uiso   1.00
C1042  C     0.98694   0.75787   0.76605   0.00000  Uiso   1.00
C1043  C     0.80133   0.54509   0.77486   0.00000  Uiso   1.00
C1044  C     0.79297   0.95253   0.73041   0.00000  Uiso   1.00
C1045  C     0.80105   0.59126   0.77512   0.00000  Uiso   1.00
C1046  C     0.83416   0.83579   0.74956   0.00000  Uiso   1.00
C1047  C     0.79266   0.90637   0.73020   0.00000  Uiso   1.00
C1048  C     0.83807   0.61624   0.75170   0.00000  Uiso   1.00
C1049  C     0.83727   0.88356   0.74859   0.00000  Uiso   1.00
C1050  C     0.87658   0.59495   0.72838   0.00000  Uiso   1.00
C1051  C     0.88351   0.90664   0.76647   0.00000  Uiso   1.00
C1052  C     0.87592   0.54846   0.72814   0.00000  Uiso   1.00
C1053  C     0.88326   0.95315   0.76632   0.00000  Uiso   1.00
C1054  C     0.83827   0.52388   0.75076   0.00000  Uiso   1.00
C1055  C     0.83802   0.97574   0.74916   0.00000  Uiso   1.00
C1056  C     0.91954   0.61999   0.70467   0.00000  Uiso   1.00
C1057  C     0.78445   0.74148   0.54957   0.00000  Uiso   1.00
C1058  C     0.90723   0.62064   0.65118   0.00000  Uiso   1.00
C1059  C     0.95266   0.64149   0.62666   0.00000  Uiso   1.00
C1060  C     0.93343   0.88316   0.78501   0.00000  Uiso   1.00
C1061  C     0.94487   0.88890   0.83808   0.00000  Uiso   1.00
C1062  C     0.98995   0.85965   0.85835   0.00000  Uiso   1.00
C1063  C     0.93011   0.77704   0.62733   0.00000  Uiso   1.00
C1064  C     0.93029   0.82474   0.64615   0.00000  Uiso   1.00
C1065  C     0.98580   0.84502   0.65341   0.00000  Uiso   1.00
C1066  C     0.75865   0.69170   0.87084   0.00000  Uiso   1.00
C1067  C     0.70321   0.71104   0.86977   0.00000  Uiso   1.00
C1068  C     0.85892   0.78482   0.94806   0.00000  Uiso   1.00
C1069  C     0.67548   0.70080   0.91384   0.00000  Uiso   1.00
C1070  C     0.78759   0.73968   0.59928   0.00000  Uiso   1.00
C1071  C     0.86200   0.78163   0.89928   0.00000  Uiso   1.00
C1072  C     0.87737   0.76236   0.60297   0.00000  Uiso   1.00
C1073  C     0.80027   0.72114   0.89671   0.00000  Uiso   1.00
C1074  C     0.87557   0.76189   0.55343   0.00000  Uiso   1.00
F1075  F     0.76568   0.52101   0.79801   0.00000  Uiso   1.00
F1076  F     0.74965   0.97464   0.71220   0.00000  Uiso   1.00
F1077  F     0.76345   0.61161   0.79675   0.00000  Uiso   1.00
F1078  F     0.74854   0.88369   0.71313   0.00000  Uiso   1.00
F1079  F     0.92023   0.76932   0.53182   0.00000  Uiso   1.00
F1080  F     0.77701   0.68596   0.96820   0.00000  Uiso   1.00
H1081  H     0.99570   0.71977   0.70628   0.00000  Uiso   1.00
H1082  H     0.96089   0.67632   0.63809   0.00000  Uiso   1.00
H1083  H     0.98864   0.62162   0.63473   0.00000  Uiso   1.00
H1084  H     0.89986   0.58595   0.63861   0.00000  Uiso   1.00
H1085  H     0.87128   0.64014   0.64125   0.00000  Uiso   1.00
H1086  H     0.92539   0.65474   0.71725   0.00000  Uiso   1.00
H1087  H     0.95750   0.60319   0.71434   0.00000  Uiso   1.00
H1088  H     0.97843   0.82372   0.85505   0.00000  Uiso   1.00
H1089  H     0.69227   0.86674   0.83984   0.00000  Uiso   1.00
H1090  H     0.99936   0.86669   0.89611   0.00000  Uiso   1.00
H1091  H     0.95556   0.92446   0.84558   0.00000  Uiso   1.00
H1092  H     0.67186   0.77787   0.79452   0.00000  Uiso   1.00
H1093  H     0.90919   0.87977   0.85585   0.00000  Uiso   1.00
H1094  H     0.93104   0.84700   0.77717   0.00000  Uiso   1.00
H1095  H     0.96686   0.89747   0.76691   0.00000  Uiso   1.00
H1096  H     0.67770   0.82351   0.67781   0.00000  Uiso   1.00
H1097  H     0.66994   0.84858   0.61946   0.00000  Uiso   1.00
H1098  H     0.98432   0.87871   0.66865   0.00000  Uiso   1.00
H1099  H     0.90609   0.84673   0.62129   0.00000  Uiso   1.00
H1100  H     0.91418   0.82460   0.68029   0.00000  Uiso   1.00
H1101  H     0.94460   0.75163   0.65257   0.00000  Uiso   1.00
H1102  H     0.96146   0.77660   0.60318   0.00000  Uiso   1.00
H1103  H     0.90465   0.53127   0.71011   0.00000  Uiso   1.00
H1104  H     0.67828   0.66480   0.92406   0.00000  Uiso   1.00
H1105  H     0.69230   0.72187   0.94315   0.00000  Uiso   1.00
H1106  H     0.96657   0.70889   0.90681   0.00000  Uiso   1.00
H1107  H     0.70533   0.74789   0.86406   0.00000  Uiso   1.00
H1108  H     0.67841   0.69631   0.83975   0.00000  Uiso   1.00
H1109  H     0.76645   0.68831   0.83452   0.00000  Uiso   1.00
H1110  H     0.75940   0.65711   0.88601   0.00000  Uiso   1.00
H1111  H     0.91809   0.97187   0.77999   0.00000  Uiso   1.00
H1112  H     0.74699   0.73420   0.52997   0.00000  Uiso   1.00
H1113  H     0.88020   0.81197   0.96629   0.00000  Uiso   1.00
H1114  H     0.75262   0.73047   0.61599   0.00000  Uiso   1.00
H1115  H     0.88612   0.80553   0.88161   0.00000  Uiso   1.00
H1116  H     0.94220   0.64205   0.58815   0.00000  Uiso   1.00
N1117  N     0.83333   0.74999   0.62623   0.00000  Uiso   1.00
N1118  N     0.83333   0.75001   0.87376   0.00000  Uiso   1.00
O1119  O     0.83334   0.68453   0.78974   0.00000  Uiso   1.00
O1120  O     0.83333   0.81546   0.71026   0.00000  Uiso   1.00
O1121  O     0.83334   0.68453   0.71026   0.00000  Uiso   1.00
O1122  O     0.83333   0.81547   0.78974   0.00000  Uiso   1.00
O1123  O     0.75725   0.75000   0.78045   0.00000  Uiso   1.00
O1124  O     0.90942   0.75000   0.71955   0.00000  Uiso   1.00
O1125  O     0.75725   0.74999   0.70096   0.00000  Uiso   1.00
O1126  O     0.90942   0.75000   0.79903   0.00000  Uiso   1.00
Zn1127 Zn    0.83333   0.75000   0.80307   0.00000  Uiso   1.00
Zn1128 Zn    0.83333   0.74999   0.69693   0.00000  Uiso   1.00
loop_
_geom_bond_atom_site_label_1
_geom_bond_atom_site_label_2
_geom_bond_distance
_geom_bond_site_symmetry_2
_ccdc_geom_bond_type
C1     O87     1.291   .     A
C1     O85     1.295   .     A
C1     C14     1.436   .     S
C2     F46     1.359   .     S
C2     C39     1.414   .     A
C2     C4      1.395   .     A
C3     C23     1.413   .     A
C3     C40     1.389   .     A
C3     C568    1.522   1_554 S
C4     C34     1.417   .     A
C4     C567    1.522   .     S
C5     C7      1.390   .     S
C5     O91     1.278   .     A
C5     O89     1.287   .     A
C6     C8      1.391   .     S
C6     O90     1.288   .     A
C6     O92     1.278   .     A
C7     C196    1.310   1_455 S
C7     H235    1.083   1_455 S
C8     C101    1.310   .     S
C8     H152    1.085   .     S
C9     C20     1.397   .     A
C9     C11     1.380   .     A
C9     F41     1.359   .     S
C10    F42     1.359   .     S
C10    C21     1.397   .     A
C10    C13     1.380   .     A
C11    C14     1.401   .     A
C11    F43     1.358   .     S
C12    O88     1.291   .     A
C12    C15     1.428   .     S
C12    O86     1.291   .     A
C13    C15     1.397   .     A
C13    F44     1.357   .     S
C14    C16     1.415   .     A
C15    C17     1.412   .     A
C16    C22     1.517   .     S
C16    C18     1.389   .     A
C17    C26     1.517   .     S
C17    C19     1.390   .     A
C18    H69     1.085   .     S
C18    C20     1.394   .     A
C19    C21     1.397   .     A
C19    H77     1.084   .     S
C20    C303    1.440   1_545 S
C21    C302    1.440   .     S
C22    H53     1.113   .     S
C22    C24     1.535   .     S
C22    H52     1.109   .     S
C23    H78     1.082   .     S
C23    C36     1.419   .     A
C24    H51     1.111   .     S
C24    H50     1.112   .     S
C24    C25     1.526   .     S
C25    H48     1.108   .     S
C25    H82     1.110   .     S
C25    H49     1.111   .     S
C26    C27     1.535   .     S
C26    H61     1.112   .     S
C26    H60     1.108   .     S
C27    H57     1.111   .     S
C27    H59     1.111   .     S
C27    C28     1.526   .     S
C28    H56     1.110   .     S
C28    H54     1.110   .     S
C28    H149    1.111   .     S
C29    H67     1.083   .     S
C29    C38     1.516   .     S
C29    C30     1.537   .     S
C29    H68     1.109   .     S
C30    C31     1.525   .     S
C30    H66     1.098   .     S
C30    H65     1.112   .     S
C31    H64     1.111   .     S
C31    H156    1.110   .     S
C31    H157    1.111   .     S
C32    H75     1.087   .     S
C32    C39     1.512   .     S
C32    H76     1.112   .     S
C32    C33     1.542   .     S
C33    C35     1.528   .     S
C33    H73     1.110   .     S
C33    H74     1.112   .     S
C34    C37     1.414   .     A
C34    H79     1.082   .     S
C35    H70     1.110   .     S
C35    H71     1.109   .     S
C35    H260    1.111   1_455 S
C36    N83     1.370   .     A
C36    H80     1.080   .     S
C37    N84     1.363   .     A
C37    H81     1.080   .     S
C38    N83     1.400   .     A
C38    C40     1.417   .     A
C39    N84     1.389   .     A
C40    F45     1.361   .     S
H47    C101    1.083   .     S
H55    C216    1.111   1_455 S
H58    C196    1.085   1_455 S
H62    C219    1.110   1_455 S
H63    C219    1.111   1_455 S
H72    C129    1.111   .     S
N83    Zn94    2.027   .     S
N84    Zn93    2.027   .     S
O85    Zn93    2.003   .     S
O86    Zn94    2.003   .     S
O87    Zn94    1.984   .     S
O88    Zn93    1.984   .     S
O89    Zn93    1.990   .     S
O90    Zn94    1.990   .     S
O91    Zn94    1.959   .     S
O92    Zn93    1.959   .     S
C95    O181    1.291   .     A
C95    O179    1.295   .     A
C95    C108    1.436   .     S
C96    F140    1.359   .     S
C96    C133    1.414   .     A
C96    C98     1.395   .     A
C97    C117    1.413   .     A
C97    C134    1.389   .     A
C97    C662    1.522   1_554 S
C98    C128    1.417   .     A
C98    C661    1.522   .     S
C99    C101    1.390   .     S
C99    O185    1.278   .     A
C99    O183    1.287   .     A
C100   C102    1.391   .     S
C100   O184    1.288   .     A
C100   O186    1.278   .     A
C102   C195    1.310   .     S
C102   H246    1.085   .     S
C103   C114    1.397   .     A
C103   C105    1.380   .     A
C103   F135    1.359   .     S
C104   F136    1.359   .     S
C104   C115    1.397   .     A
C104   C107    1.380   .     A
C105   C108    1.401   .     A
C105   F137    1.358   .     S
C106   O182    1.291   .     A
C106   C109    1.428   .     S
C106   O180    1.291   .     A
C107   C109    1.397   .     A
C107   F138    1.357   .     S
C108   C110    1.415   .     A
C109   C111    1.412   .     A
C110   C116    1.517   .     S
C110   C112    1.389   .     A
C111   C120    1.517   .     S
C111   C113    1.390   .     A
C112   H163    1.085   .     S
C112   C114    1.394   .     A
C113   C115    1.397   .     A
C113   H171    1.084   .     S
C114   C397    1.440   1_545 S
C115   C396    1.440   .     S
C116   H147    1.113   .     S
C116   C118    1.535   .     S
C116   H146    1.109   .     S
C117   H172    1.082   .     S
C117   C130    1.419   .     A
C118   H145    1.111   .     S
C118   H144    1.112   .     S
C118   C119    1.526   .     S
C119   H142    1.108   .     S
C119   H176    1.110   .     S
C119   H143    1.111   .     S
C120   C121    1.535   .     S
C120   H155    1.112   .     S
C120   H154    1.108   .     S
C121   H151    1.111   .     S
C121   H153    1.111   .     S
C121   C122    1.526   .     S
C122   H150    1.110   .     S
C122   H148    1.110   .     S
C122   H243    1.111   .     S
C123   H161    1.083   .     S
C123   C132    1.516   .     S
C123   C124    1.537   .     S
C123   H162    1.109   .     S
C124   C125    1.525   .     S
C124   H160    1.098   .     S
C124   H159    1.112   .     S
C125   H158    1.111   .     S
C125   H250    1.110   .     S
C125   H251    1.111   .     S
C126   H169    1.087   .     S
C126   C133    1.512   .     S
C126   H170    1.112   .     S
C126   C127    1.542   .     S
C127   C129    1.528   .     S
C127   H167    1.110   .     S
C127   H168    1.112   .     S
C128   C131    1.414   .     A
C128   H173    1.082   .     S
C129   H164    1.110   .     S
C129   H165    1.109   .     S
C130   N177    1.370   .     A
C130   H174    1.080   .     S
C131   N178    1.363   .     A
C131   H175    1.080   .     S
C132   N177    1.400   .     A
C132   C134    1.417   .     A
C133   N178    1.389   .     A
C134   F139    1.361   .     S
H141   C195    1.083   .     S
H166   C223    1.111   .     S
N177   Zn188   2.027   .     S
N178   Zn187   2.027   .     S
O179   Zn187   2.003   .     S
O180   Zn188   2.003   .     S
O181   Zn188   1.984   .     S
O182   Zn187   1.984   .     S
O183   Zn187   1.990   .     S
O184   Zn188   1.990   .     S
O185   Zn188   1.959   .     S
O186   Zn187   1.959   .     S
C189   O275    1.291   .     A
C189   O273    1.295   .     A
C189   C202    1.436   .     S
C190   F234    1.359   .     S
C190   C227    1.414   .     A
C190   C192    1.395   .     A
C191   C211    1.413   .     A
C191   C228    1.389   .     A
C191   C756    1.522   1_554 S
C192   C222    1.417   .     A
C192   C755    1.522   .     S
C193   C195    1.390   .     S
C193   O279    1.278   .     A
C193   O277    1.287   .     A
C194   C196    1.391   .     S
C194   O278    1.288   .     A
C194   O280    1.278   .     A
C196   C7      1.310   1_655 S
C196   H58     1.085   1_655 S
C197   C208    1.397   .     A
C197   C199    1.380   .     A
C197   F229    1.359   .     S
C198   F230    1.359   .     S
C198   C209    1.397   .     A
C198   C201    1.380   .     A
C199   C202    1.401   .     A
C199   F231    1.358   .     S
C200   O276    1.291   .     A
C200   C203    1.428   .     S
C200   O274    1.291   .     A
C201   C203    1.397   .     A
C201   F232    1.357   .     S
C202   C204    1.415   .     A
C203   C205    1.412   .     A
C204   C210    1.517   .     S
C204   C206    1.389   .     A
C205   C214    1.517   .     S
C205   C207    1.390   .     A
C206   H257    1.085   .     S
C206   C208    1.394   .     A
C207   C209    1.397   .     A
C207   H265    1.084   .     S
C208   C491    1.440   1_545 S
C209   C490    1.440   .     S
C210   H241    1.113   .     S
C210   C212    1.535   .     S
C210   H240    1.109   .     S
C211   H266    1.082   .     S
C211   C224    1.419   .     A
C212   H239    1.111   .     S
C212   H238    1.112   .     S
C212   C213    1.526   .     S
C213   H236    1.108   .     S
C213   H270    1.110   .     S
C213   H237    1.111   .     S
C214   C215    1.535   .     S
C214   H249    1.112   .     S
C214   H248    1.108   .     S
C215   H245    1.111   .     S
C215   H247    1.111   .     S
C215   C216    1.526   .     S
C216   H244    1.110   .     S
C216   H242    1.110   .     S
C216   H55     1.111   1_655 S
C217   H255    1.083   .     S
C217   C226    1.516   .     S
C217   C218    1.537   .     S
C217   H256    1.109   .     S
C218   C219    1.525   .     S
C218   H254    1.098   .     S
C218   H253    1.112   .     S
C219   H252    1.111   .     S
C219   H62     1.110   1_655 S
C219   H63     1.111   1_655 S
C220   H263    1.087   .     S
C220   C227    1.512   .     S
C220   H264    1.112   .     S
C220   C221    1.542   .     S
C221   C223    1.528   .     S
C221   H261    1.110   .     S
C221   H262    1.112   .     S
C222   C225    1.414   .     A
C222   H267    1.082   .     S
C223   H258    1.110   .     S
C223   H259    1.109   .     S
C224   N271    1.370   .     A
C224   H268    1.080   .     S
C225   N272    1.363   .     A
C225   H269    1.080   .     S
C226   N271    1.400   .     A
C226   C228    1.417   .     A
C227   N272    1.389   .     A
C228   F233    1.361   .     S
H235   C7      1.083   1_655 S
H260   C35     1.111   1_655 S
N271   Zn282   2.027   .     S
N272   Zn281   2.027   .     S
O273   Zn281   2.003   .     S
O274   Zn282   2.003   .     S
O275   Zn282   1.984   .     S
O276   Zn281   1.984   .     S
O277   Zn281   1.990   .     S
O278   Zn282   1.990   .     S
O279   Zn282   1.959   .     S
O280   Zn281   1.959   .     S
C283   O369    1.291   .     A
C283   O367    1.295   .     A
C283   C296    1.436   .     S
C284   F328    1.359   .     S
C284   C321    1.414   .     A
C284   C286    1.395   .     A
C285   C305    1.413   .     A
C285   C322    1.389   .     A
C285   C850    1.522   1_554 S
C286   C316    1.417   .     A
C286   C849    1.522   .     S
C287   C289    1.390   .     S
C287   O373    1.278   .     A
C287   O371    1.287   .     A
C288   C290    1.391   .     S
C288   O372    1.288   .     A
C288   O374    1.278   .     A
C289   C478    1.310   1_455 S
C289   H517    1.083   1_455 S
C290   C383    1.310   .     S
C290   H434    1.085   .     S
C291   C302    1.397   .     A
C291   C293    1.380   .     A
C291   F323    1.359   .     S
C292   F324    1.359   .     S
C292   C303    1.397   .     A
C292   C295    1.380   .     A
C293   C296    1.401   .     A
C293   F325    1.358   .     S
C294   O370    1.291   .     A
C294   C297    1.428   .     S
C294   O368    1.291   .     A
C295   C297    1.397   .     A
C295   F326    1.357   .     S
C296   C298    1.415   .     A
C297   C299    1.412   .     A
C298   C304    1.517   .     S
C298   C300    1.389   .     A
C299   C308    1.517   .     S
C299   C301    1.390   .     A
C300   H351    1.085   .     S
C300   C302    1.394   .     A
C301   C303    1.397   .     A
C301   H359    1.084   .     S
C303   C20     1.440   1_565 S
C304   H335    1.113   .     S
C304   C306    1.535   .     S
C304   H334    1.109   .     S
C305   H360    1.082   .     S
C305   C318    1.419   .     A
C306   H333    1.111   .     S
C306   H332    1.112   .     S
C306   C307    1.526   .     S
C307   H330    1.108   .     S
C307   H364    1.110   .     S
C307   H331    1.111   .     S
C308   C309    1.535   .     S
C308   H343    1.112   .     S
C308   H342    1.108   .     S
C309   H339    1.111   .     S
C309   H341    1.111   .     S
C309   C310    1.526   .     S
C310   H338    1.110   .     S
C310   H336    1.110   .     S
C310   H431    1.111   .     S
C311   H349    1.083   .     S
C311   C320    1.516   .     S
C311   C312    1.537   .     S
C311   H350    1.109   .     S
C312   C313    1.525   .     S
C312   H348    1.098   .     S
C312   H347    1.112   .     S
C313   H346    1.111   .     S
C313   H438    1.110   .     S
C313   H439    1.111   .     S
C314   H357    1.087   .     S
C314   C321    1.512   .     S
C314   H358    1.112   .     S
C314   C315    1.542   .     S
C315   C317    1.528   .     S
C315   H355    1.110   .     S
C315   H356    1.112   .     S
C316   C319    1.414   .     A
C316   H361    1.082   .     S
C317   H352    1.110   .     S
C317   H353    1.109   .     S
C317   H542    1.111   1_455 S
C318   N365    1.370   .     A
C318   H362    1.080   .     S
C319   N366    1.363   .     A
C319   H363    1.080   .     S
C320   N365    1.400   .     A
C320   C322    1.417   .     A
C321   N366    1.389   .     A
C322   F327    1.361   .     S
H329   C383    1.083   .     S
H337   C498    1.111   1_455 S
H340   C478    1.085   1_455 S
H344   C501    1.110   1_455 S
H345   C501    1.111   1_455 S
H354   C411    1.111   .     S
N365   Zn376   2.027   .     S
N366   Zn375   2.027   .     S
O367   Zn375   2.003   .     S
O368   Zn376   2.003   .     S
O369   Zn376   1.984   .     S
O370   Zn375   1.984   .     S
O371   Zn375   1.990   .     S
O372   Zn376   1.990   .     S
O373   Zn376   1.959   .     S
O374   Zn375   1.959   .     S
C377   O463    1.291   .     A
C377   O461    1.295   .     A
C377   C390    1.436   .     S
C378   F422    1.359   .     S
C378   C415    1.414   .     A
C378   C380    1.395   .     A
C379   C399    1.413   .     A
C379   C416    1.389   .     A
C379   C944    1.522   1_554 S
C380   C410    1.417   .     A
C380   C943    1.522   .     S
C381   C383    1.390   .     S
C381   O467    1.278   .     A
C381   O465    1.287   .     A
C382   C384    1.391   .     S
C382   O466    1.288   .     A
C382   O468    1.278   .     A
C384   C477    1.310   .     S
C384   H528    1.085   .     S
C385   C396    1.397   .     A
C385   C387    1.380   .     A
C385   F417    1.359   .     S
C386   F418    1.359   .     S
C386   C397    1.397   .     A
C386   C389    1.380   .     A
C387   C390    1.401   .     A
C387   F419    1.358   .     S
C388   O464    1.291   .     A
C388   C391    1.428   .     S
C388   O462    1.291   .     A
C389   C391    1.397   .     A
C389   F420    1.357   .     S
C390   C392    1.415   .     A
C391   C393    1.412   .     A
C392   C398    1.517   .     S
C392   C394    1.389   .     A
C393   C402    1.517   .     S
C393   C395    1.390   .     A
C394   H445    1.085   .     S
C394   C396    1.394   .     A
C395   C397    1.397   .     A
C395   H453    1.084   .     S
C397   C114    1.440   1_565 S
C398   H429    1.113   .     S
C398   C400    1.535   .     S
C398   H428    1.109   .     S
C399   H454    1.082   .     S
C399   C412    1.419   .     A
C400   H427    1.111   .     S
C400   H426    1.112   .     S
C400   C401    1.526   .     S
C401   H424    1.108   .     S
C401   H458    1.110   .     S
C401   H425    1.111   .     S
C402   C403    1.535   .     S
C402   H437    1.112   .     S
C402   H436    1.108   .     S
C403   H433    1.111   .     S
C403   H435    1.111   .     S
C403   C404    1.526   .     S
C404   H432    1.110   .     S
C404   H430    1.110   .     S
C404   H525    1.111   .     S
C405   H443    1.083   .     S
C405   C414    1.516   .     S
C405   C406    1.537   .     S
C405   H444    1.109   .     S
C406   C407    1.525   .     S
C406   H442    1.098   .     S
C406   H441    1.112   .     S
C407   H440    1.111   .     S
C407   H532    1.110   .     S
C407   H533    1.111   .     S
C408   H451    1.087   .     S
C408   C415    1.512   .     S
C408   H452    1.112   .     S
C408   C409    1.542   .     S
C409   C411    1.528   .     S
C409   H449    1.110   .     S
C409   H450    1.112   .     S
C410   C413    1.414   .     A
C410   H455    1.082   .     S
C411   H446    1.110   .     S
C411   H447    1.109   .     S
C412   N459    1.370   .     A
C412   H456    1.080   .     S
C413   N460    1.363   .     A
C413   H457    1.080   .     S
C414   N459    1.400   .     A
C414   C416    1.417   .     A
C415   N460    1.389   .     A
C416   F421    1.361   .     S
H423   C477    1.083   .     S
H448   C505    1.111   .     S
N459   Zn470   2.027   .     S
N460   Zn469   2.027   .     S
O461   Zn469   2.003   .     S
O462   Zn470   2.003   .     S
O463   Zn470   1.984   .     S
O464   Zn469   1.984   .     S
O465   Zn469   1.990   .     S
O466   Zn470   1.990   .     S
O467   Zn470   1.959   .     S
O468   Zn469   1.959   .     S
C471   O557    1.291   .     A
C471   O555    1.295   .     A
C471   C484    1.436   .     S
C472   F516    1.359   .     S
C472   C509    1.414   .     A
C472   C474    1.395   .     A
C473   C493    1.413   .     A
C473   C510    1.389   .     A
C473   C1038   1.522   1_554 S
C474   C504    1.417   .     A
C474   C1037   1.522   .     S
C475   C477    1.390   .     S
C475   O561    1.278   .     A
C475   O559    1.287   .     A
C476   C478    1.391   .     S
C476   O560    1.288   .     A
C476   O562    1.278   .     A
C478   C289    1.310   1_655 S
C478   H340    1.085   1_655 S
C479   C490    1.397   .     A
C479   C481    1.380   .     A
C479   F511    1.359   .     S
C480   F512    1.359   .     S
C480   C491    1.397   .     A
C480   C483    1.380   .     A
C481   C484    1.401   .     A
C481   F513    1.358   .     S
C482   O558    1.291   .     A
C482   C485    1.428   .     S
C482   O556    1.291   .     A
C483   C485    1.397   .     A
C483   F514    1.357   .     S
C484   C486    1.415   .     A
C485   C487    1.412   .     A
C486   C492    1.517   .     S
C486   C488    1.389   .     A
C487   C496    1.517   .     S
C487   C489    1.390   .     A
C488   H539    1.085   .     S
C488   C490    1.394   .     A
C489   C491    1.397   .     A
C489   H547    1.084   .     S
C491   C208    1.440   1_565 S
C492   H523    1.113   .     S
C492   C494    1.535   .     S
C492   H522    1.109   .     S
C493   H548    1.082   .     S
C493   C506    1.419   .     A
C494   H521    1.111   .     S
C494   H520    1.112   .     S
C494   C495    1.526   .     S
C495   H518    1.108   .     S
C495   H552    1.110   .     S
C495   H519    1.111   .     S
C496   C497    1.535   .     S
C496   H531    1.112   .     S
C496   H530    1.108   .     S
C497   H527    1.111   .     S
C497   H529    1.111   .     S
C497   C498    1.526   .     S
C498   H526    1.110   .     S
C498   H524    1.110   .     S
C498   H337    1.111   1_655 S
C499   H537    1.083   .     S
C499   C508    1.516   .     S
C499   C500    1.537   .     S
C499   H538    1.109   .     S
C500   C501    1.525   .     S
C500   H536    1.098   .     S
C500   H535    1.112   .     S
C501   H534    1.111   .     S
C501   H344    1.110   1_655 S
C501   H345    1.111   1_655 S
C502   H545    1.087   .     S
C502   C509    1.512   .     S
C502   H546    1.112   .     S
C502   C503    1.542   .     S
C503   C505    1.528   .     S
C503   H543    1.110   .     S
C503   H544    1.112   .     S
C504   C507    1.414   .     A
C504   H549    1.082   .     S
C505   H540    1.110   .     S
C505   H541    1.109   .     S
C506   N553    1.370   .     A
C506   H550    1.080   .     S
C507   N554    1.363   .     A
C507   H551    1.080   .     S
C508   N553    1.400   .     A
C508   C510    1.417   .     A
C509   N554    1.389   .     A
C510   F515    1.361   .     S
H517   C289    1.083   1_655 S
H542   C317    1.111   1_655 S
N553   Zn564   2.027   .     S
N554   Zn563   2.027   .     S
O555   Zn563   2.003   .     S
O556   Zn564   2.003   .     S
O557   Zn564   1.984   .     S
O558   Zn563   1.984   .     S
O559   Zn563   1.990   .     S
O560   Zn564   1.990   .     S
O561   Zn564   1.959   .     S
O562   Zn563   1.959   .     S
C565   O651    1.291   .     A
C565   O649    1.295   .     A
C565   C578    1.436   .     S
C566   F610    1.359   .     S
C566   C603    1.414   .     A
C566   C568    1.395   .     A
C567   C587    1.413   .     A
C567   C604    1.389   .     A
C568   C598    1.417   .     A
C568   C3      1.522   1_556 S
C569   C571    1.390   .     S
C569   O655    1.278   .     A
C569   O653    1.287   .     A
C570   C572    1.391   .     S
C570   O654    1.288   .     A
C570   O656    1.278   .     A
C571   C760    1.310   1_455 S
C571   H799    1.083   1_455 S
C572   C665    1.310   .     S
C572   H716    1.085   .     S
C573   C584    1.397   .     A
C573   C575    1.380   .     A
C573   F605    1.359   .     S
C574   F606    1.359   .     S
C574   C585    1.397   .     A
C574   C577    1.380   .     A
C575   C578    1.401   .     A
C575   F607    1.358   .     S
C576   O652    1.291   .     A
C576   C579    1.428   .     S
C576   O650    1.291   .     A
C577   C579    1.397   .     A
C577   F608    1.357   .     S
C578   C580    1.415   .     A
C579   C581    1.412   .     A
C580   C586    1.517   .     S
C580   C582    1.389   .     A
C581   C590    1.517   .     S
C581   C583    1.390   .     A
C582   H633    1.085   .     S
C582   C584    1.394   .     A
C583   C585    1.397   .     A
C583   H641    1.084   .     S
C584   C867    1.440   1_545 S
C585   C866    1.440   .     S
C586   H617    1.113   .     S
C586   C588    1.535   .     S
C586   H616    1.109   .     S
C587   H642    1.082   .     S
C587   C600    1.419   .     A
C588   H615    1.111   .     S
C588   H614    1.112   .     S
C588   C589    1.526   .     S
C589   H612    1.108   .     S
C589   H646    1.110   .     S
C589   H613    1.111   .     S
C590   C591    1.535   .     S
C590   H625    1.112   .     S
C590   H624    1.108   .     S
C591   H621    1.111   .     S
C591   H623    1.111   .     S
C591   C592    1.526   .     S
C592   H620    1.110   .     S
C592   H618    1.110   .     S
C592   H713    1.111   .     S
C593   H631    1.083   .     S
C593   C602    1.516   .     S
C593   C594    1.537   .     S
C593   H632    1.109   .     S
C594   C595    1.525   .     S
C594   H630    1.098   .     S
C594   H629    1.112   .     S
C595   H628    1.111   .     S
C595   H720    1.110   .     S
C595   H721    1.111   .     S
C596   H639    1.087   .     S
C596   C603    1.512   .     S
C596   H640    1.112   .     S
C596   C597    1.542   .     S
C597   C599    1.528   .     S
C597   H637    1.110   .     S
C597   H638    1.112   .     S
C598   C601    1.414   .     A
C598   H643    1.082   .     S
C599   H634    1.110   .     S
C599   H635    1.109   .     S
C599   H824    1.111   1_455 S
C600   N647    1.370   .     A
C600   H644    1.080   .     S
C601   N648    1.363   .     A
C601   H645    1.080   .     S
C602   N647    1.400   .     A
C602   C604    1.417   .     A
C603   N648    1.389   .     A
C604   F609    1.361   .     S
H611   C665    1.083   .     S
H619   C780    1.111   1_455 S
H622   C760    1.085   1_455 S
H626   C783    1.110   1_455 S
H627   C783    1.111   1_455 S
H636   C693    1.111   .     S
N647   Zn658   2.027   .     S
N648   Zn657   2.027   .     S
O649   Zn657   2.003   .     S
O650   Zn658   2.003   .     S
O651   Zn658   1.984   .     S
O652   Zn657   1.984   .     S
O653   Zn657   1.990   .     S
O654   Zn658   1.990   .     S
O655   Zn658   1.959   .     S
O656   Zn657   1.959   .     S
C659   O745    1.291   .     A
C659   O743    1.295   .     A
C659   C672    1.436   .     S
C660   F704    1.359   .     S
C660   C697    1.414   .     A
C660   C662    1.395   .     A
C661   C681    1.413   .     A
C661   C698    1.389   .     A
C662   C692    1.417   .     A
C662   C97     1.522   1_556 S
C663   C665    1.390   .     S
C663   O749    1.278   .     A
C663   O747    1.287   .     A
C664   C666    1.391   .     S
C664   O748    1.288   .     A
C664   O750    1.278   .     A
C666   C759    1.310   .     S
C666   H810    1.085   .     S
C667   C678    1.397   .     A
C667   C669    1.380   .     A
C667   F699    1.359   .     S
C668   F700    1.359   .     S
C668   C679    1.397   .     A
C668   C671    1.380   .     A
C669   C672    1.401   .     A
C669   F701    1.358   .     S
C670   O746    1.291   .     A
C670   C673    1.428   .     S
C670   O744    1.291   .     A
C671   C673    1.397   .     A
C671   F702    1.357   .     S
C672   C674    1.415   .     A
C673   C675    1.412   .     A
C674   C680    1.517   .     S
C674   C676    1.389   .     A
C675   C684    1.517   .     S
C675   C677    1.390   .     A
C676   H727    1.085   .     S
C676   C678    1.394   .     A
C677   C679    1.397   .     A
C677   H735    1.084   .     S
C678   C961    1.440   1_545 S
C679   C960    1.440   .     S
C680   H711    1.113   .     S
C680   C682    1.535   .     S
C680   H710    1.109   .     S
C681   H736    1.082   .     S
C681   C694    1.419   .     A
C682   H709    1.111   .     S
C682   H708    1.112   .     S
C682   C683    1.526   .     S
C683   H706    1.108   .     S
C683   H740    1.110   .     S
C683   H707    1.111   .     S
C684   C685    1.535   .     S
C684   H719    1.112   .     S
C684   H718    1.108   .     S
C685   H715    1.111   .     S
C685   H717    1.111   .     S
C685   C686    1.526   .     S
C686   H714    1.110   .     S
C686   H712    1.110   .     S
C686   H807    1.111   .     S
C687   H725    1.083   .     S
C687   C696    1.516   .     S
C687   C688    1.537   .     S
C687   H726    1.109   .     S
C688   C689    1.525   .     S
C688   H724    1.098   .     S
C688   H723    1.112   .     S
C689   H722    1.111   .     S
C689   H814    1.110   .     S
C689   H815    1.111   .     S
C690   H733    1.087   .     S
C690   C697    1.512   .     S
C690   H734    1.112   .     S
C690   C691    1.542   .     S
C691   C693    1.528   .     S
C691   H731    1.110   .     S
C691   H732    1.112   .     S
C692   C695    1.414   .     A
C692   H737    1.082   .     S
C693   H728    1.110   .     S
C693   H729    1.109   .     S
C694   N741    1.370   .     A
C694   H738    1.080   .     S
C695   N742    1.363   .     A
C695   H739    1.080   .     S
C696   N741    1.400   .     A
C696   C698    1.417   .     A
C697   N742    1.389   .     A
C698   F703    1.361   .     S
H705   C759    1.083   .     S
H730   C787    1.111   .     S
N741   Zn752   2.027   .     S
N742   Zn751   2.027   .     S
O743   Zn751   2.003   .     S
O744   Zn752   2.003   .     S
O745   Zn752   1.984   .     S
O746   Zn751   1.984   .     S
O747   Zn751   1.990   .     S
O748   Zn752   1.990   .     S
O749   Zn752   1.959   .     S
O750   Zn751   1.959   .     S
C753   O839    1.291   .     A
C753   O837    1.295   .     A
C753   C766    1.436   .     S
C754   F798    1.359   .     S
C754   C791    1.414   .     A
C754   C756    1.395   .     A
C755   C775    1.413   .     A
C755   C792    1.389   .     A
C756   C786    1.417   .     A
C756   C191    1.522   1_556 S
C757   C759    1.390   .     S
C757   O843    1.278   .     A
C757   O841    1.287   .     A
C758   C760    1.391   .     S
C758   O842    1.288   .     A
C758   O844    1.278   .     A
C760   C571    1.310   1_655 S
C760   H622    1.085   1_655 S
C761   C772    1.397   .     A
C761   C763    1.380   .     A
C761   F793    1.359   .     S
C762   F794    1.359   .     S
C762   C773    1.397   .     A
C762   C765    1.380   .     A
C763   C766    1.401   .     A
C763   F795    1.358   .     S
C764   O840    1.291   .     A
C764   C767    1.428   .     S
C764   O838    1.291   .     A
C765   C767    1.397   .     A
C765   F796    1.357   .     S
C766   C768    1.415   .     A
C767   C769    1.412   .     A
C768   C774    1.517   .     S
C768   C770    1.389   .     A
C769   C778    1.517   .     S
C769   C771    1.390   .     A
C770   H821    1.085   .     S
C770   C772    1.394   .     A
C771   C773    1.397   .     A
C771   H829    1.084   .     S
C772   C1055   1.440   1_545 S
C773   C1054   1.440   .     S
C774   H805    1.113   .     S
C774   C776    1.535   .     S
C774   H804    1.109   .     S
C775   H830    1.082   .     S
C775   C788    1.419   .     A
C776   H803    1.111   .     S
C776   H802    1.112   .     S
C776   C777    1.526   .     S
C777   H800    1.108   .     S
C777   H834    1.110   .     S
C777   H801    1.111   .     S
C778   C779    1.535   .     S
C778   H813    1.112   .     S
C778   H812    1.108   .     S
C779   H809    1.111   .     S
C779   H811    1.111   .     S
C779   C780    1.526   .     S
C780   H808    1.110   .     S
C780   H806    1.110   .     S
C780   H619    1.111   1_655 S
C781   H819    1.083   .     S
C781   C790    1.516   .     S
C781   C782    1.537   .     S
C781   H820    1.109   .     S
C782   C783    1.525   .     S
C782   H818    1.098   .     S
C782   H817    1.112   .     S
C783   H816    1.111   .     S
C783   H626    1.110   1_655 S
C783   H627    1.111   1_655 S
C784   H827    1.087   .     S
C784   C791    1.512   .     S
C784   H828    1.112   .     S
C784   C785    1.542   .     S
C785   C787    1.528   .     S
C785   H825    1.110   .     S
C785   H826    1.112   .     S
C786   C789    1.414   .     A
C786   H831    1.082   .     S
C787   H822    1.110   .     S
C787   H823    1.109   .     S
C788   N835    1.370   .     A
C788   H832    1.080   .     S
C789   N836    1.363   .     A
C789   H833    1.080   .     S
C790   N835    1.400   .     A
C790   C792    1.417   .     A
C791   N836    1.389   .     A
C792   F797    1.361   .     S
H799   C571    1.083   1_655 S
H824   C599    1.111   1_655 S
N835   Zn846   2.027   .     S
N836   Zn845   2.027   .     S
O837   Zn845   2.003   .     S
O838   Zn846   2.003   .     S
O839   Zn846   1.984   .     S
O840   Zn845   1.984   .     S
O841   Zn845   1.990   .     S
O842   Zn846   1.990   .     S
O843   Zn846   1.959   .     S
O844   Zn845   1.959   .     S
C847   O933    1.291   .     A
C847   O931    1.295   .     A
C847   C860    1.436   .     S
C848   F892    1.359   .     S
C848   C885    1.414   .     A
C848   C850    1.395   .     A
C849   C869    1.413   .     A
C849   C886    1.389   .     A
C850   C880    1.417   .     A
C850   C285    1.522   1_556 S
C851   C853    1.390   .     S
C851   O937    1.278   .     A
C851   O935    1.287   .     A
C852   C854    1.391   .     S
C852   O936    1.288   .     A
C852   O938    1.278   .     A
C853   C1042   1.310   1_455 S
C853   H1081   1.083   1_455 S
C854   C947    1.310   .     S
C854   H998    1.085   .     S
C855   C866    1.397   .     A
C855   C857    1.380   .     A
C855   F887    1.359   .     S
C856   F888    1.359   .     S
C856   C867    1.397   .     A
C856   C859    1.380   .     A
C857   C860    1.401   .     A
C857   F889    1.358   .     S
C858   O934    1.291   .     A
C858   C861    1.428   .     S
C858   O932    1.291   .     A
C859   C861    1.397   .     A
C859   F890    1.357   .     S
C860   C862    1.415   .     A
C861   C863    1.412   .     A
C862   C868    1.517   .     S
C862   C864    1.389   .     A
C863   C872    1.517   .     S
C863   C865    1.390   .     A
C864   H915    1.085   .     S
C864   C866    1.394   .     A
C865   C867    1.397   .     A
C865   H923    1.084   .     S
C867   C584    1.440   1_565 S
C868   H899    1.113   .     S
C868   C870    1.535   .     S
C868   H898    1.109   .     S
C869   H924    1.082   .     S
C869   C882    1.419   .     A
C870   H897    1.111   .     S
C870   H896    1.112   .     S
C870   C871    1.526   .     S
C871   H894    1.108   .     S
C871   H928    1.110   .     S
C871   H895    1.111   .     S
C872   C873    1.535   .     S
C872   H907    1.112   .     S
C872   H906    1.108   .     S
C873   H903    1.111   .     S
C873   H905    1.111   .     S
C873   C874    1.526   .     S
C874   H902    1.110   .     S
C874   H900    1.110   .     S
C874   H995    1.111   .     S
C875   H913    1.083   .     S
C875   C884    1.516   .     S
C875   C876    1.537   .     S
C875   H914    1.109   .     S
C876   C877    1.525   .     S
C876   H912    1.098   .     S
C876   H911    1.112   .     S
C877   H910    1.111   .     S
C877   H1002   1.110   .     S
C877   H1003   1.111   .     S
C878   H921    1.087   .     S
C878   C885    1.512   .     S
C878   H922    1.112   .     S
C878   C879    1.542   .     S
C879   C881    1.528   .     S
C879   H919    1.110   .     S
C879   H920    1.112   .     S
C880   C883    1.414   .     A
C880   H925    1.082   .     S
C881   H916    1.110   .     S
C881   H917    1.109   .     S
C881   H1106   1.111   1_455 S
C882   N929    1.370   .     A
C882   H926    1.080   .     S
C883   N930    1.363   .     A
C883   H927    1.080   .     S
C884   N929    1.400   .     A
C884   C886    1.417   .     A
C885   N930    1.389   .     A
C886   F891    1.361   .     S
H893   C947    1.083   .     S
H901   C1062   1.111   1_455 S
H904   C1042   1.085   1_455 S
H908   C1065   1.110   1_455 S
H909   C1065   1.111   1_455 S
H918   C975    1.111   .     S
N929   Zn940   2.027   .     S
N930   Zn939   2.027   .     S
O931   Zn939   2.003   .     S
O932   Zn940   2.003   .     S
O933   Zn940   1.984   .     S
O934   Zn939   1.984   .     S
O935   Zn939   1.990   .     S
O936   Zn940   1.990   .     S
O937   Zn940   1.959   .     S
O938   Zn939   1.959   .     S
C941   O1027   1.291   .     A
C941   O1025   1.295   .     A
C941   C954    1.436   .     S
C942   F986    1.359   .     S
C942   C979    1.414   .     A
C942   C944    1.395   .     A
C943   C963    1.413   .     A
C943   C980    1.389   .     A
C944   C974    1.417   .     A
C944   C379    1.522   1_556 S
C945   C947    1.390   .     S
C945   O1031   1.278   .     A
C945   O1029   1.287   .     A
C946   C948    1.391   .     S
C946   O1030   1.288   .     A
C946   O1032   1.278   .     A
C948   C1041   1.310   .     S
C948   H1092   1.085   .     S
C949   C960    1.397   .     A
C949   C951    1.380   .     A
C949   F981    1.359   .     S
C950   F982    1.359   .     S
C950   C961    1.397   .     A
C950   C953    1.380   .     A
C951   C954    1.401   .     A
C951   F983    1.358   .     S
C952   O1028   1.291   .     A
C952   C955    1.428   .     S
C952   O1026   1.291   .     A
C953   C955    1.397   .     A
C953   F984    1.357   .     S
C954   C956    1.415   .     A
C955   C957    1.412   .     A
C956   C962    1.517   .     S
C956   C958    1.389   .     A
C957   C966    1.517   .     S
C957   C959    1.390   .     A
C958   H1009   1.085   .     S
C958   C960    1.394   .     A
C959   C961    1.397   .     A
C959   H1017   1.084   .     S
C961   C678    1.440   1_565 S
C962   H993    1.113   .     S
C962   C964    1.535   .     S
C962   H992    1.109   .     S
C963   H1018   1.082   .     S
C963   C976    1.419   .     A
C964   H991    1.111   .     S
C964   H990    1.112   .     S
C964   C965    1.526   .     S
C965   H988    1.108   .     S
C965   H1022   1.110   .     S
C965   H989    1.111   .     S
C966   C967    1.535   .     S
C966   H1001   1.112   .     S
C966   H1000   1.108   .     S
C967   H997    1.111   .     S
C967   H999    1.111   .     S
C967   C968    1.526   .     S
C968   H996    1.110   .     S
C968   H994    1.110   .     S
C968   H1089   1.111   .     S
C969   H1007   1.083   .     S
C969   C978    1.516   .     S
C969   C970    1.537   .     S
C969   H1008   1.109   .     S
C970   C971    1.525   .     S
C970   H1006   1.098   .     S
C970   H1005   1.112   .     S
C971   H1004   1.111   .     S
C971   H1096   1.110   .     S
C971   H1097   1.111   .     S
C972   H1015   1.087   .     S
C972   C979    1.512   .     S
C972   H1016   1.112   .     S
C972   C973    1.542   .     S
C973   C975    1.528   .     S
C973   H1013   1.110   .     S
C973   H1014   1.112   .     S
C974   C977    1.414   .     A
C974   H1019   1.082   .     S
C975   H1010   1.110   .     S
C975   H1011   1.109   .     S
C976   N1023   1.370   .     A
C976   H1020   1.080   .     S
C977   N1024   1.363   .     A
C977   H1021   1.080   .     S
C978   N1023   1.400   .     A
C978   C980    1.417   .     A
C979   N1024   1.389   .     A
C980   F985    1.361   .     S
H987   C1041   1.083   .     S
H1012  C1069   1.111   .     S
N1023  Zn1034  2.027   .     S
N1024  Zn1033  2.027   .     S
O1025  Zn1033  2.003   .     S
O1026  Zn1034  2.003   .     S
O1027  Zn1034  1.984   .     S
O1028  Zn1033  1.984   .     S
O1029  Zn1033  1.990   .     S
O1030  Zn1034  1.990   .     S
O1031  Zn1034  1.959   .     S
O1032  Zn1033  1.959   .     S
C1035  O1121   1.291   .     A
C1035  O1119   1.295   .     A
C1035  C1048   1.436   .     S
C1036  F1080   1.359   .     S
C1036  C1073   1.414   .     A
C1036  C1038   1.395   .     A
C1037  C1057   1.413   .     A
C1037  C1074   1.389   .     A
C1038  C1068   1.417   .     A
C1038  C473    1.522   1_556 S
C1039  C1041   1.390   .     S
C1039  O1125   1.278   .     A
C1039  O1123   1.287   .     A
C1040  C1042   1.391   .     S
C1040  O1124   1.288   .     A
C1040  O1126   1.278   .     A
C1042  C853    1.310   1_655 S
C1042  H904    1.085   1_655 S
C1043  C1054   1.397   .     A
C1043  C1045   1.380   .     A
C1043  F1075   1.359   .     S
C1044  F1076   1.359   .     S
C1044  C1055   1.397   .     A
C1044  C1047   1.380   .     A
C1045  C1048   1.401   .     A
C1045  F1077   1.358   .     S
C1046  O1122   1.291   .     A
C1046  C1049   1.428   .     S
C1046  O1120   1.291   .     A
C1047  C1049   1.397   .     A
C1047  F1078   1.357   .     S
C1048  C1050   1.415   .     A
C1049  C1051   1.412   .     A
C1050  C1056   1.517   .     S
C1050  C1052   1.389   .     A
C1051  C1060   1.517   .     S
C1051  C1053   1.390   .     A
C1052  H1103   1.085   .     S
C1052  C1054   1.394   .     A
C1053  C1055   1.397   .     A
C1053  H1111   1.084   .     S
C1055  C772    1.440   1_565 S
C1056  H1087   1.113   .     S
C1056  C1058   1.535   .     S
C1056  H1086   1.109   .     S
C1057  H1112   1.082   .     S
C1057  C1070   1.419   .     A
C1058  H1085   1.111   .     S
C1058  H1084   1.112   .     S
C1058  C1059   1.526   .     S
C1059  H1082   1.108   .     S
C1059  H1116   1.110   .     S
C1059  H1083   1.111   .     S
C1060  C1061   1.535   .     S
C1060  H1095   1.112   .     S
C1060  H1094   1.108   .     S
C1061  H1091   1.111   .     S
C1061  H1093   1.111   .     S
C1061  C1062   1.526   .     S
C1062  H1090   1.110   .     S
C1062  H1088   1.110   .     S
C1062  H901    1.111   1_655 S
C1063  H1101   1.083   .     S
C1063  C1072   1.516   .     S
C1063  C1064   1.537   .     S
C1063  H1102   1.109   .     S
C1064  C1065   1.525   .     S
C1064  H1100   1.098   .     S
C1064  H1099   1.112   .     S
C1065  H1098   1.111   .     S
C1065  H908    1.110   1_655 S
C1065  H909    1.111   1_655 S
C1066  H1109   1.087   .     S
C1066  C1073   1.512   .     S
C1066  H1110   1.112   .     S
C1066  C1067   1.542   .     S
C1067  C1069   1.528   .     S
C1067  H1107   1.110   .     S
C1067  H1108   1.112   .     S
C1068  C1071   1.414   .     A
C1068  H1113   1.082   .     S
C1069  H1104   1.110   .     S
C1069  H1105   1.109   .     S
C1070  N1117   1.370   .     A
C1070  H1114   1.080   .     S
C1071  N1118   1.363   .     A
C1071  H1115   1.080   .     S
C1072  N1117   1.400   .     A
C1072  C1074   1.417   .     A
C1073  N1118   1.389   .     A
C1074  F1079   1.361   .     S
H1081  C853    1.083   1_655 S
H1106  C881    1.111   1_655 S
N1117  Zn1128  2.027   .     S
N1118  Zn1127  2.027   .     S
O1119  Zn1127  2.003   .     S
O1120  Zn1128  2.003   .     S
O1121  Zn1128  1.984   .     S
O1122  Zn1127  1.984   .     S
O1123  Zn1127  1.990   .     S
O1124  Zn1128  1.990   .     S
O1125  Zn1128  1.959   .     S
O1126  Zn1127  1.959   .     S
