data_str_m3_o1_o16_pcu_sym.221
_audit_creation_date              2020-01-03
_audit_creation_method            'Materials Studio'
_symmetry_space_group_name_H-M    'P1'
_symmetry_Int_Tables_number       1
_symmetry_cell_setting            triclinic
loop_
_symmetry_equiv_pos_as_xyz
  x,y,z
_cell_length_a                    29.5682
_cell_length_b                    32.1153
_cell_length_c                    26.1705
_cell_angle_alpha                 90.7198
_cell_angle_beta                  69.9684
_cell_angle_gamma                 89.7626
loop_
_atom_site_label
_atom_site_type_symbol
_atom_site_fract_x
_atom_site_fract_y
_atom_site_fract_z
_atom_site_U_iso_or_equiv
_atom_site_adp_type
_atom_site_occupancy
C1     C     0.16736   0.24665   0.24782   0.00000  Uiso   1.00
C2     C     0.14372   0.14867   0.49155   0.00000  Uiso   1.00
C3     C     0.15436   0.14204   0.43592   0.00000  Uiso   1.00
C4     C     0.18139   0.14452   0.01294   0.00000  Uiso   1.00
C5     C     0.22338   0.12085   0.48405   0.00000  Uiso   1.00
C6     C     0.22833   0.10541   0.43140   0.00000  Uiso   1.00
C7     C     0.19513   0.11774   0.40725   0.00000  Uiso   1.00
C8     C     0.17933   0.16601   0.06071   0.00000  Uiso   1.00
C9     C     0.24785   0.12584   0.06413   0.00000  Uiso   1.00
C10    C     0.12314   0.15894   0.41106   0.00000  Uiso   1.00
C11    C     0.21236   0.31234   0.22223   0.00000  Uiso   1.00
C12    C     0.14005   0.16458   0.35218   0.00000  Uiso   1.00
C13    C     0.21148   0.02184   0.22455   0.00000  Uiso   1.00
C14    C     0.16755   0.04270   0.24734   0.00000  Uiso   1.00
C15    C     0.12412   0.02158   0.26678   0.00000  Uiso   1.00
C16    C     0.12462   0.31235   0.26521   0.00000  Uiso   1.00
C17    C     0.16850   0.29092   0.24445   0.00000  Uiso   1.00
C18    C     0.31771   0.13605   0.22355   0.00000  Uiso   1.00
C19    C     0.03245   0.13638   0.22291   0.00000  Uiso   1.00
C20    C     0.01441   0.19539   0.28032   0.00000  Uiso   1.00
C21    C     0.30018   0.19596   0.27911   0.00000  Uiso   1.00
C22    C     0.16687   0.08672   0.24952   0.00000  Uiso   1.00
C23    C     0.19335   0.16446   0.14758   0.00000  Uiso   1.00
C24    C     0.25759   0.11262   0.00983   0.00000  Uiso   1.00
C25    C     0.20942   0.15384   0.08913   0.00000  Uiso   1.00
C26    C     0.07720   0.17332   0.44319   0.00000  Uiso   1.00
C27    C     0.06206   0.17111   0.00041   0.00000  Uiso   1.00
C28    C     0.09498   0.15668   0.02421   0.00000  Uiso   1.00
H29    H     0.24482   0.03890   0.20803   0.00000  Uiso   1.00
H30    H     0.08996   0.03788   0.28406   0.00000  Uiso   1.00
H31    H     0.09073   0.29635   0.28125   0.00000  Uiso   1.00
H32    H     0.30587   0.11075   0.20419   0.00000  Uiso   1.00
H33    H     0.05720   0.11176   0.20236   0.00000  Uiso   1.00
H34    H     0.27438   0.21899   0.30278   0.00000  Uiso   1.00
H35    H     0.05317   0.18482   0.42328   0.00000  Uiso   1.00
H36    H     0.20080   0.10633   0.36646   0.00000  Uiso   1.00
N37    N     0.04760   0.16668   0.25001   0.00000  Uiso   1.00
N38    N     0.28573   0.16665   0.25001   0.00000  Uiso   1.00
O39    O     0.12846   0.22775   0.25001   0.00000  Uiso   1.00
O40    O     0.20490   0.22774   0.25001   0.00000  Uiso   1.00
O41    O     0.10947   0.16666   0.32681   0.00000  Uiso   1.00
O42    O     0.18591   0.16665   0.32681   0.00000  Uiso   1.00
O43    O     0.12843   0.10559   0.25000   0.00000  Uiso   1.00
O44    O     0.20488   0.10558   0.25000   0.00000  Uiso   1.00
O45    O     0.14742   0.16668   0.17319   0.00000  Uiso   1.00
O46    O     0.22387   0.16667   0.17319   0.00000  Uiso   1.00
Zn47   Zn    0.11562   0.16667   0.25000   0.00000  Uiso   1.00
Zn48   Zn    0.21771   0.16666   0.25000   0.00000  Uiso   1.00
C49    C     0.27459   0.10682   0.09479   0.00000  Uiso   1.00
N50    N     0.29602   0.09051   0.11842   0.00000  Uiso   1.00
C51    C     0.02600   0.22287   0.31771   0.00000  Uiso   1.00
N52    N     0.03470   0.24469   0.34858   0.00000  Uiso   1.00
O53    O     0.26768   0.08165   0.40096   0.00000  Uiso   1.00
C54    C     0.25296   0.04006   0.39934   0.00000  Uiso   1.00
H55    H     0.22840   0.03698   0.37547   0.00000  Uiso   1.00
H56    H     0.23564   0.02764   0.44102   0.00000  Uiso   1.00
H57    H     0.28529   0.02056   0.37873   0.00000  Uiso   1.00
C58    C     0.30191   0.08961   0.48261   0.00000  Uiso   1.00
N59    N     0.00404   0.07140   0.46117   0.00000  Uiso   1.00
O60    O     0.14632   0.19810   0.08103   0.00000  Uiso   1.00
C61    C     0.16946   0.23605   0.06229   0.00000  Uiso   1.00
H62    H     0.18311   0.23703   0.01703   0.00000  Uiso   1.00
H63    H     0.19926   0.24172   0.07834   0.00000  Uiso   1.00
H64    H     0.14287   0.26177   0.07743   0.00000  Uiso   1.00
O65    O     0.07743   0.14595   0.07855   0.00000  Uiso   1.00
C66    C     0.07856   0.10202   0.08183   0.00000  Uiso   1.00
H67    H     0.11484   0.09101   0.07966   0.00000  Uiso   1.00
H68    H     0.06746   0.08589   0.05004   0.00000  Uiso   1.00
H69    H     0.05271   0.09237   0.12135   0.00000  Uiso   1.00
O70    O     0.01507   0.17925   0.03482   0.00000  Uiso   1.00
C71    C     0.32547   0.21082   0.01533   0.00000  Uiso   1.00
H72    H     0.31142   0.19799   0.48414   0.00000  Uiso   1.00
H73    H     0.01615   0.23782   0.49949   0.00000  Uiso   1.00
H74    H     0.29403   0.22253   0.04971   0.00000  Uiso   1.00
C75    C     0.25818   0.29173   0.19551   0.00000  Uiso   1.00
N76    N     0.29484   0.27527   0.17410   0.00000  Uiso   1.00
C77    C     0.50070   0.24665   0.24782   0.00000  Uiso   1.00
C78    C     0.47706   0.14867   0.49155   0.00000  Uiso   1.00
C79    C     0.48769   0.14204   0.43592   0.00000  Uiso   1.00
C80    C     0.51472   0.14452   0.01294   0.00000  Uiso   1.00
C81    C     0.55671   0.12085   0.48405   0.00000  Uiso   1.00
C82    C     0.56166   0.10541   0.43140   0.00000  Uiso   1.00
C83    C     0.52846   0.11774   0.40725   0.00000  Uiso   1.00
C84    C     0.51267   0.16601   0.06071   0.00000  Uiso   1.00
C85    C     0.58118   0.12584   0.06413   0.00000  Uiso   1.00
C86    C     0.45647   0.15894   0.41106   0.00000  Uiso   1.00
C87    C     0.54569   0.31234   0.22223   0.00000  Uiso   1.00
C88    C     0.47339   0.16458   0.35218   0.00000  Uiso   1.00
C89    C     0.54481   0.02184   0.22455   0.00000  Uiso   1.00
C90    C     0.50088   0.04270   0.24734   0.00000  Uiso   1.00
C91    C     0.45745   0.02158   0.26678   0.00000  Uiso   1.00
C92    C     0.45796   0.31235   0.26521   0.00000  Uiso   1.00
C93    C     0.50183   0.29092   0.24445   0.00000  Uiso   1.00
C94    C     0.65105   0.13605   0.22355   0.00000  Uiso   1.00
C95    C     0.36578   0.13638   0.22291   0.00000  Uiso   1.00
C96    C     0.34774   0.19539   0.28032   0.00000  Uiso   1.00
C97    C     0.63352   0.19596   0.27911   0.00000  Uiso   1.00
C98    C     0.50020   0.08672   0.24952   0.00000  Uiso   1.00
C99    C     0.52669   0.16446   0.14758   0.00000  Uiso   1.00
C100   C     0.59092   0.11262   0.00983   0.00000  Uiso   1.00
C101   C     0.54275   0.15384   0.08913   0.00000  Uiso   1.00
C102   C     0.41053   0.17332   0.44319   0.00000  Uiso   1.00
C103   C     0.39539   0.17111   0.00041   0.00000  Uiso   1.00
C104   C     0.42831   0.15668   0.02421   0.00000  Uiso   1.00
H105   H     0.57815   0.03890   0.20803   0.00000  Uiso   1.00
H106   H     0.42330   0.03788   0.28406   0.00000  Uiso   1.00
H107   H     0.42406   0.29635   0.28125   0.00000  Uiso   1.00
H108   H     0.63920   0.11075   0.20419   0.00000  Uiso   1.00
H109   H     0.39053   0.11176   0.20236   0.00000  Uiso   1.00
H110   H     0.60772   0.21899   0.30278   0.00000  Uiso   1.00
H111   H     0.38650   0.18482   0.42328   0.00000  Uiso   1.00
H112   H     0.53413   0.10633   0.36646   0.00000  Uiso   1.00
N113   N     0.38093   0.16668   0.25001   0.00000  Uiso   1.00
N114   N     0.61906   0.16665   0.25001   0.00000  Uiso   1.00
O115   O     0.46179   0.22775   0.25001   0.00000  Uiso   1.00
O116   O     0.53823   0.22774   0.25001   0.00000  Uiso   1.00
O117   O     0.44280   0.16666   0.32681   0.00000  Uiso   1.00
O118   O     0.51924   0.16665   0.32681   0.00000  Uiso   1.00
O119   O     0.46177   0.10559   0.25000   0.00000  Uiso   1.00
O120   O     0.53821   0.10558   0.25000   0.00000  Uiso   1.00
O121   O     0.48076   0.16668   0.17319   0.00000  Uiso   1.00
O122   O     0.55720   0.16667   0.17319   0.00000  Uiso   1.00
Zn123  Zn    0.44896   0.16667   0.25000   0.00000  Uiso   1.00
Zn124  Zn    0.55104   0.16666   0.25000   0.00000  Uiso   1.00
C125   C     0.60792   0.10682   0.09479   0.00000  Uiso   1.00
N126   N     0.62936   0.09051   0.11842   0.00000  Uiso   1.00
C127   C     0.35934   0.22287   0.31771   0.00000  Uiso   1.00
N128   N     0.36803   0.24469   0.34858   0.00000  Uiso   1.00
O129   O     0.60101   0.08165   0.40096   0.00000  Uiso   1.00
C130   C     0.58629   0.04006   0.39934   0.00000  Uiso   1.00
H131   H     0.56173   0.03698   0.37547   0.00000  Uiso   1.00
H132   H     0.56897   0.02764   0.44102   0.00000  Uiso   1.00
H133   H     0.61862   0.02056   0.37873   0.00000  Uiso   1.00
C134   C     0.63524   0.08961   0.48261   0.00000  Uiso   1.00
N135   N     0.33738   0.07140   0.46117   0.00000  Uiso   1.00
O136   O     0.47965   0.19810   0.08103   0.00000  Uiso   1.00
C137   C     0.50279   0.23605   0.06229   0.00000  Uiso   1.00
H138   H     0.51644   0.23703   0.01703   0.00000  Uiso   1.00
H139   H     0.53260   0.24172   0.07834   0.00000  Uiso   1.00
H140   H     0.47620   0.26177   0.07743   0.00000  Uiso   1.00
O141   O     0.41076   0.14595   0.07855   0.00000  Uiso   1.00
C142   C     0.41190   0.10202   0.08183   0.00000  Uiso   1.00
H143   H     0.44817   0.09101   0.07966   0.00000  Uiso   1.00
H144   H     0.40079   0.08589   0.05004   0.00000  Uiso   1.00
H145   H     0.38604   0.09237   0.12135   0.00000  Uiso   1.00
O146   O     0.34840   0.17925   0.03482   0.00000  Uiso   1.00
C147   C     0.65881   0.21082   0.01533   0.00000  Uiso   1.00
H148   H     0.64476   0.19799   0.48414   0.00000  Uiso   1.00
H149   H     0.34948   0.23782   0.49949   0.00000  Uiso   1.00
H150   H     0.62736   0.22253   0.04971   0.00000  Uiso   1.00
C151   C     0.59151   0.29173   0.19551   0.00000  Uiso   1.00
N152   N     0.62817   0.27527   0.17410   0.00000  Uiso   1.00
C153   C     0.83403   0.24665   0.24782   0.00000  Uiso   1.00
C154   C     0.81039   0.14867   0.49155   0.00000  Uiso   1.00
C155   C     0.82102   0.14204   0.43592   0.00000  Uiso   1.00
C156   C     0.84805   0.14452   0.01294   0.00000  Uiso   1.00
C157   C     0.89004   0.12085   0.48405   0.00000  Uiso   1.00
C158   C     0.89499   0.10541   0.43140   0.00000  Uiso   1.00
C159   C     0.86180   0.11774   0.40725   0.00000  Uiso   1.00
C160   C     0.84600   0.16601   0.06071   0.00000  Uiso   1.00
C161   C     0.91452   0.12584   0.06413   0.00000  Uiso   1.00
C162   C     0.78980   0.15894   0.41106   0.00000  Uiso   1.00
C163   C     0.87902   0.31234   0.22223   0.00000  Uiso   1.00
C164   C     0.80672   0.16458   0.35218   0.00000  Uiso   1.00
C165   C     0.87814   0.02184   0.22455   0.00000  Uiso   1.00
C166   C     0.83422   0.04270   0.24734   0.00000  Uiso   1.00
C167   C     0.79078   0.02158   0.26678   0.00000  Uiso   1.00
C168   C     0.79129   0.31235   0.26521   0.00000  Uiso   1.00
C169   C     0.83516   0.29092   0.24445   0.00000  Uiso   1.00
C170   C     0.98438   0.13605   0.22355   0.00000  Uiso   1.00
C171   C     0.69912   0.13638   0.22291   0.00000  Uiso   1.00
C172   C     0.68108   0.19539   0.28032   0.00000  Uiso   1.00
C173   C     0.96685   0.19596   0.27911   0.00000  Uiso   1.00
C174   C     0.83353   0.08672   0.24952   0.00000  Uiso   1.00
C175   C     0.86002   0.16446   0.14758   0.00000  Uiso   1.00
C176   C     0.92425   0.11262   0.00983   0.00000  Uiso   1.00
C177   C     0.87608   0.15384   0.08913   0.00000  Uiso   1.00
C178   C     0.74386   0.17332   0.44319   0.00000  Uiso   1.00
C179   C     0.72872   0.17111   0.00041   0.00000  Uiso   1.00
C180   C     0.76164   0.15668   0.02421   0.00000  Uiso   1.00
H181   H     0.91148   0.03890   0.20803   0.00000  Uiso   1.00
H182   H     0.75663   0.03788   0.28406   0.00000  Uiso   1.00
H183   H     0.75740   0.29635   0.28125   0.00000  Uiso   1.00
H184   H     0.97253   0.11075   0.20419   0.00000  Uiso   1.00
H185   H     0.72386   0.11176   0.20236   0.00000  Uiso   1.00
H186   H     0.94105   0.21899   0.30278   0.00000  Uiso   1.00
H187   H     0.71984   0.18482   0.42328   0.00000  Uiso   1.00
H188   H     0.86746   0.10633   0.36646   0.00000  Uiso   1.00
N189   N     0.71426   0.16668   0.25001   0.00000  Uiso   1.00
N190   N     0.95239   0.16665   0.25001   0.00000  Uiso   1.00
O191   O     0.79512   0.22775   0.25001   0.00000  Uiso   1.00
O192   O     0.87157   0.22774   0.25001   0.00000  Uiso   1.00
O193   O     0.77613   0.16666   0.32681   0.00000  Uiso   1.00
O194   O     0.85258   0.16665   0.32681   0.00000  Uiso   1.00
O195   O     0.79510   0.10559   0.25000   0.00000  Uiso   1.00
O196   O     0.87154   0.10558   0.25000   0.00000  Uiso   1.00
O197   O     0.81409   0.16668   0.17319   0.00000  Uiso   1.00
O198   O     0.89053   0.16667   0.17319   0.00000  Uiso   1.00
Zn199  Zn    0.78229   0.16667   0.25000   0.00000  Uiso   1.00
Zn200  Zn    0.88438   0.16666   0.25000   0.00000  Uiso   1.00
C201   C     0.94126   0.10682   0.09479   0.00000  Uiso   1.00
N202   N     0.96269   0.09051   0.11842   0.00000  Uiso   1.00
C203   C     0.69267   0.22287   0.31771   0.00000  Uiso   1.00
N204   N     0.70136   0.24469   0.34858   0.00000  Uiso   1.00
O205   O     0.93434   0.08165   0.40096   0.00000  Uiso   1.00
C206   C     0.91962   0.04006   0.39934   0.00000  Uiso   1.00
H207   H     0.89506   0.03698   0.37547   0.00000  Uiso   1.00
H208   H     0.90230   0.02764   0.44102   0.00000  Uiso   1.00
H209   H     0.95196   0.02056   0.37873   0.00000  Uiso   1.00
C210   C     0.96857   0.08961   0.48261   0.00000  Uiso   1.00
N211   N     0.67071   0.07140   0.46117   0.00000  Uiso   1.00
O212   O     0.81299   0.19810   0.08103   0.00000  Uiso   1.00
C213   C     0.83612   0.23605   0.06229   0.00000  Uiso   1.00
H214   H     0.84978   0.23703   0.01703   0.00000  Uiso   1.00
H215   H     0.86593   0.24172   0.07834   0.00000  Uiso   1.00
H216   H     0.80953   0.26177   0.07743   0.00000  Uiso   1.00
O217   O     0.74410   0.14595   0.07855   0.00000  Uiso   1.00
C218   C     0.74523   0.10202   0.08183   0.00000  Uiso   1.00
H219   H     0.78150   0.09101   0.07966   0.00000  Uiso   1.00
H220   H     0.73413   0.08589   0.05004   0.00000  Uiso   1.00
H221   H     0.71938   0.09237   0.12135   0.00000  Uiso   1.00
O222   O     0.68174   0.17925   0.03482   0.00000  Uiso   1.00
C223   C     0.99214   0.21082   0.01533   0.00000  Uiso   1.00
H224   H     0.97809   0.19799   0.48414   0.00000  Uiso   1.00
H225   H     0.68282   0.23782   0.49949   0.00000  Uiso   1.00
H226   H     0.96070   0.22253   0.04971   0.00000  Uiso   1.00
C227   C     0.92485   0.29173   0.19551   0.00000  Uiso   1.00
N228   N     0.96151   0.27527   0.17410   0.00000  Uiso   1.00
C229   C     0.16736   0.57999   0.24782   0.00000  Uiso   1.00
C230   C     0.14372   0.48200   0.49155   0.00000  Uiso   1.00
C231   C     0.15436   0.47537   0.43592   0.00000  Uiso   1.00
C232   C     0.18139   0.47786   0.01294   0.00000  Uiso   1.00
C233   C     0.22338   0.45419   0.48405   0.00000  Uiso   1.00
C234   C     0.22833   0.43874   0.43140   0.00000  Uiso   1.00
C235   C     0.19513   0.45107   0.40725   0.00000  Uiso   1.00
C236   C     0.17933   0.49934   0.06071   0.00000  Uiso   1.00
C237   C     0.24785   0.45917   0.06413   0.00000  Uiso   1.00
C238   C     0.12314   0.49227   0.41106   0.00000  Uiso   1.00
C239   C     0.21236   0.64568   0.22223   0.00000  Uiso   1.00
C240   C     0.14005   0.49791   0.35218   0.00000  Uiso   1.00
C241   C     0.21148   0.35517   0.22455   0.00000  Uiso   1.00
C242   C     0.16755   0.37604   0.24734   0.00000  Uiso   1.00
C243   C     0.12412   0.35491   0.26678   0.00000  Uiso   1.00
C244   C     0.12462   0.64568   0.26521   0.00000  Uiso   1.00
C245   C     0.16850   0.62426   0.24445   0.00000  Uiso   1.00
C246   C     0.31771   0.46939   0.22355   0.00000  Uiso   1.00
C247   C     0.03245   0.46972   0.22291   0.00000  Uiso   1.00
C248   C     0.01441   0.52872   0.28032   0.00000  Uiso   1.00
C249   C     0.30018   0.52929   0.27911   0.00000  Uiso   1.00
C250   C     0.16687   0.42005   0.24952   0.00000  Uiso   1.00
C251   C     0.19335   0.49780   0.14758   0.00000  Uiso   1.00
C252   C     0.25759   0.44596   0.00983   0.00000  Uiso   1.00
C253   C     0.20942   0.48717   0.08913   0.00000  Uiso   1.00
C254   C     0.07720   0.50666   0.44319   0.00000  Uiso   1.00
C255   C     0.06206   0.50444   0.00041   0.00000  Uiso   1.00
C256   C     0.09498   0.49002   0.02421   0.00000  Uiso   1.00
H257   H     0.24482   0.37223   0.20803   0.00000  Uiso   1.00
H258   H     0.08996   0.37122   0.28406   0.00000  Uiso   1.00
H259   H     0.09073   0.62968   0.28125   0.00000  Uiso   1.00
H260   H     0.30587   0.44408   0.20419   0.00000  Uiso   1.00
H261   H     0.05720   0.44509   0.20236   0.00000  Uiso   1.00
H262   H     0.27438   0.55232   0.30278   0.00000  Uiso   1.00
H263   H     0.05317   0.51815   0.42328   0.00000  Uiso   1.00
H264   H     0.20080   0.43966   0.36646   0.00000  Uiso   1.00
N265   N     0.04760   0.50001   0.25001   0.00000  Uiso   1.00
N266   N     0.28573   0.49998   0.25001   0.00000  Uiso   1.00
O267   O     0.12846   0.56108   0.25001   0.00000  Uiso   1.00
O268   O     0.20490   0.56107   0.25001   0.00000  Uiso   1.00
O269   O     0.10947   0.50000   0.32681   0.00000  Uiso   1.00
O270   O     0.18591   0.49999   0.32681   0.00000  Uiso   1.00
O271   O     0.12843   0.43893   0.25000   0.00000  Uiso   1.00
O272   O     0.20488   0.43892   0.25000   0.00000  Uiso   1.00
O273   O     0.14742   0.50001   0.17319   0.00000  Uiso   1.00
O274   O     0.22387   0.50000   0.17319   0.00000  Uiso   1.00
Zn275  Zn    0.11562   0.50001   0.25000   0.00000  Uiso   1.00
Zn276  Zn    0.21771   0.49999   0.25000   0.00000  Uiso   1.00
C277   C     0.27459   0.44016   0.09479   0.00000  Uiso   1.00
N278   N     0.29602   0.42385   0.11842   0.00000  Uiso   1.00
C279   C     0.02600   0.55621   0.31771   0.00000  Uiso   1.00
N280   N     0.03470   0.57802   0.34858   0.00000  Uiso   1.00
O281   O     0.26768   0.41498   0.40096   0.00000  Uiso   1.00
C282   C     0.25296   0.37340   0.39934   0.00000  Uiso   1.00
H283   H     0.22840   0.37031   0.37547   0.00000  Uiso   1.00
H284   H     0.23564   0.36098   0.44102   0.00000  Uiso   1.00
H285   H     0.28529   0.35389   0.37873   0.00000  Uiso   1.00
C286   C     0.30191   0.42294   0.48261   0.00000  Uiso   1.00
N287   N     0.00404   0.40473   0.46117   0.00000  Uiso   1.00
O288   O     0.14632   0.53143   0.08103   0.00000  Uiso   1.00
C289   C     0.16946   0.56939   0.06229   0.00000  Uiso   1.00
H290   H     0.18311   0.57037   0.01703   0.00000  Uiso   1.00
H291   H     0.19926   0.57506   0.07834   0.00000  Uiso   1.00
H292   H     0.14287   0.59510   0.07743   0.00000  Uiso   1.00
O293   O     0.07743   0.47929   0.07855   0.00000  Uiso   1.00
C294   C     0.07856   0.43535   0.08183   0.00000  Uiso   1.00
H295   H     0.11484   0.42434   0.07966   0.00000  Uiso   1.00
H296   H     0.06746   0.41922   0.05004   0.00000  Uiso   1.00
H297   H     0.05271   0.42570   0.12135   0.00000  Uiso   1.00
O298   O     0.01507   0.51259   0.03482   0.00000  Uiso   1.00
C299   C     0.32547   0.54415   0.01533   0.00000  Uiso   1.00
H300   H     0.31142   0.53132   0.48414   0.00000  Uiso   1.00
H301   H     0.01615   0.57116   0.49949   0.00000  Uiso   1.00
H302   H     0.29403   0.55586   0.04971   0.00000  Uiso   1.00
C303   C     0.25818   0.62506   0.19551   0.00000  Uiso   1.00
N304   N     0.29484   0.60860   0.17410   0.00000  Uiso   1.00
C305   C     0.50070   0.57999   0.24782   0.00000  Uiso   1.00
C306   C     0.47706   0.48200   0.49155   0.00000  Uiso   1.00
C307   C     0.48769   0.47537   0.43592   0.00000  Uiso   1.00
C308   C     0.51472   0.47786   0.01294   0.00000  Uiso   1.00
C309   C     0.55671   0.45419   0.48405   0.00000  Uiso   1.00
C310   C     0.56166   0.43874   0.43140   0.00000  Uiso   1.00
C311   C     0.52846   0.45107   0.40725   0.00000  Uiso   1.00
C312   C     0.51267   0.49934   0.06071   0.00000  Uiso   1.00
C313   C     0.58118   0.45917   0.06413   0.00000  Uiso   1.00
C314   C     0.45647   0.49227   0.41106   0.00000  Uiso   1.00
C315   C     0.54569   0.64568   0.22223   0.00000  Uiso   1.00
C316   C     0.47339   0.49791   0.35218   0.00000  Uiso   1.00
C317   C     0.54481   0.35517   0.22455   0.00000  Uiso   1.00
C318   C     0.50088   0.37604   0.24734   0.00000  Uiso   1.00
C319   C     0.45745   0.35491   0.26678   0.00000  Uiso   1.00
C320   C     0.45796   0.64568   0.26521   0.00000  Uiso   1.00
C321   C     0.50183   0.62426   0.24445   0.00000  Uiso   1.00
C322   C     0.65105   0.46939   0.22355   0.00000  Uiso   1.00
C323   C     0.36578   0.46972   0.22291   0.00000  Uiso   1.00
C324   C     0.34774   0.52872   0.28032   0.00000  Uiso   1.00
C325   C     0.63352   0.52929   0.27911   0.00000  Uiso   1.00
C326   C     0.50020   0.42005   0.24952   0.00000  Uiso   1.00
C327   C     0.52669   0.49780   0.14758   0.00000  Uiso   1.00
C328   C     0.59092   0.44596   0.00983   0.00000  Uiso   1.00
C329   C     0.54275   0.48717   0.08913   0.00000  Uiso   1.00
C330   C     0.41053   0.50666   0.44319   0.00000  Uiso   1.00
C331   C     0.39539   0.50444   0.00041   0.00000  Uiso   1.00
C332   C     0.42831   0.49002   0.02421   0.00000  Uiso   1.00
H333   H     0.57815   0.37223   0.20803   0.00000  Uiso   1.00
H334   H     0.42330   0.37122   0.28406   0.00000  Uiso   1.00
H335   H     0.42406   0.62968   0.28125   0.00000  Uiso   1.00
H336   H     0.63920   0.44408   0.20419   0.00000  Uiso   1.00
H337   H     0.39053   0.44509   0.20236   0.00000  Uiso   1.00
H338   H     0.60772   0.55232   0.30278   0.00000  Uiso   1.00
H339   H     0.38650   0.51815   0.42328   0.00000  Uiso   1.00
H340   H     0.53413   0.43966   0.36646   0.00000  Uiso   1.00
N341   N     0.38093   0.50001   0.25001   0.00000  Uiso   1.00
N342   N     0.61906   0.49998   0.25001   0.00000  Uiso   1.00
O343   O     0.46179   0.56108   0.25001   0.00000  Uiso   1.00
O344   O     0.53823   0.56107   0.25001   0.00000  Uiso   1.00
O345   O     0.44280   0.50000   0.32681   0.00000  Uiso   1.00
O346   O     0.51924   0.49999   0.32681   0.00000  Uiso   1.00
O347   O     0.46177   0.43893   0.25000   0.00000  Uiso   1.00
O348   O     0.53821   0.43892   0.25000   0.00000  Uiso   1.00
O349   O     0.48076   0.50001   0.17319   0.00000  Uiso   1.00
O350   O     0.55720   0.50000   0.17319   0.00000  Uiso   1.00
Zn351  Zn    0.44896   0.50001   0.25000   0.00000  Uiso   1.00
Zn352  Zn    0.55104   0.49999   0.25000   0.00000  Uiso   1.00
C353   C     0.60792   0.44016   0.09479   0.00000  Uiso   1.00
N354   N     0.62936   0.42385   0.11842   0.00000  Uiso   1.00
C355   C     0.35934   0.55621   0.31771   0.00000  Uiso   1.00
N356   N     0.36803   0.57802   0.34858   0.00000  Uiso   1.00
O357   O     0.60101   0.41498   0.40096   0.00000  Uiso   1.00
C358   C     0.58629   0.37340   0.39934   0.00000  Uiso   1.00
H359   H     0.56173   0.37031   0.37547   0.00000  Uiso   1.00
H360   H     0.56897   0.36098   0.44102   0.00000  Uiso   1.00
H361   H     0.61862   0.35389   0.37873   0.00000  Uiso   1.00
C362   C     0.63524   0.42294   0.48261   0.00000  Uiso   1.00
N363   N     0.33738   0.40473   0.46117   0.00000  Uiso   1.00
O364   O     0.47965   0.53143   0.08103   0.00000  Uiso   1.00
C365   C     0.50279   0.56939   0.06229   0.00000  Uiso   1.00
H366   H     0.51644   0.57037   0.01703   0.00000  Uiso   1.00
H367   H     0.53260   0.57506   0.07834   0.00000  Uiso   1.00
H368   H     0.47620   0.59510   0.07743   0.00000  Uiso   1.00
O369   O     0.41076   0.47929   0.07855   0.00000  Uiso   1.00
C370   C     0.41190   0.43535   0.08183   0.00000  Uiso   1.00
H371   H     0.44817   0.42434   0.07966   0.00000  Uiso   1.00
H372   H     0.40079   0.41922   0.05004   0.00000  Uiso   1.00
H373   H     0.38604   0.42570   0.12135   0.00000  Uiso   1.00
O374   O     0.34840   0.51259   0.03482   0.00000  Uiso   1.00
C375   C     0.65881   0.54415   0.01533   0.00000  Uiso   1.00
H376   H     0.64476   0.53132   0.48414   0.00000  Uiso   1.00
H377   H     0.34948   0.57116   0.49949   0.00000  Uiso   1.00
H378   H     0.62736   0.55586   0.04971   0.00000  Uiso   1.00
C379   C     0.59151   0.62506   0.19551   0.00000  Uiso   1.00
N380   N     0.62817   0.60860   0.17410   0.00000  Uiso   1.00
C381   C     0.83403   0.57999   0.24782   0.00000  Uiso   1.00
C382   C     0.81039   0.48200   0.49155   0.00000  Uiso   1.00
C383   C     0.82102   0.47537   0.43592   0.00000  Uiso   1.00
C384   C     0.84805   0.47786   0.01294   0.00000  Uiso   1.00
C385   C     0.89004   0.45419   0.48405   0.00000  Uiso   1.00
C386   C     0.89499   0.43874   0.43140   0.00000  Uiso   1.00
C387   C     0.86180   0.45107   0.40725   0.00000  Uiso   1.00
C388   C     0.84600   0.49934   0.06071   0.00000  Uiso   1.00
C389   C     0.91452   0.45917   0.06413   0.00000  Uiso   1.00
C390   C     0.78980   0.49227   0.41106   0.00000  Uiso   1.00
C391   C     0.87902   0.64568   0.22223   0.00000  Uiso   1.00
C392   C     0.80672   0.49791   0.35218   0.00000  Uiso   1.00
C393   C     0.87814   0.35517   0.22455   0.00000  Uiso   1.00
C394   C     0.83422   0.37604   0.24734   0.00000  Uiso   1.00
C395   C     0.79078   0.35491   0.26678   0.00000  Uiso   1.00
C396   C     0.79129   0.64568   0.26521   0.00000  Uiso   1.00
C397   C     0.83516   0.62426   0.24445   0.00000  Uiso   1.00
C398   C     0.98438   0.46939   0.22355   0.00000  Uiso   1.00
C399   C     0.69912   0.46972   0.22291   0.00000  Uiso   1.00
C400   C     0.68108   0.52872   0.28032   0.00000  Uiso   1.00
C401   C     0.96685   0.52929   0.27911   0.00000  Uiso   1.00
C402   C     0.83353   0.42005   0.24952   0.00000  Uiso   1.00
C403   C     0.86002   0.49780   0.14758   0.00000  Uiso   1.00
C404   C     0.92425   0.44596   0.00983   0.00000  Uiso   1.00
C405   C     0.87608   0.48717   0.08913   0.00000  Uiso   1.00
C406   C     0.74386   0.50666   0.44319   0.00000  Uiso   1.00
C407   C     0.72872   0.50444   0.00041   0.00000  Uiso   1.00
C408   C     0.76164   0.49002   0.02421   0.00000  Uiso   1.00
H409   H     0.91148   0.37223   0.20803   0.00000  Uiso   1.00
H410   H     0.75663   0.37122   0.28406   0.00000  Uiso   1.00
H411   H     0.75740   0.62968   0.28125   0.00000  Uiso   1.00
H412   H     0.97253   0.44408   0.20419   0.00000  Uiso   1.00
H413   H     0.72386   0.44509   0.20236   0.00000  Uiso   1.00
H414   H     0.94105   0.55232   0.30278   0.00000  Uiso   1.00
H415   H     0.71984   0.51815   0.42328   0.00000  Uiso   1.00
H416   H     0.86746   0.43966   0.36646   0.00000  Uiso   1.00
N417   N     0.71426   0.50001   0.25001   0.00000  Uiso   1.00
N418   N     0.95239   0.49998   0.25001   0.00000  Uiso   1.00
O419   O     0.79512   0.56108   0.25001   0.00000  Uiso   1.00
O420   O     0.87157   0.56107   0.25001   0.00000  Uiso   1.00
O421   O     0.77613   0.50000   0.32681   0.00000  Uiso   1.00
O422   O     0.85258   0.49999   0.32681   0.00000  Uiso   1.00
O423   O     0.79510   0.43893   0.25000   0.00000  Uiso   1.00
O424   O     0.87154   0.43892   0.25000   0.00000  Uiso   1.00
O425   O     0.81409   0.50001   0.17319   0.00000  Uiso   1.00
O426   O     0.89053   0.50000   0.17319   0.00000  Uiso   1.00
Zn427  Zn    0.78229   0.50001   0.25000   0.00000  Uiso   1.00
Zn428  Zn    0.88438   0.49999   0.25000   0.00000  Uiso   1.00
C429   C     0.94126   0.44016   0.09479   0.00000  Uiso   1.00
N430   N     0.96269   0.42385   0.11842   0.00000  Uiso   1.00
C431   C     0.69267   0.55621   0.31771   0.00000  Uiso   1.00
N432   N     0.70136   0.57802   0.34858   0.00000  Uiso   1.00
O433   O     0.93434   0.41498   0.40096   0.00000  Uiso   1.00
C434   C     0.91962   0.37340   0.39934   0.00000  Uiso   1.00
H435   H     0.89506   0.37031   0.37547   0.00000  Uiso   1.00
H436   H     0.90230   0.36098   0.44102   0.00000  Uiso   1.00
H437   H     0.95196   0.35389   0.37873   0.00000  Uiso   1.00
C438   C     0.96857   0.42294   0.48261   0.00000  Uiso   1.00
N439   N     0.67071   0.40473   0.46117   0.00000  Uiso   1.00
O440   O     0.81299   0.53143   0.08103   0.00000  Uiso   1.00
C441   C     0.83612   0.56939   0.06229   0.00000  Uiso   1.00
H442   H     0.84978   0.57037   0.01703   0.00000  Uiso   1.00
H443   H     0.86593   0.57506   0.07834   0.00000  Uiso   1.00
H444   H     0.80953   0.59510   0.07743   0.00000  Uiso   1.00
O445   O     0.74410   0.47929   0.07855   0.00000  Uiso   1.00
C446   C     0.74523   0.43535   0.08183   0.00000  Uiso   1.00
H447   H     0.78150   0.42434   0.07966   0.00000  Uiso   1.00
H448   H     0.73413   0.41922   0.05004   0.00000  Uiso   1.00
H449   H     0.71938   0.42570   0.12135   0.00000  Uiso   1.00
O450   O     0.68174   0.51259   0.03482   0.00000  Uiso   1.00
C451   C     0.99214   0.54415   0.01533   0.00000  Uiso   1.00
H452   H     0.97809   0.53132   0.48414   0.00000  Uiso   1.00
H453   H     0.68282   0.57116   0.49949   0.00000  Uiso   1.00
H454   H     0.96070   0.55586   0.04971   0.00000  Uiso   1.00
C455   C     0.92485   0.62506   0.19551   0.00000  Uiso   1.00
N456   N     0.96151   0.60860   0.17410   0.00000  Uiso   1.00
C457   C     0.16736   0.91332   0.24782   0.00000  Uiso   1.00
C458   C     0.14372   0.81534   0.49155   0.00000  Uiso   1.00
C459   C     0.15436   0.80871   0.43592   0.00000  Uiso   1.00
C460   C     0.18139   0.81119   0.01294   0.00000  Uiso   1.00
C461   C     0.22338   0.78752   0.48405   0.00000  Uiso   1.00
C462   C     0.22833   0.77207   0.43140   0.00000  Uiso   1.00
C463   C     0.19513   0.78441   0.40725   0.00000  Uiso   1.00
C464   C     0.17933   0.83267   0.06071   0.00000  Uiso   1.00
C465   C     0.24785   0.79251   0.06413   0.00000  Uiso   1.00
C466   C     0.12314   0.82561   0.41106   0.00000  Uiso   1.00
C467   C     0.21236   0.97901   0.22223   0.00000  Uiso   1.00
C468   C     0.14005   0.83125   0.35218   0.00000  Uiso   1.00
C469   C     0.21148   0.68850   0.22455   0.00000  Uiso   1.00
C470   C     0.16755   0.70937   0.24734   0.00000  Uiso   1.00
C471   C     0.12412   0.68824   0.26678   0.00000  Uiso   1.00
C472   C     0.12462   0.97902   0.26521   0.00000  Uiso   1.00
C473   C     0.16850   0.95759   0.24445   0.00000  Uiso   1.00
C474   C     0.31771   0.80272   0.22355   0.00000  Uiso   1.00
C475   C     0.03245   0.80305   0.22291   0.00000  Uiso   1.00
C476   C     0.01441   0.86206   0.28032   0.00000  Uiso   1.00
C477   C     0.30018   0.86263   0.27911   0.00000  Uiso   1.00
C478   C     0.16687   0.75338   0.24952   0.00000  Uiso   1.00
C479   C     0.19335   0.83113   0.14758   0.00000  Uiso   1.00
C480   C     0.25759   0.77929   0.00983   0.00000  Uiso   1.00
C481   C     0.20942   0.82050   0.08913   0.00000  Uiso   1.00
C482   C     0.07720   0.83999   0.44319   0.00000  Uiso   1.00
C483   C     0.06206   0.83778   0.00041   0.00000  Uiso   1.00
C484   C     0.09498   0.82335   0.02421   0.00000  Uiso   1.00
H485   H     0.24482   0.70556   0.20803   0.00000  Uiso   1.00
H486   H     0.08996   0.70455   0.28406   0.00000  Uiso   1.00
H487   H     0.09073   0.96302   0.28125   0.00000  Uiso   1.00
H488   H     0.30587   0.77741   0.20419   0.00000  Uiso   1.00
H489   H     0.05720   0.77842   0.20236   0.00000  Uiso   1.00
H490   H     0.27438   0.88566   0.30278   0.00000  Uiso   1.00
H491   H     0.05317   0.85148   0.42328   0.00000  Uiso   1.00
H492   H     0.20080   0.77300   0.36646   0.00000  Uiso   1.00
N493   N     0.04760   0.83334   0.25001   0.00000  Uiso   1.00
N494   N     0.28573   0.83331   0.25001   0.00000  Uiso   1.00
O495   O     0.12846   0.89442   0.25001   0.00000  Uiso   1.00
O496   O     0.20490   0.89441   0.25001   0.00000  Uiso   1.00
O497   O     0.10947   0.83333   0.32681   0.00000  Uiso   1.00
O498   O     0.18591   0.83332   0.32681   0.00000  Uiso   1.00
O499   O     0.12843   0.77226   0.25000   0.00000  Uiso   1.00
O500   O     0.20488   0.77225   0.25000   0.00000  Uiso   1.00
O501   O     0.14742   0.83335   0.17319   0.00000  Uiso   1.00
O502   O     0.22387   0.83334   0.17319   0.00000  Uiso   1.00
Zn503  Zn    0.11562   0.83334   0.25000   0.00000  Uiso   1.00
Zn504  Zn    0.21771   0.83333   0.25000   0.00000  Uiso   1.00
C505   C     0.27459   0.77349   0.09479   0.00000  Uiso   1.00
N506   N     0.29602   0.75718   0.11842   0.00000  Uiso   1.00
C507   C     0.02600   0.88954   0.31771   0.00000  Uiso   1.00
N508   N     0.03470   0.91136   0.34858   0.00000  Uiso   1.00
O509   O     0.26768   0.74832   0.40096   0.00000  Uiso   1.00
C510   C     0.25296   0.70673   0.39934   0.00000  Uiso   1.00
H511   H     0.22840   0.70364   0.37547   0.00000  Uiso   1.00
H512   H     0.23564   0.69431   0.44102   0.00000  Uiso   1.00
H513   H     0.28529   0.68723   0.37873   0.00000  Uiso   1.00
C514   C     0.30191   0.75627   0.48261   0.00000  Uiso   1.00
N515   N     0.00404   0.73806   0.46117   0.00000  Uiso   1.00
O516   O     0.14632   0.86477   0.08103   0.00000  Uiso   1.00
C517   C     0.16946   0.90272   0.06229   0.00000  Uiso   1.00
H518   H     0.18311   0.90370   0.01703   0.00000  Uiso   1.00
H519   H     0.19926   0.90839   0.07834   0.00000  Uiso   1.00
H520   H     0.14287   0.92844   0.07743   0.00000  Uiso   1.00
O521   O     0.07743   0.81262   0.07855   0.00000  Uiso   1.00
C522   C     0.07856   0.76868   0.08183   0.00000  Uiso   1.00
H523   H     0.11484   0.75767   0.07966   0.00000  Uiso   1.00
H524   H     0.06746   0.75255   0.05004   0.00000  Uiso   1.00
H525   H     0.05271   0.75903   0.12135   0.00000  Uiso   1.00
O526   O     0.01507   0.84592   0.03482   0.00000  Uiso   1.00
C527   C     0.32547   0.87749   0.01533   0.00000  Uiso   1.00
H528   H     0.31142   0.86465   0.48414   0.00000  Uiso   1.00
H529   H     0.01615   0.90449   0.49949   0.00000  Uiso   1.00
H530   H     0.29403   0.88919   0.04971   0.00000  Uiso   1.00
C531   C     0.25818   0.95839   0.19551   0.00000  Uiso   1.00
N532   N     0.29484   0.94194   0.17410   0.00000  Uiso   1.00
C533   C     0.50070   0.91332   0.24782   0.00000  Uiso   1.00
C534   C     0.47706   0.81534   0.49155   0.00000  Uiso   1.00
C535   C     0.48769   0.80871   0.43592   0.00000  Uiso   1.00
C536   C     0.51472   0.81119   0.01294   0.00000  Uiso   1.00
C537   C     0.55671   0.78752   0.48405   0.00000  Uiso   1.00
C538   C     0.56166   0.77207   0.43140   0.00000  Uiso   1.00
C539   C     0.52846   0.78441   0.40725   0.00000  Uiso   1.00
C540   C     0.51267   0.83267   0.06071   0.00000  Uiso   1.00
C541   C     0.58118   0.79251   0.06413   0.00000  Uiso   1.00
C542   C     0.45647   0.82561   0.41106   0.00000  Uiso   1.00
C543   C     0.54569   0.97901   0.22223   0.00000  Uiso   1.00
C544   C     0.47339   0.83125   0.35218   0.00000  Uiso   1.00
C545   C     0.54481   0.68850   0.22455   0.00000  Uiso   1.00
C546   C     0.50088   0.70937   0.24734   0.00000  Uiso   1.00
C547   C     0.45745   0.68824   0.26678   0.00000  Uiso   1.00
C548   C     0.45796   0.97902   0.26521   0.00000  Uiso   1.00
C549   C     0.50183   0.95759   0.24445   0.00000  Uiso   1.00
C550   C     0.65105   0.80272   0.22355   0.00000  Uiso   1.00
C551   C     0.36578   0.80305   0.22291   0.00000  Uiso   1.00
C552   C     0.34774   0.86206   0.28032   0.00000  Uiso   1.00
C553   C     0.63352   0.86263   0.27911   0.00000  Uiso   1.00
C554   C     0.50020   0.75338   0.24952   0.00000  Uiso   1.00
C555   C     0.52669   0.83113   0.14758   0.00000  Uiso   1.00
C556   C     0.59092   0.77929   0.00983   0.00000  Uiso   1.00
C557   C     0.54275   0.82050   0.08913   0.00000  Uiso   1.00
C558   C     0.41053   0.83999   0.44319   0.00000  Uiso   1.00
C559   C     0.39539   0.83778   0.00041   0.00000  Uiso   1.00
C560   C     0.42831   0.82335   0.02421   0.00000  Uiso   1.00
H561   H     0.57815   0.70556   0.20803   0.00000  Uiso   1.00
H562   H     0.42330   0.70455   0.28406   0.00000  Uiso   1.00
H563   H     0.42406   0.96302   0.28125   0.00000  Uiso   1.00
H564   H     0.63920   0.77741   0.20419   0.00000  Uiso   1.00
H565   H     0.39053   0.77842   0.20236   0.00000  Uiso   1.00
H566   H     0.60772   0.88566   0.30278   0.00000  Uiso   1.00
H567   H     0.38650   0.85148   0.42328   0.00000  Uiso   1.00
H568   H     0.53413   0.77300   0.36646   0.00000  Uiso   1.00
N569   N     0.38093   0.83334   0.25001   0.00000  Uiso   1.00
N570   N     0.61906   0.83331   0.25001   0.00000  Uiso   1.00
O571   O     0.46179   0.89442   0.25001   0.00000  Uiso   1.00
O572   O     0.53823   0.89441   0.25001   0.00000  Uiso   1.00
O573   O     0.44280   0.83333   0.32681   0.00000  Uiso   1.00
O574   O     0.51924   0.83332   0.32681   0.00000  Uiso   1.00
O575   O     0.46177   0.77226   0.25000   0.00000  Uiso   1.00
O576   O     0.53821   0.77225   0.25000   0.00000  Uiso   1.00
O577   O     0.48076   0.83335   0.17319   0.00000  Uiso   1.00
O578   O     0.55720   0.83334   0.17319   0.00000  Uiso   1.00
Zn579  Zn    0.44896   0.83334   0.25000   0.00000  Uiso   1.00
Zn580  Zn    0.55104   0.83333   0.25000   0.00000  Uiso   1.00
C581   C     0.60792   0.77349   0.09479   0.00000  Uiso   1.00
N582   N     0.62936   0.75718   0.11842   0.00000  Uiso   1.00
C583   C     0.35934   0.88954   0.31771   0.00000  Uiso   1.00
N584   N     0.36803   0.91136   0.34858   0.00000  Uiso   1.00
O585   O     0.60101   0.74832   0.40096   0.00000  Uiso   1.00
C586   C     0.58629   0.70673   0.39934   0.00000  Uiso   1.00
H587   H     0.56173   0.70364   0.37547   0.00000  Uiso   1.00
H588   H     0.56897   0.69431   0.44102   0.00000  Uiso   1.00
H589   H     0.61862   0.68723   0.37873   0.00000  Uiso   1.00
C590   C     0.63524   0.75627   0.48261   0.00000  Uiso   1.00
N591   N     0.33738   0.73806   0.46117   0.00000  Uiso   1.00
O592   O     0.47965   0.86477   0.08103   0.00000  Uiso   1.00
C593   C     0.50279   0.90272   0.06229   0.00000  Uiso   1.00
H594   H     0.51644   0.90370   0.01703   0.00000  Uiso   1.00
H595   H     0.53260   0.90839   0.07834   0.00000  Uiso   1.00
H596   H     0.47620   0.92844   0.07743   0.00000  Uiso   1.00
O597   O     0.41076   0.81262   0.07855   0.00000  Uiso   1.00
C598   C     0.41190   0.76868   0.08183   0.00000  Uiso   1.00
H599   H     0.44817   0.75767   0.07966   0.00000  Uiso   1.00
H600   H     0.40079   0.75255   0.05004   0.00000  Uiso   1.00
H601   H     0.38604   0.75903   0.12135   0.00000  Uiso   1.00
O602   O     0.34840   0.84592   0.03482   0.00000  Uiso   1.00
C603   C     0.65881   0.87749   0.01533   0.00000  Uiso   1.00
H604   H     0.64476   0.86465   0.48414   0.00000  Uiso   1.00
H605   H     0.34948   0.90449   0.49949   0.00000  Uiso   1.00
H606   H     0.62736   0.88919   0.04971   0.00000  Uiso   1.00
C607   C     0.59151   0.95839   0.19551   0.00000  Uiso   1.00
N608   N     0.62817   0.94194   0.17410   0.00000  Uiso   1.00
C609   C     0.83403   0.91332   0.24782   0.00000  Uiso   1.00
C610   C     0.81039   0.81534   0.49155   0.00000  Uiso   1.00
C611   C     0.82102   0.80871   0.43592   0.00000  Uiso   1.00
C612   C     0.84805   0.81119   0.01294   0.00000  Uiso   1.00
C613   C     0.89004   0.78752   0.48405   0.00000  Uiso   1.00
C614   C     0.89499   0.77207   0.43140   0.00000  Uiso   1.00
C615   C     0.86180   0.78441   0.40725   0.00000  Uiso   1.00
C616   C     0.84600   0.83267   0.06071   0.00000  Uiso   1.00
C617   C     0.91452   0.79251   0.06413   0.00000  Uiso   1.00
C618   C     0.78980   0.82561   0.41106   0.00000  Uiso   1.00
C619   C     0.87902   0.97901   0.22223   0.00000  Uiso   1.00
C620   C     0.80672   0.83125   0.35218   0.00000  Uiso   1.00
C621   C     0.87814   0.68850   0.22455   0.00000  Uiso   1.00
C622   C     0.83422   0.70937   0.24734   0.00000  Uiso   1.00
C623   C     0.79078   0.68824   0.26678   0.00000  Uiso   1.00
C624   C     0.79129   0.97902   0.26521   0.00000  Uiso   1.00
C625   C     0.83516   0.95759   0.24445   0.00000  Uiso   1.00
C626   C     0.98438   0.80272   0.22355   0.00000  Uiso   1.00
C627   C     0.69912   0.80305   0.22291   0.00000  Uiso   1.00
C628   C     0.68108   0.86206   0.28032   0.00000  Uiso   1.00
C629   C     0.96685   0.86263   0.27911   0.00000  Uiso   1.00
C630   C     0.83353   0.75338   0.24952   0.00000  Uiso   1.00
C631   C     0.86002   0.83113   0.14758   0.00000  Uiso   1.00
C632   C     0.92425   0.77929   0.00983   0.00000  Uiso   1.00
C633   C     0.87608   0.82050   0.08913   0.00000  Uiso   1.00
C634   C     0.74386   0.83999   0.44319   0.00000  Uiso   1.00
C635   C     0.72872   0.83778   0.00041   0.00000  Uiso   1.00
C636   C     0.76164   0.82335   0.02421   0.00000  Uiso   1.00
H637   H     0.91148   0.70556   0.20803   0.00000  Uiso   1.00
H638   H     0.75663   0.70455   0.28406   0.00000  Uiso   1.00
H639   H     0.75740   0.96302   0.28125   0.00000  Uiso   1.00
H640   H     0.97253   0.77741   0.20419   0.00000  Uiso   1.00
H641   H     0.72386   0.77842   0.20236   0.00000  Uiso   1.00
H642   H     0.94105   0.88566   0.30278   0.00000  Uiso   1.00
H643   H     0.71984   0.85148   0.42328   0.00000  Uiso   1.00
H644   H     0.86746   0.77300   0.36646   0.00000  Uiso   1.00
N645   N     0.71426   0.83334   0.25001   0.00000  Uiso   1.00
N646   N     0.95239   0.83331   0.25001   0.00000  Uiso   1.00
O647   O     0.79512   0.89442   0.25001   0.00000  Uiso   1.00
O648   O     0.87157   0.89441   0.25001   0.00000  Uiso   1.00
O649   O     0.77613   0.83333   0.32681   0.00000  Uiso   1.00
O650   O     0.85258   0.83332   0.32681   0.00000  Uiso   1.00
O651   O     0.79510   0.77226   0.25000   0.00000  Uiso   1.00
O652   O     0.87154   0.77225   0.25000   0.00000  Uiso   1.00
O653   O     0.81409   0.83335   0.17319   0.00000  Uiso   1.00
O654   O     0.89053   0.83334   0.17319   0.00000  Uiso   1.00
Zn655  Zn    0.78229   0.83334   0.25000   0.00000  Uiso   1.00
Zn656  Zn    0.88438   0.83333   0.25000   0.00000  Uiso   1.00
C657   C     0.94126   0.77349   0.09479   0.00000  Uiso   1.00
N658   N     0.96269   0.75718   0.11842   0.00000  Uiso   1.00
C659   C     0.69267   0.88954   0.31771   0.00000  Uiso   1.00
N660   N     0.70136   0.91136   0.34858   0.00000  Uiso   1.00
O661   O     0.93434   0.74832   0.40096   0.00000  Uiso   1.00
C662   C     0.91962   0.70673   0.39934   0.00000  Uiso   1.00
H663   H     0.89506   0.70364   0.37547   0.00000  Uiso   1.00
H664   H     0.90230   0.69431   0.44102   0.00000  Uiso   1.00
H665   H     0.95196   0.68723   0.37873   0.00000  Uiso   1.00
C666   C     0.96857   0.75627   0.48261   0.00000  Uiso   1.00
N667   N     0.67071   0.73806   0.46117   0.00000  Uiso   1.00
O668   O     0.81299   0.86477   0.08103   0.00000  Uiso   1.00
C669   C     0.83612   0.90272   0.06229   0.00000  Uiso   1.00
H670   H     0.84978   0.90370   0.01703   0.00000  Uiso   1.00
H671   H     0.86593   0.90839   0.07834   0.00000  Uiso   1.00
H672   H     0.80953   0.92844   0.07743   0.00000  Uiso   1.00
O673   O     0.74410   0.81262   0.07855   0.00000  Uiso   1.00
C674   C     0.74523   0.76868   0.08183   0.00000  Uiso   1.00
H675   H     0.78150   0.75767   0.07966   0.00000  Uiso   1.00
H676   H     0.73413   0.75255   0.05004   0.00000  Uiso   1.00
H677   H     0.71938   0.75903   0.12135   0.00000  Uiso   1.00
O678   O     0.68174   0.84592   0.03482   0.00000  Uiso   1.00
C679   C     0.99214   0.87749   0.01533   0.00000  Uiso   1.00
H680   H     0.97809   0.86465   0.48414   0.00000  Uiso   1.00
H681   H     0.68282   0.90449   0.49949   0.00000  Uiso   1.00
H682   H     0.96070   0.88919   0.04971   0.00000  Uiso   1.00
C683   C     0.92485   0.95839   0.19551   0.00000  Uiso   1.00
N684   N     0.96151   0.94194   0.17410   0.00000  Uiso   1.00
C685   C     0.16736   0.24665   0.74782   0.00000  Uiso   1.00
C686   C     0.14372   0.14867   0.99155   0.00000  Uiso   1.00
C687   C     0.15436   0.14204   0.93592   0.00000  Uiso   1.00
C688   C     0.18139   0.14452   0.51294   0.00000  Uiso   1.00
C689   C     0.22338   0.12085   0.98405   0.00000  Uiso   1.00
C690   C     0.22833   0.10541   0.93140   0.00000  Uiso   1.00
C691   C     0.19513   0.11774   0.90725   0.00000  Uiso   1.00
C692   C     0.17933   0.16601   0.56071   0.00000  Uiso   1.00
C693   C     0.24785   0.12584   0.56413   0.00000  Uiso   1.00
C694   C     0.12314   0.15894   0.91106   0.00000  Uiso   1.00
C695   C     0.21236   0.31234   0.72223   0.00000  Uiso   1.00
C696   C     0.14005   0.16458   0.85218   0.00000  Uiso   1.00
C697   C     0.21148   0.02184   0.72455   0.00000  Uiso   1.00
C698   C     0.16755   0.04270   0.74734   0.00000  Uiso   1.00
C699   C     0.12412   0.02158   0.76678   0.00000  Uiso   1.00
C700   C     0.12462   0.31235   0.76521   0.00000  Uiso   1.00
C701   C     0.16850   0.29092   0.74445   0.00000  Uiso   1.00
C702   C     0.31771   0.13605   0.72355   0.00000  Uiso   1.00
C703   C     0.03245   0.13638   0.72291   0.00000  Uiso   1.00
C704   C     0.01441   0.19539   0.78032   0.00000  Uiso   1.00
C705   C     0.30018   0.19596   0.77911   0.00000  Uiso   1.00
C706   C     0.16687   0.08672   0.74952   0.00000  Uiso   1.00
C707   C     0.19335   0.16446   0.64758   0.00000  Uiso   1.00
C708   C     0.25759   0.11262   0.50983   0.00000  Uiso   1.00
C709   C     0.20942   0.15384   0.58913   0.00000  Uiso   1.00
C710   C     0.07720   0.17332   0.94319   0.00000  Uiso   1.00
C711   C     0.06206   0.17111   0.50041   0.00000  Uiso   1.00
C712   C     0.09498   0.15668   0.52421   0.00000  Uiso   1.00
H713   H     0.24482   0.03890   0.70803   0.00000  Uiso   1.00
H714   H     0.08996   0.03788   0.78406   0.00000  Uiso   1.00
H715   H     0.09073   0.29635   0.78125   0.00000  Uiso   1.00
H716   H     0.30587   0.11075   0.70419   0.00000  Uiso   1.00
H717   H     0.05720   0.11176   0.70236   0.00000  Uiso   1.00
H718   H     0.27438   0.21899   0.80278   0.00000  Uiso   1.00
H719   H     0.05317   0.18482   0.92328   0.00000  Uiso   1.00
H720   H     0.20080   0.10633   0.86646   0.00000  Uiso   1.00
N721   N     0.04760   0.16668   0.75001   0.00000  Uiso   1.00
N722   N     0.28573   0.16665   0.75001   0.00000  Uiso   1.00
O723   O     0.12846   0.22775   0.75001   0.00000  Uiso   1.00
O724   O     0.20490   0.22774   0.75001   0.00000  Uiso   1.00
O725   O     0.10947   0.16666   0.82681   0.00000  Uiso   1.00
O726   O     0.18591   0.16665   0.82681   0.00000  Uiso   1.00
O727   O     0.12843   0.10559   0.75000   0.00000  Uiso   1.00
O728   O     0.20488   0.10558   0.75000   0.00000  Uiso   1.00
O729   O     0.14742   0.16668   0.67319   0.00000  Uiso   1.00
O730   O     0.22387   0.16667   0.67319   0.00000  Uiso   1.00
Zn731  Zn    0.11562   0.16667   0.75000   0.00000  Uiso   1.00
Zn732  Zn    0.21771   0.16666   0.75000   0.00000  Uiso   1.00
C733   C     0.27459   0.10682   0.59479   0.00000  Uiso   1.00
N734   N     0.29602   0.09051   0.61842   0.00000  Uiso   1.00
C735   C     0.02600   0.22287   0.81771   0.00000  Uiso   1.00
N736   N     0.03470   0.24469   0.84858   0.00000  Uiso   1.00
O737   O     0.26768   0.08165   0.90096   0.00000  Uiso   1.00
C738   C     0.25296   0.04006   0.89934   0.00000  Uiso   1.00
H739   H     0.22840   0.03698   0.87547   0.00000  Uiso   1.00
H740   H     0.23564   0.02764   0.94102   0.00000  Uiso   1.00
H741   H     0.28529   0.02056   0.87873   0.00000  Uiso   1.00
C742   C     0.30191   0.08961   0.98261   0.00000  Uiso   1.00
N743   N     0.00404   0.07140   0.96117   0.00000  Uiso   1.00
O744   O     0.14632   0.19810   0.58103   0.00000  Uiso   1.00
C745   C     0.16946   0.23605   0.56229   0.00000  Uiso   1.00
H746   H     0.18311   0.23703   0.51703   0.00000  Uiso   1.00
H747   H     0.19926   0.24172   0.57834   0.00000  Uiso   1.00
H748   H     0.14287   0.26177   0.57743   0.00000  Uiso   1.00
O749   O     0.07743   0.14595   0.57855   0.00000  Uiso   1.00
C750   C     0.07856   0.10202   0.58183   0.00000  Uiso   1.00
H751   H     0.11484   0.09101   0.57966   0.00000  Uiso   1.00
H752   H     0.06746   0.08589   0.55004   0.00000  Uiso   1.00
H753   H     0.05271   0.09237   0.62135   0.00000  Uiso   1.00
O754   O     0.01507   0.17925   0.53482   0.00000  Uiso   1.00
C755   C     0.32547   0.21082   0.51533   0.00000  Uiso   1.00
H756   H     0.31142   0.19799   0.98414   0.00000  Uiso   1.00
H757   H     0.01615   0.23782   0.99949   0.00000  Uiso   1.00
H758   H     0.29403   0.22253   0.54971   0.00000  Uiso   1.00
C759   C     0.25818   0.29173   0.69551   0.00000  Uiso   1.00
N760   N     0.29484   0.27527   0.67410   0.00000  Uiso   1.00
C761   C     0.50070   0.24665   0.74782   0.00000  Uiso   1.00
C762   C     0.47706   0.14867   0.99155   0.00000  Uiso   1.00
C763   C     0.48769   0.14204   0.93592   0.00000  Uiso   1.00
C764   C     0.51472   0.14452   0.51294   0.00000  Uiso   1.00
C765   C     0.55671   0.12085   0.98405   0.00000  Uiso   1.00
C766   C     0.56166   0.10541   0.93140   0.00000  Uiso   1.00
C767   C     0.52846   0.11774   0.90725   0.00000  Uiso   1.00
C768   C     0.51267   0.16601   0.56071   0.00000  Uiso   1.00
C769   C     0.58118   0.12584   0.56413   0.00000  Uiso   1.00
C770   C     0.45647   0.15894   0.91106   0.00000  Uiso   1.00
C771   C     0.54569   0.31234   0.72223   0.00000  Uiso   1.00
C772   C     0.47339   0.16458   0.85218   0.00000  Uiso   1.00
C773   C     0.54481   0.02184   0.72455   0.00000  Uiso   1.00
C774   C     0.50088   0.04270   0.74734   0.00000  Uiso   1.00
C775   C     0.45745   0.02158   0.76678   0.00000  Uiso   1.00
C776   C     0.45796   0.31235   0.76521   0.00000  Uiso   1.00
C777   C     0.50183   0.29092   0.74445   0.00000  Uiso   1.00
C778   C     0.65105   0.13605   0.72355   0.00000  Uiso   1.00
C779   C     0.36578   0.13638   0.72291   0.00000  Uiso   1.00
C780   C     0.34774   0.19539   0.78032   0.00000  Uiso   1.00
C781   C     0.63352   0.19596   0.77911   0.00000  Uiso   1.00
C782   C     0.50020   0.08672   0.74952   0.00000  Uiso   1.00
C783   C     0.52669   0.16446   0.64758   0.00000  Uiso   1.00
C784   C     0.59092   0.11262   0.50983   0.00000  Uiso   1.00
C785   C     0.54275   0.15384   0.58913   0.00000  Uiso   1.00
C786   C     0.41053   0.17332   0.94319   0.00000  Uiso   1.00
C787   C     0.39539   0.17111   0.50041   0.00000  Uiso   1.00
C788   C     0.42831   0.15668   0.52421   0.00000  Uiso   1.00
H789   H     0.57815   0.03890   0.70803   0.00000  Uiso   1.00
H790   H     0.42330   0.03788   0.78406   0.00000  Uiso   1.00
H791   H     0.42406   0.29635   0.78125   0.00000  Uiso   1.00
H792   H     0.63920   0.11075   0.70419   0.00000  Uiso   1.00
H793   H     0.39053   0.11176   0.70236   0.00000  Uiso   1.00
H794   H     0.60772   0.21899   0.80278   0.00000  Uiso   1.00
H795   H     0.38650   0.18482   0.92328   0.00000  Uiso   1.00
H796   H     0.53413   0.10633   0.86646   0.00000  Uiso   1.00
N797   N     0.38093   0.16668   0.75001   0.00000  Uiso   1.00
N798   N     0.61906   0.16665   0.75001   0.00000  Uiso   1.00
O799   O     0.46179   0.22775   0.75001   0.00000  Uiso   1.00
O800   O     0.53823   0.22774   0.75001   0.00000  Uiso   1.00
O801   O     0.44280   0.16666   0.82681   0.00000  Uiso   1.00
O802   O     0.51924   0.16665   0.82681   0.00000  Uiso   1.00
O803   O     0.46177   0.10559   0.75000   0.00000  Uiso   1.00
O804   O     0.53821   0.10558   0.75000   0.00000  Uiso   1.00
O805   O     0.48076   0.16668   0.67319   0.00000  Uiso   1.00
O806   O     0.55720   0.16667   0.67319   0.00000  Uiso   1.00
Zn807  Zn    0.44896   0.16667   0.75000   0.00000  Uiso   1.00
Zn808  Zn    0.55104   0.16666   0.75000   0.00000  Uiso   1.00
C809   C     0.60792   0.10682   0.59479   0.00000  Uiso   1.00
N810   N     0.62936   0.09051   0.61842   0.00000  Uiso   1.00
C811   C     0.35934   0.22287   0.81771   0.00000  Uiso   1.00
N812   N     0.36803   0.24469   0.84858   0.00000  Uiso   1.00
O813   O     0.60101   0.08165   0.90096   0.00000  Uiso   1.00
C814   C     0.58629   0.04006   0.89934   0.00000  Uiso   1.00
H815   H     0.56173   0.03698   0.87547   0.00000  Uiso   1.00
H816   H     0.56897   0.02764   0.94102   0.00000  Uiso   1.00
H817   H     0.61862   0.02056   0.87873   0.00000  Uiso   1.00
C818   C     0.63524   0.08961   0.98261   0.00000  Uiso   1.00
N819   N     0.33738   0.07140   0.96117   0.00000  Uiso   1.00
O820   O     0.47965   0.19810   0.58103   0.00000  Uiso   1.00
C821   C     0.50279   0.23605   0.56229   0.00000  Uiso   1.00
H822   H     0.51644   0.23703   0.51703   0.00000  Uiso   1.00
H823   H     0.53260   0.24172   0.57834   0.00000  Uiso   1.00
H824   H     0.47620   0.26177   0.57743   0.00000  Uiso   1.00
O825   O     0.41076   0.14595   0.57855   0.00000  Uiso   1.00
C826   C     0.41190   0.10202   0.58183   0.00000  Uiso   1.00
H827   H     0.44817   0.09101   0.57966   0.00000  Uiso   1.00
H828   H     0.40079   0.08589   0.55004   0.00000  Uiso   1.00
H829   H     0.38604   0.09237   0.62135   0.00000  Uiso   1.00
O830   O     0.34840   0.17925   0.53482   0.00000  Uiso   1.00
C831   C     0.65881   0.21082   0.51533   0.00000  Uiso   1.00
H832   H     0.64476   0.19799   0.98414   0.00000  Uiso   1.00
H833   H     0.34948   0.23782   0.99949   0.00000  Uiso   1.00
H834   H     0.62736   0.22253   0.54971   0.00000  Uiso   1.00
C835   C     0.59151   0.29173   0.69551   0.00000  Uiso   1.00
N836   N     0.62817   0.27527   0.67410   0.00000  Uiso   1.00
C837   C     0.83403   0.24665   0.74782   0.00000  Uiso   1.00
C838   C     0.81039   0.14867   0.99155   0.00000  Uiso   1.00
C839   C     0.82102   0.14204   0.93592   0.00000  Uiso   1.00
C840   C     0.84805   0.14452   0.51294   0.00000  Uiso   1.00
C841   C     0.89004   0.12085   0.98405   0.00000  Uiso   1.00
C842   C     0.89499   0.10541   0.93140   0.00000  Uiso   1.00
C843   C     0.86180   0.11774   0.90725   0.00000  Uiso   1.00
C844   C     0.84600   0.16601   0.56071   0.00000  Uiso   1.00
C845   C     0.91452   0.12584   0.56413   0.00000  Uiso   1.00
C846   C     0.78980   0.15894   0.91106   0.00000  Uiso   1.00
C847   C     0.87902   0.31234   0.72223   0.00000  Uiso   1.00
C848   C     0.80672   0.16458   0.85218   0.00000  Uiso   1.00
C849   C     0.87814   0.02184   0.72455   0.00000  Uiso   1.00
C850   C     0.83422   0.04270   0.74734   0.00000  Uiso   1.00
C851   C     0.79078   0.02158   0.76678   0.00000  Uiso   1.00
C852   C     0.79129   0.31235   0.76521   0.00000  Uiso   1.00
C853   C     0.83516   0.29092   0.74445   0.00000  Uiso   1.00
C854   C     0.98438   0.13605   0.72355   0.00000  Uiso   1.00
C855   C     0.69912   0.13638   0.72291   0.00000  Uiso   1.00
C856   C     0.68108   0.19539   0.78032   0.00000  Uiso   1.00
C857   C     0.96685   0.19596   0.77911   0.00000  Uiso   1.00
C858   C     0.83353   0.08672   0.74952   0.00000  Uiso   1.00
C859   C     0.86002   0.16446   0.64758   0.00000  Uiso   1.00
C860   C     0.92425   0.11262   0.50983   0.00000  Uiso   1.00
C861   C     0.87608   0.15384   0.58913   0.00000  Uiso   1.00
C862   C     0.74386   0.17332   0.94319   0.00000  Uiso   1.00
C863   C     0.72872   0.17111   0.50041   0.00000  Uiso   1.00
C864   C     0.76164   0.15668   0.52421   0.00000  Uiso   1.00
H865   H     0.91148   0.03890   0.70803   0.00000  Uiso   1.00
H866   H     0.75663   0.03788   0.78406   0.00000  Uiso   1.00
H867   H     0.75740   0.29635   0.78125   0.00000  Uiso   1.00
H868   H     0.97253   0.11075   0.70419   0.00000  Uiso   1.00
H869   H     0.72386   0.11176   0.70236   0.00000  Uiso   1.00
H870   H     0.94105   0.21899   0.80278   0.00000  Uiso   1.00
H871   H     0.71984   0.18482   0.92328   0.00000  Uiso   1.00
H872   H     0.86746   0.10633   0.86646   0.00000  Uiso   1.00
N873   N     0.71426   0.16668   0.75001   0.00000  Uiso   1.00
N874   N     0.95239   0.16665   0.75001   0.00000  Uiso   1.00
O875   O     0.79512   0.22775   0.75001   0.00000  Uiso   1.00
O876   O     0.87157   0.22774   0.75001   0.00000  Uiso   1.00
O877   O     0.77613   0.16666   0.82681   0.00000  Uiso   1.00
O878   O     0.85258   0.16665   0.82681   0.00000  Uiso   1.00
O879   O     0.79510   0.10559   0.75000   0.00000  Uiso   1.00
O880   O     0.87154   0.10558   0.75000   0.00000  Uiso   1.00
O881   O     0.81409   0.16668   0.67319   0.00000  Uiso   1.00
O882   O     0.89053   0.16667   0.67319   0.00000  Uiso   1.00
Zn883  Zn    0.78229   0.16667   0.75000   0.00000  Uiso   1.00
Zn884  Zn    0.88438   0.16666   0.75000   0.00000  Uiso   1.00
C885   C     0.94126   0.10682   0.59479   0.00000  Uiso   1.00
N886   N     0.96269   0.09051   0.61842   0.00000  Uiso   1.00
C887   C     0.69267   0.22287   0.81771   0.00000  Uiso   1.00
N888   N     0.70136   0.24469   0.84858   0.00000  Uiso   1.00
O889   O     0.93434   0.08165   0.90096   0.00000  Uiso   1.00
C890   C     0.91962   0.04006   0.89934   0.00000  Uiso   1.00
H891   H     0.89506   0.03698   0.87547   0.00000  Uiso   1.00
H892   H     0.90230   0.02764   0.94102   0.00000  Uiso   1.00
H893   H     0.95196   0.02056   0.87873   0.00000  Uiso   1.00
C894   C     0.96857   0.08961   0.98261   0.00000  Uiso   1.00
N895   N     0.67071   0.07140   0.96117   0.00000  Uiso   1.00
O896   O     0.81299   0.19810   0.58103   0.00000  Uiso   1.00
C897   C     0.83612   0.23605   0.56229   0.00000  Uiso   1.00
H898   H     0.84978   0.23703   0.51703   0.00000  Uiso   1.00
H899   H     0.86593   0.24172   0.57834   0.00000  Uiso   1.00
H900   H     0.80953   0.26177   0.57743   0.00000  Uiso   1.00
O901   O     0.74410   0.14595   0.57855   0.00000  Uiso   1.00
C902   C     0.74523   0.10202   0.58183   0.00000  Uiso   1.00
H903   H     0.78150   0.09101   0.57966   0.00000  Uiso   1.00
H904   H     0.73413   0.08589   0.55004   0.00000  Uiso   1.00
H905   H     0.71938   0.09237   0.62135   0.00000  Uiso   1.00
O906   O     0.68174   0.17925   0.53482   0.00000  Uiso   1.00
C907   C     0.99214   0.21082   0.51533   0.00000  Uiso   1.00
H908   H     0.97809   0.19799   0.98414   0.00000  Uiso   1.00
H909   H     0.68282   0.23782   0.99949   0.00000  Uiso   1.00
H910   H     0.96070   0.22253   0.54971   0.00000  Uiso   1.00
C911   C     0.92485   0.29173   0.69551   0.00000  Uiso   1.00
N912   N     0.96151   0.27527   0.67410   0.00000  Uiso   1.00
C913   C     0.16736   0.57999   0.74782   0.00000  Uiso   1.00
C914   C     0.14372   0.48200   0.99155   0.00000  Uiso   1.00
C915   C     0.15436   0.47537   0.93592   0.00000  Uiso   1.00
C916   C     0.18139   0.47786   0.51294   0.00000  Uiso   1.00
C917   C     0.22338   0.45419   0.98405   0.00000  Uiso   1.00
C918   C     0.22833   0.43874   0.93140   0.00000  Uiso   1.00
C919   C     0.19513   0.45107   0.90725   0.00000  Uiso   1.00
C920   C     0.17933   0.49934   0.56071   0.00000  Uiso   1.00
C921   C     0.24785   0.45917   0.56413   0.00000  Uiso   1.00
C922   C     0.12314   0.49227   0.91106   0.00000  Uiso   1.00
C923   C     0.21236   0.64568   0.72223   0.00000  Uiso   1.00
C924   C     0.14005   0.49791   0.85218   0.00000  Uiso   1.00
C925   C     0.21148   0.35517   0.72455   0.00000  Uiso   1.00
C926   C     0.16755   0.37604   0.74734   0.00000  Uiso   1.00
C927   C     0.12412   0.35491   0.76678   0.00000  Uiso   1.00
C928   C     0.12462   0.64568   0.76521   0.00000  Uiso   1.00
C929   C     0.16850   0.62426   0.74445   0.00000  Uiso   1.00
C930   C     0.31771   0.46939   0.72355   0.00000  Uiso   1.00
C931   C     0.03245   0.46972   0.72291   0.00000  Uiso   1.00
C932   C     0.01441   0.52872   0.78032   0.00000  Uiso   1.00
C933   C     0.30018   0.52929   0.77911   0.00000  Uiso   1.00
C934   C     0.16687   0.42005   0.74952   0.00000  Uiso   1.00
C935   C     0.19335   0.49780   0.64758   0.00000  Uiso   1.00
C936   C     0.25759   0.44596   0.50983   0.00000  Uiso   1.00
C937   C     0.20942   0.48717   0.58913   0.00000  Uiso   1.00
C938   C     0.07720   0.50666   0.94319   0.00000  Uiso   1.00
C939   C     0.06206   0.50444   0.50041   0.00000  Uiso   1.00
C940   C     0.09498   0.49002   0.52421   0.00000  Uiso   1.00
H941   H     0.24482   0.37223   0.70803   0.00000  Uiso   1.00
H942   H     0.08996   0.37122   0.78406   0.00000  Uiso   1.00
H943   H     0.09073   0.62968   0.78125   0.00000  Uiso   1.00
H944   H     0.30587   0.44408   0.70419   0.00000  Uiso   1.00
H945   H     0.05720   0.44509   0.70236   0.00000  Uiso   1.00
H946   H     0.27438   0.55232   0.80278   0.00000  Uiso   1.00
H947   H     0.05317   0.51815   0.92328   0.00000  Uiso   1.00
H948   H     0.20080   0.43966   0.86646   0.00000  Uiso   1.00
N949   N     0.04760   0.50001   0.75001   0.00000  Uiso   1.00
N950   N     0.28573   0.49998   0.75001   0.00000  Uiso   1.00
O951   O     0.12846   0.56108   0.75001   0.00000  Uiso   1.00
O952   O     0.20490   0.56107   0.75001   0.00000  Uiso   1.00
O953   O     0.10947   0.50000   0.82681   0.00000  Uiso   1.00
O954   O     0.18591   0.49999   0.82681   0.00000  Uiso   1.00
O955   O     0.12843   0.43893   0.75000   0.00000  Uiso   1.00
O956   O     0.20488   0.43892   0.75000   0.00000  Uiso   1.00
O957   O     0.14742   0.50001   0.67319   0.00000  Uiso   1.00
O958   O     0.22387   0.50000   0.67319   0.00000  Uiso   1.00
Zn959  Zn    0.11562   0.50001   0.75000   0.00000  Uiso   1.00
Zn960  Zn    0.21771   0.49999   0.75000   0.00000  Uiso   1.00
C961   C     0.27459   0.44016   0.59479   0.00000  Uiso   1.00
N962   N     0.29602   0.42385   0.61842   0.00000  Uiso   1.00
C963   C     0.02600   0.55621   0.81771   0.00000  Uiso   1.00
N964   N     0.03470   0.57802   0.84858   0.00000  Uiso   1.00
O965   O     0.26768   0.41498   0.90096   0.00000  Uiso   1.00
C966   C     0.25296   0.37340   0.89934   0.00000  Uiso   1.00
H967   H     0.22840   0.37031   0.87547   0.00000  Uiso   1.00
H968   H     0.23564   0.36098   0.94102   0.00000  Uiso   1.00
H969   H     0.28529   0.35389   0.87873   0.00000  Uiso   1.00
C970   C     0.30191   0.42294   0.98261   0.00000  Uiso   1.00
N971   N     0.00404   0.40473   0.96117   0.00000  Uiso   1.00
O972   O     0.14632   0.53143   0.58103   0.00000  Uiso   1.00
C973   C     0.16946   0.56939   0.56229   0.00000  Uiso   1.00
H974   H     0.18311   0.57037   0.51703   0.00000  Uiso   1.00
H975   H     0.19926   0.57506   0.57834   0.00000  Uiso   1.00
H976   H     0.14287   0.59510   0.57743   0.00000  Uiso   1.00
O977   O     0.07743   0.47929   0.57855   0.00000  Uiso   1.00
C978   C     0.07856   0.43535   0.58183   0.00000  Uiso   1.00
H979   H     0.11484   0.42434   0.57966   0.00000  Uiso   1.00
H980   H     0.06746   0.41922   0.55004   0.00000  Uiso   1.00
H981   H     0.05271   0.42570   0.62135   0.00000  Uiso   1.00
O982   O     0.01507   0.51259   0.53482   0.00000  Uiso   1.00
C983   C     0.32547   0.54415   0.51533   0.00000  Uiso   1.00
H984   H     0.31142   0.53132   0.98414   0.00000  Uiso   1.00
H985   H     0.01615   0.57116   0.99949   0.00000  Uiso   1.00
H986   H     0.29403   0.55586   0.54971   0.00000  Uiso   1.00
C987   C     0.25818   0.62506   0.69551   0.00000  Uiso   1.00
N988   N     0.29484   0.60860   0.67410   0.00000  Uiso   1.00
C989   C     0.50070   0.57999   0.74782   0.00000  Uiso   1.00
C990   C     0.47706   0.48200   0.99155   0.00000  Uiso   1.00
C991   C     0.48769   0.47537   0.93592   0.00000  Uiso   1.00
C992   C     0.51472   0.47786   0.51294   0.00000  Uiso   1.00
C993   C     0.55671   0.45419   0.98405   0.00000  Uiso   1.00
C994   C     0.56166   0.43874   0.93140   0.00000  Uiso   1.00
C995   C     0.52846   0.45107   0.90725   0.00000  Uiso   1.00
C996   C     0.51267   0.49934   0.56071   0.00000  Uiso   1.00
C997   C     0.58118   0.45917   0.56413   0.00000  Uiso   1.00
C998   C     0.45647   0.49227   0.91106   0.00000  Uiso   1.00
C999   C     0.54569   0.64568   0.72223   0.00000  Uiso   1.00
C1000  C     0.47339   0.49791   0.85218   0.00000  Uiso   1.00
C1001  C     0.54481   0.35517   0.72455   0.00000  Uiso   1.00
C1002  C     0.50088   0.37604   0.74734   0.00000  Uiso   1.00
C1003  C     0.45745   0.35491   0.76678   0.00000  Uiso   1.00
C1004  C     0.45796   0.64568   0.76521   0.00000  Uiso   1.00
C1005  C     0.50183   0.62426   0.74445   0.00000  Uiso   1.00
C1006  C     0.65105   0.46939   0.72355   0.00000  Uiso   1.00
C1007  C     0.36578   0.46972   0.72291   0.00000  Uiso   1.00
C1008  C     0.34774   0.52872   0.78032   0.00000  Uiso   1.00
C1009  C     0.63352   0.52929   0.77911   0.00000  Uiso   1.00
C1010  C     0.50020   0.42005   0.74952   0.00000  Uiso   1.00
C1011  C     0.52669   0.49780   0.64758   0.00000  Uiso   1.00
C1012  C     0.59092   0.44596   0.50983   0.00000  Uiso   1.00
C1013  C     0.54275   0.48717   0.58913   0.00000  Uiso   1.00
C1014  C     0.41053   0.50666   0.94319   0.00000  Uiso   1.00
C1015  C     0.39539   0.50444   0.50041   0.00000  Uiso   1.00
C1016  C     0.42831   0.49002   0.52421   0.00000  Uiso   1.00
H1017  H     0.57815   0.37223   0.70803   0.00000  Uiso   1.00
H1018  H     0.42330   0.37122   0.78406   0.00000  Uiso   1.00
H1019  H     0.42406   0.62968   0.78125   0.00000  Uiso   1.00
H1020  H     0.63920   0.44408   0.70419   0.00000  Uiso   1.00
H1021  H     0.39053   0.44509   0.70236   0.00000  Uiso   1.00
H1022  H     0.60772   0.55232   0.80278   0.00000  Uiso   1.00
H1023  H     0.38650   0.51815   0.92328   0.00000  Uiso   1.00
H1024  H     0.53413   0.43966   0.86646   0.00000  Uiso   1.00
N1025  N     0.38093   0.50001   0.75001   0.00000  Uiso   1.00
N1026  N     0.61906   0.49998   0.75001   0.00000  Uiso   1.00
O1027  O     0.46179   0.56108   0.75001   0.00000  Uiso   1.00
O1028  O     0.53823   0.56107   0.75001   0.00000  Uiso   1.00
O1029  O     0.44280   0.50000   0.82681   0.00000  Uiso   1.00
O1030  O     0.51924   0.49999   0.82681   0.00000  Uiso   1.00
O1031  O     0.46177   0.43893   0.75000   0.00000  Uiso   1.00
O1032  O     0.53821   0.43892   0.75000   0.00000  Uiso   1.00
O1033  O     0.48076   0.50001   0.67319   0.00000  Uiso   1.00
O1034  O     0.55720   0.50000   0.67319   0.00000  Uiso   1.00
Zn1035 Zn    0.44896   0.50001   0.75000   0.00000  Uiso   1.00
Zn1036 Zn    0.55104   0.49999   0.75000   0.00000  Uiso   1.00
C1037  C     0.60792   0.44016   0.59479   0.00000  Uiso   1.00
N1038  N     0.62936   0.42385   0.61842   0.00000  Uiso   1.00
C1039  C     0.35934   0.55621   0.81771   0.00000  Uiso   1.00
N1040  N     0.36803   0.57802   0.84858   0.00000  Uiso   1.00
O1041  O     0.60101   0.41498   0.90096   0.00000  Uiso   1.00
C1042  C     0.58629   0.37340   0.89934   0.00000  Uiso   1.00
H1043  H     0.56173   0.37031   0.87547   0.00000  Uiso   1.00
H1044  H     0.56897   0.36098   0.94102   0.00000  Uiso   1.00
H1045  H     0.61862   0.35389   0.87873   0.00000  Uiso   1.00
C1046  C     0.63524   0.42294   0.98261   0.00000  Uiso   1.00
N1047  N     0.33738   0.40473   0.96117   0.00000  Uiso   1.00
O1048  O     0.47965   0.53143   0.58103   0.00000  Uiso   1.00
C1049  C     0.50279   0.56939   0.56229   0.00000  Uiso   1.00
H1050  H     0.51644   0.57037   0.51703   0.00000  Uiso   1.00
H1051  H     0.53260   0.57506   0.57834   0.00000  Uiso   1.00
H1052  H     0.47620   0.59510   0.57743   0.00000  Uiso   1.00
O1053  O     0.41076   0.47929   0.57855   0.00000  Uiso   1.00
C1054  C     0.41190   0.43535   0.58183   0.00000  Uiso   1.00
H1055  H     0.44817   0.42434   0.57966   0.00000  Uiso   1.00
H1056  H     0.40079   0.41922   0.55004   0.00000  Uiso   1.00
H1057  H     0.38604   0.42570   0.62135   0.00000  Uiso   1.00
O1058  O     0.34840   0.51259   0.53482   0.00000  Uiso   1.00
C1059  C     0.65881   0.54415   0.51533   0.00000  Uiso   1.00
H1060  H     0.64476   0.53132   0.98414   0.00000  Uiso   1.00
H1061  H     0.34948   0.57116   0.99949   0.00000  Uiso   1.00
H1062  H     0.62736   0.55586   0.54971   0.00000  Uiso   1.00
C1063  C     0.59151   0.62506   0.69551   0.00000  Uiso   1.00
N1064  N     0.62817   0.60860   0.67410   0.00000  Uiso   1.00
C1065  C     0.83403   0.57999   0.74782   0.00000  Uiso   1.00
C1066  C     0.81039   0.48200   0.99155   0.00000  Uiso   1.00
C1067  C     0.82102   0.47537   0.93592   0.00000  Uiso   1.00
C1068  C     0.84805   0.47786   0.51294   0.00000  Uiso   1.00
C1069  C     0.89004   0.45419   0.98405   0.00000  Uiso   1.00
C1070  C     0.89499   0.43874   0.93140   0.00000  Uiso   1.00
C1071  C     0.86180   0.45107   0.90725   0.00000  Uiso   1.00
C1072  C     0.84600   0.49934   0.56071   0.00000  Uiso   1.00
C1073  C     0.91452   0.45917   0.56413   0.00000  Uiso   1.00
C1074  C     0.78980   0.49227   0.91106   0.00000  Uiso   1.00
C1075  C     0.87902   0.64568   0.72223   0.00000  Uiso   1.00
C1076  C     0.80672   0.49791   0.85218   0.00000  Uiso   1.00
C1077  C     0.87814   0.35517   0.72455   0.00000  Uiso   1.00
C1078  C     0.83422   0.37604   0.74734   0.00000  Uiso   1.00
C1079  C     0.79078   0.35491   0.76678   0.00000  Uiso   1.00
C1080  C     0.79129   0.64568   0.76521   0.00000  Uiso   1.00
C1081  C     0.83516   0.62426   0.74445   0.00000  Uiso   1.00
C1082  C     0.98438   0.46939   0.72355   0.00000  Uiso   1.00
C1083  C     0.69912   0.46972   0.72291   0.00000  Uiso   1.00
C1084  C     0.68108   0.52872   0.78032   0.00000  Uiso   1.00
C1085  C     0.96685   0.52929   0.77911   0.00000  Uiso   1.00
C1086  C     0.83353   0.42005   0.74952   0.00000  Uiso   1.00
C1087  C     0.86002   0.49780   0.64758   0.00000  Uiso   1.00
C1088  C     0.92425   0.44596   0.50983   0.00000  Uiso   1.00
C1089  C     0.87608   0.48717   0.58913   0.00000  Uiso   1.00
C1090  C     0.74386   0.50666   0.94319   0.00000  Uiso   1.00
C1091  C     0.72872   0.50444   0.50041   0.00000  Uiso   1.00
C1092  C     0.76164   0.49002   0.52421   0.00000  Uiso   1.00
H1093  H     0.91148   0.37223   0.70803   0.00000  Uiso   1.00
H1094  H     0.75663   0.37122   0.78406   0.00000  Uiso   1.00
H1095  H     0.75740   0.62968   0.78125   0.00000  Uiso   1.00
H1096  H     0.97253   0.44408   0.70419   0.00000  Uiso   1.00
H1097  H     0.72386   0.44509   0.70236   0.00000  Uiso   1.00
H1098  H     0.94105   0.55232   0.80278   0.00000  Uiso   1.00
H1099  H     0.71984   0.51815   0.92328   0.00000  Uiso   1.00
H1100  H     0.86746   0.43966   0.86646   0.00000  Uiso   1.00
N1101  N     0.71426   0.50001   0.75001   0.00000  Uiso   1.00
N1102  N     0.95239   0.49998   0.75001   0.00000  Uiso   1.00
O1103  O     0.79512   0.56108   0.75001   0.00000  Uiso   1.00
O1104  O     0.87157   0.56107   0.75001   0.00000  Uiso   1.00
O1105  O     0.77613   0.50000   0.82681   0.00000  Uiso   1.00
O1106  O     0.85258   0.49999   0.82681   0.00000  Uiso   1.00
O1107  O     0.79510   0.43893   0.75000   0.00000  Uiso   1.00
O1108  O     0.87154   0.43892   0.75000   0.00000  Uiso   1.00
O1109  O     0.81409   0.50001   0.67319   0.00000  Uiso   1.00
O1110  O     0.89053   0.50000   0.67319   0.00000  Uiso   1.00
Zn1111 Zn    0.78229   0.50001   0.75000   0.00000  Uiso   1.00
Zn1112 Zn    0.88438   0.49999   0.75000   0.00000  Uiso   1.00
C1113  C     0.94126   0.44016   0.59479   0.00000  Uiso   1.00
N1114  N     0.96269   0.42385   0.61842   0.00000  Uiso   1.00
C1115  C     0.69267   0.55621   0.81771   0.00000  Uiso   1.00
N1116  N     0.70136   0.57802   0.84858   0.00000  Uiso   1.00
O1117  O     0.93434   0.41498   0.90096   0.00000  Uiso   1.00
C1118  C     0.91962   0.37340   0.89934   0.00000  Uiso   1.00
H1119  H     0.89506   0.37031   0.87547   0.00000  Uiso   1.00
H1120  H     0.90230   0.36098   0.94102   0.00000  Uiso   1.00
H1121  H     0.95196   0.35389   0.87873   0.00000  Uiso   1.00
C1122  C     0.96857   0.42294   0.98261   0.00000  Uiso   1.00
N1123  N     0.67071   0.40473   0.96117   0.00000  Uiso   1.00
O1124  O     0.81299   0.53143   0.58103   0.00000  Uiso   1.00
C1125  C     0.83612   0.56939   0.56229   0.00000  Uiso   1.00
H1126  H     0.84978   0.57037   0.51703   0.00000  Uiso   1.00
H1127  H     0.86593   0.57506   0.57834   0.00000  Uiso   1.00
H1128  H     0.80953   0.59510   0.57743   0.00000  Uiso   1.00
O1129  O     0.74410   0.47929   0.57855   0.00000  Uiso   1.00
C1130  C     0.74523   0.43535   0.58183   0.00000  Uiso   1.00
H1131  H     0.78150   0.42434   0.57966   0.00000  Uiso   1.00
H1132  H     0.73413   0.41922   0.55004   0.00000  Uiso   1.00
H1133  H     0.71938   0.42570   0.62135   0.00000  Uiso   1.00
O1134  O     0.68174   0.51259   0.53482   0.00000  Uiso   1.00
C1135  C     0.99214   0.54415   0.51533   0.00000  Uiso   1.00
H1136  H     0.97809   0.53132   0.98414   0.00000  Uiso   1.00
H1137  H     0.68282   0.57116   0.99949   0.00000  Uiso   1.00
H1138  H     0.96070   0.55586   0.54971   0.00000  Uiso   1.00
C1139  C     0.92485   0.62506   0.69551   0.00000  Uiso   1.00
N1140  N     0.96151   0.60860   0.67410   0.00000  Uiso   1.00
C1141  C     0.16736   0.91332   0.74782   0.00000  Uiso   1.00
C1142  C     0.14372   0.81534   0.99155   0.00000  Uiso   1.00
C1143  C     0.15436   0.80871   0.93592   0.00000  Uiso   1.00
C1144  C     0.18139   0.81119   0.51294   0.00000  Uiso   1.00
C1145  C     0.22338   0.78752   0.98405   0.00000  Uiso   1.00
C1146  C     0.22833   0.77207   0.93140   0.00000  Uiso   1.00
C1147  C     0.19513   0.78441   0.90725   0.00000  Uiso   1.00
C1148  C     0.17933   0.83267   0.56071   0.00000  Uiso   1.00
C1149  C     0.24785   0.79251   0.56413   0.00000  Uiso   1.00
C1150  C     0.12314   0.82561   0.91106   0.00000  Uiso   1.00
C1151  C     0.21236   0.97901   0.72223   0.00000  Uiso   1.00
C1152  C     0.14005   0.83125   0.85218   0.00000  Uiso   1.00
C1153  C     0.21148   0.68850   0.72455   0.00000  Uiso   1.00
C1154  C     0.16755   0.70937   0.74734   0.00000  Uiso   1.00
C1155  C     0.12412   0.68824   0.76678   0.00000  Uiso   1.00
C1156  C     0.12462   0.97902   0.76521   0.00000  Uiso   1.00
C1157  C     0.16850   0.95759   0.74445   0.00000  Uiso   1.00
C1158  C     0.31771   0.80272   0.72355   0.00000  Uiso   1.00
C1159  C     0.03245   0.80305   0.72291   0.00000  Uiso   1.00
C1160  C     0.01441   0.86206   0.78032   0.00000  Uiso   1.00
C1161  C     0.30018   0.86263   0.77911   0.00000  Uiso   1.00
C1162  C     0.16687   0.75338   0.74952   0.00000  Uiso   1.00
C1163  C     0.19335   0.83113   0.64758   0.00000  Uiso   1.00
C1164  C     0.25759   0.77929   0.50983   0.00000  Uiso   1.00
C1165  C     0.20942   0.82050   0.58913   0.00000  Uiso   1.00
C1166  C     0.07720   0.83999   0.94319   0.00000  Uiso   1.00
C1167  C     0.06206   0.83778   0.50041   0.00000  Uiso   1.00
C1168  C     0.09498   0.82335   0.52421   0.00000  Uiso   1.00
H1169  H     0.24482   0.70556   0.70803   0.00000  Uiso   1.00
H1170  H     0.08996   0.70455   0.78406   0.00000  Uiso   1.00
H1171  H     0.09073   0.96302   0.78125   0.00000  Uiso   1.00
H1172  H     0.30587   0.77741   0.70419   0.00000  Uiso   1.00
H1173  H     0.05720   0.77842   0.70236   0.00000  Uiso   1.00
H1174  H     0.27438   0.88566   0.80278   0.00000  Uiso   1.00
H1175  H     0.05317   0.85148   0.92328   0.00000  Uiso   1.00
H1176  H     0.20080   0.77300   0.86646   0.00000  Uiso   1.00
N1177  N     0.04760   0.83334   0.75001   0.00000  Uiso   1.00
N1178  N     0.28573   0.83331   0.75001   0.00000  Uiso   1.00
O1179  O     0.12846   0.89442   0.75001   0.00000  Uiso   1.00
O1180  O     0.20490   0.89441   0.75001   0.00000  Uiso   1.00
O1181  O     0.10947   0.83333   0.82681   0.00000  Uiso   1.00
O1182  O     0.18591   0.83332   0.82681   0.00000  Uiso   1.00
O1183  O     0.12843   0.77226   0.75000   0.00000  Uiso   1.00
O1184  O     0.20488   0.77225   0.75000   0.00000  Uiso   1.00
O1185  O     0.14742   0.83335   0.67319   0.00000  Uiso   1.00
O1186  O     0.22387   0.83334   0.67319   0.00000  Uiso   1.00
Zn1187 Zn    0.11562   0.83334   0.75000   0.00000  Uiso   1.00
Zn1188 Zn    0.21771   0.83333   0.75000   0.00000  Uiso   1.00
C1189  C     0.27459   0.77349   0.59479   0.00000  Uiso   1.00
N1190  N     0.29602   0.75718   0.61842   0.00000  Uiso   1.00
C1191  C     0.02600   0.88954   0.81771   0.00000  Uiso   1.00
N1192  N     0.03470   0.91136   0.84858   0.00000  Uiso   1.00
O1193  O     0.26768   0.74832   0.90096   0.00000  Uiso   1.00
C1194  C     0.25296   0.70673   0.89934   0.00000  Uiso   1.00
H1195  H     0.22840   0.70364   0.87547   0.00000  Uiso   1.00
H1196  H     0.23564   0.69431   0.94102   0.00000  Uiso   1.00
H1197  H     0.28529   0.68723   0.87873   0.00000  Uiso   1.00
C1198  C     0.30191   0.75627   0.98261   0.00000  Uiso   1.00
N1199  N     0.00404   0.73806   0.96117   0.00000  Uiso   1.00
O1200  O     0.14632   0.86477   0.58103   0.00000  Uiso   1.00
C1201  C     0.16946   0.90272   0.56229   0.00000  Uiso   1.00
H1202  H     0.18311   0.90370   0.51703   0.00000  Uiso   1.00
H1203  H     0.19926   0.90839   0.57834   0.00000  Uiso   1.00
H1204  H     0.14287   0.92844   0.57743   0.00000  Uiso   1.00
O1205  O     0.07743   0.81262   0.57855   0.00000  Uiso   1.00
C1206  C     0.07856   0.76868   0.58183   0.00000  Uiso   1.00
H1207  H     0.11484   0.75767   0.57966   0.00000  Uiso   1.00
H1208  H     0.06746   0.75255   0.55004   0.00000  Uiso   1.00
H1209  H     0.05271   0.75903   0.62135   0.00000  Uiso   1.00
O1210  O     0.01507   0.84592   0.53482   0.00000  Uiso   1.00
C1211  C     0.32547   0.87749   0.51533   0.00000  Uiso   1.00
H1212  H     0.31142   0.86465   0.98414   0.00000  Uiso   1.00
H1213  H     0.01615   0.90449   0.99949   0.00000  Uiso   1.00
H1214  H     0.29403   0.88919   0.54971   0.00000  Uiso   1.00
C1215  C     0.25818   0.95839   0.69551   0.00000  Uiso   1.00
N1216  N     0.29484   0.94194   0.67410   0.00000  Uiso   1.00
C1217  C     0.50070   0.91332   0.74782   0.00000  Uiso   1.00
C1218  C     0.47706   0.81534   0.99155   0.00000  Uiso   1.00
C1219  C     0.48769   0.80871   0.93592   0.00000  Uiso   1.00
C1220  C     0.51472   0.81119   0.51294   0.00000  Uiso   1.00
C1221  C     0.55671   0.78752   0.98405   0.00000  Uiso   1.00
C1222  C     0.56166   0.77207   0.93140   0.00000  Uiso   1.00
C1223  C     0.52846   0.78441   0.90725   0.00000  Uiso   1.00
C1224  C     0.51267   0.83267   0.56071   0.00000  Uiso   1.00
C1225  C     0.58118   0.79251   0.56413   0.00000  Uiso   1.00
C1226  C     0.45647   0.82561   0.91106   0.00000  Uiso   1.00
C1227  C     0.54569   0.97901   0.72223   0.00000  Uiso   1.00
C1228  C     0.47339   0.83125   0.85218   0.00000  Uiso   1.00
C1229  C     0.54481   0.68850   0.72455   0.00000  Uiso   1.00
C1230  C     0.50088   0.70937   0.74734   0.00000  Uiso   1.00
C1231  C     0.45745   0.68824   0.76678   0.00000  Uiso   1.00
C1232  C     0.45796   0.97902   0.76521   0.00000  Uiso   1.00
C1233  C     0.50183   0.95759   0.74445   0.00000  Uiso   1.00
C1234  C     0.65105   0.80272   0.72355   0.00000  Uiso   1.00
C1235  C     0.36578   0.80305   0.72291   0.00000  Uiso   1.00
C1236  C     0.34774   0.86206   0.78032   0.00000  Uiso   1.00
C1237  C     0.63352   0.86263   0.77911   0.00000  Uiso   1.00
C1238  C     0.50020   0.75338   0.74952   0.00000  Uiso   1.00
C1239  C     0.52669   0.83113   0.64758   0.00000  Uiso   1.00
C1240  C     0.59092   0.77929   0.50983   0.00000  Uiso   1.00
C1241  C     0.54275   0.82050   0.58913   0.00000  Uiso   1.00
C1242  C     0.41053   0.83999   0.94319   0.00000  Uiso   1.00
C1243  C     0.39539   0.83778   0.50041   0.00000  Uiso   1.00
C1244  C     0.42831   0.82335   0.52421   0.00000  Uiso   1.00
H1245  H     0.57815   0.70556   0.70803   0.00000  Uiso   1.00
H1246  H     0.42330   0.70455   0.78406   0.00000  Uiso   1.00
H1247  H     0.42406   0.96302   0.78125   0.00000  Uiso   1.00
H1248  H     0.63920   0.77741   0.70419   0.00000  Uiso   1.00
H1249  H     0.39053   0.77842   0.70236   0.00000  Uiso   1.00
H1250  H     0.60772   0.88566   0.80278   0.00000  Uiso   1.00
H1251  H     0.38650   0.85148   0.92328   0.00000  Uiso   1.00
H1252  H     0.53413   0.77300   0.86646   0.00000  Uiso   1.00
N1253  N     0.38093   0.83334   0.75001   0.00000  Uiso   1.00
N1254  N     0.61906   0.83331   0.75001   0.00000  Uiso   1.00
O1255  O     0.46179   0.89442   0.75001   0.00000  Uiso   1.00
O1256  O     0.53823   0.89441   0.75001   0.00000  Uiso   1.00
O1257  O     0.44280   0.83333   0.82681   0.00000  Uiso   1.00
O1258  O     0.51924   0.83332   0.82681   0.00000  Uiso   1.00
O1259  O     0.46177   0.77226   0.75000   0.00000  Uiso   1.00
O1260  O     0.53821   0.77225   0.75000   0.00000  Uiso   1.00
O1261  O     0.48076   0.83335   0.67319   0.00000  Uiso   1.00
O1262  O     0.55720   0.83334   0.67319   0.00000  Uiso   1.00
Zn1263 Zn    0.44896   0.83334   0.75000   0.00000  Uiso   1.00
Zn1264 Zn    0.55104   0.83333   0.75000   0.00000  Uiso   1.00
C1265  C     0.60792   0.77349   0.59479   0.00000  Uiso   1.00
N1266  N     0.62936   0.75718   0.61842   0.00000  Uiso   1.00
C1267  C     0.35934   0.88954   0.81771   0.00000  Uiso   1.00
N1268  N     0.36803   0.91136   0.84858   0.00000  Uiso   1.00
O1269  O     0.60101   0.74832   0.90096   0.00000  Uiso   1.00
C1270  C     0.58629   0.70673   0.89934   0.00000  Uiso   1.00
H1271  H     0.56173   0.70364   0.87547   0.00000  Uiso   1.00
H1272  H     0.56897   0.69431   0.94102   0.00000  Uiso   1.00
H1273  H     0.61862   0.68723   0.87873   0.00000  Uiso   1.00
C1274  C     0.63524   0.75627   0.98261   0.00000  Uiso   1.00
N1275  N     0.33738   0.73806   0.96117   0.00000  Uiso   1.00
O1276  O     0.47965   0.86477   0.58103   0.00000  Uiso   1.00
C1277  C     0.50279   0.90272   0.56229   0.00000  Uiso   1.00
H1278  H     0.51644   0.90370   0.51703   0.00000  Uiso   1.00
H1279  H     0.53260   0.90839   0.57834   0.00000  Uiso   1.00
H1280  H     0.47620   0.92844   0.57743   0.00000  Uiso   1.00
O1281  O     0.41076   0.81262   0.57855   0.00000  Uiso   1.00
C1282  C     0.41190   0.76868   0.58183   0.00000  Uiso   1.00
H1283  H     0.44817   0.75767   0.57966   0.00000  Uiso   1.00
H1284  H     0.40079   0.75255   0.55004   0.00000  Uiso   1.00
H1285  H     0.38604   0.75903   0.62135   0.00000  Uiso   1.00
O1286  O     0.34840   0.84592   0.53482   0.00000  Uiso   1.00
C1287  C     0.65881   0.87749   0.51533   0.00000  Uiso   1.00
H1288  H     0.64476   0.86465   0.98414   0.00000  Uiso   1.00
H1289  H     0.34948   0.90449   0.99949   0.00000  Uiso   1.00
H1290  H     0.62736   0.88919   0.54971   0.00000  Uiso   1.00
C1291  C     0.59151   0.95839   0.69551   0.00000  Uiso   1.00
N1292  N     0.62817   0.94194   0.67410   0.00000  Uiso   1.00
C1293  C     0.83403   0.91332   0.74782   0.00000  Uiso   1.00
C1294  C     0.81039   0.81534   0.99155   0.00000  Uiso   1.00
C1295  C     0.82102   0.80871   0.93592   0.00000  Uiso   1.00
C1296  C     0.84805   0.81119   0.51294   0.00000  Uiso   1.00
C1297  C     0.89004   0.78752   0.98405   0.00000  Uiso   1.00
C1298  C     0.89499   0.77207   0.93140   0.00000  Uiso   1.00
C1299  C     0.86180   0.78441   0.90725   0.00000  Uiso   1.00
C1300  C     0.84600   0.83267   0.56071   0.00000  Uiso   1.00
C1301  C     0.91452   0.79251   0.56413   0.00000  Uiso   1.00
C1302  C     0.78980   0.82561   0.91106   0.00000  Uiso   1.00
C1303  C     0.87902   0.97901   0.72223   0.00000  Uiso   1.00
C1304  C     0.80672   0.83125   0.85218   0.00000  Uiso   1.00
C1305  C     0.87814   0.68850   0.72455   0.00000  Uiso   1.00
C1306  C     0.83422   0.70937   0.74734   0.00000  Uiso   1.00
C1307  C     0.79078   0.68824   0.76678   0.00000  Uiso   1.00
C1308  C     0.79129   0.97902   0.76521   0.00000  Uiso   1.00
C1309  C     0.83516   0.95759   0.74445   0.00000  Uiso   1.00
C1310  C     0.98438   0.80272   0.72355   0.00000  Uiso   1.00
C1311  C     0.69912   0.80305   0.72291   0.00000  Uiso   1.00
C1312  C     0.68108   0.86206   0.78032   0.00000  Uiso   1.00
C1313  C     0.96685   0.86263   0.77911   0.00000  Uiso   1.00
C1314  C     0.83353   0.75338   0.74952   0.00000  Uiso   1.00
C1315  C     0.86002   0.83113   0.64758   0.00000  Uiso   1.00
C1316  C     0.92425   0.77929   0.50983   0.00000  Uiso   1.00
C1317  C     0.87608   0.82050   0.58913   0.00000  Uiso   1.00
C1318  C     0.74386   0.83999   0.94319   0.00000  Uiso   1.00
C1319  C     0.72872   0.83778   0.50041   0.00000  Uiso   1.00
C1320  C     0.76164   0.82335   0.52421   0.00000  Uiso   1.00
H1321  H     0.91148   0.70556   0.70803   0.00000  Uiso   1.00
H1322  H     0.75663   0.70455   0.78406   0.00000  Uiso   1.00
H1323  H     0.75740   0.96302   0.78125   0.00000  Uiso   1.00
H1324  H     0.97253   0.77741   0.70419   0.00000  Uiso   1.00
H1325  H     0.72386   0.77842   0.70236   0.00000  Uiso   1.00
H1326  H     0.94105   0.88566   0.80278   0.00000  Uiso   1.00
H1327  H     0.71984   0.85148   0.92328   0.00000  Uiso   1.00
H1328  H     0.86746   0.77300   0.86646   0.00000  Uiso   1.00
N1329  N     0.71426   0.83334   0.75001   0.00000  Uiso   1.00
N1330  N     0.95239   0.83331   0.75001   0.00000  Uiso   1.00
O1331  O     0.79512   0.89442   0.75001   0.00000  Uiso   1.00
O1332  O     0.87157   0.89441   0.75001   0.00000  Uiso   1.00
O1333  O     0.77613   0.83333   0.82681   0.00000  Uiso   1.00
O1334  O     0.85258   0.83332   0.82681   0.00000  Uiso   1.00
O1335  O     0.79510   0.77226   0.75000   0.00000  Uiso   1.00
O1336  O     0.87154   0.77225   0.75000   0.00000  Uiso   1.00
O1337  O     0.81409   0.83335   0.67319   0.00000  Uiso   1.00
O1338  O     0.89053   0.83334   0.67319   0.00000  Uiso   1.00
Zn1339 Zn    0.78229   0.83334   0.75000   0.00000  Uiso   1.00
Zn1340 Zn    0.88438   0.83333   0.75000   0.00000  Uiso   1.00
C1341  C     0.94126   0.77349   0.59479   0.00000  Uiso   1.00
N1342  N     0.96269   0.75718   0.61842   0.00000  Uiso   1.00
C1343  C     0.69267   0.88954   0.81771   0.00000  Uiso   1.00
N1344  N     0.70136   0.91136   0.84858   0.00000  Uiso   1.00
O1345  O     0.93434   0.74832   0.90096   0.00000  Uiso   1.00
C1346  C     0.91962   0.70673   0.89934   0.00000  Uiso   1.00
H1347  H     0.89506   0.70364   0.87547   0.00000  Uiso   1.00
H1348  H     0.90230   0.69431   0.94102   0.00000  Uiso   1.00
H1349  H     0.95196   0.68723   0.87873   0.00000  Uiso   1.00
C1350  C     0.96857   0.75627   0.98261   0.00000  Uiso   1.00
N1351  N     0.67071   0.73806   0.96117   0.00000  Uiso   1.00
O1352  O     0.81299   0.86477   0.58103   0.00000  Uiso   1.00
C1353  C     0.83612   0.90272   0.56229   0.00000  Uiso   1.00
H1354  H     0.84978   0.90370   0.51703   0.00000  Uiso   1.00
H1355  H     0.86593   0.90839   0.57834   0.00000  Uiso   1.00
H1356  H     0.80953   0.92844   0.57743   0.00000  Uiso   1.00
O1357  O     0.74410   0.81262   0.57855   0.00000  Uiso   1.00
C1358  C     0.74523   0.76868   0.58183   0.00000  Uiso   1.00
H1359  H     0.78150   0.75767   0.57966   0.00000  Uiso   1.00
H1360  H     0.73413   0.75255   0.55004   0.00000  Uiso   1.00
H1361  H     0.71938   0.75903   0.62135   0.00000  Uiso   1.00
O1362  O     0.68174   0.84592   0.53482   0.00000  Uiso   1.00
C1363  C     0.99214   0.87749   0.51533   0.00000  Uiso   1.00
H1364  H     0.97809   0.86465   0.98414   0.00000  Uiso   1.00
H1365  H     0.68282   0.90449   0.99949   0.00000  Uiso   1.00
H1366  H     0.96070   0.88919   0.54971   0.00000  Uiso   1.00
C1367  C     0.92485   0.95839   0.69551   0.00000  Uiso   1.00
N1368  N     0.96151   0.94194   0.67410   0.00000  Uiso   1.00
loop_
_geom_bond_atom_site_label_1
_geom_bond_atom_site_label_2
_geom_bond_distance
_geom_bond_site_symmetry_2
_ccdc_geom_bond_type
C1     O40     1.282   .     A
C1     C17     1.425   .     S
C1     O39     1.287   .     A
C2     C3      1.393   .     A
C2     C688    1.414   .     S
C2     C712    1.422   .     S
C3     C7      1.408   .     A
C3     C10     1.409   .     A
C4     C8      1.403   .     A
C4     C686    1.414   1_554 S
C4     C689    1.423   1_554 S
C5     C6      1.418   .     A
C5     C688    1.423   .     S
C5     C708    1.420   .     S
C6     O53     1.383   .     S
C6     C7      1.396   .     A
C7     H36     1.081   .     S
C8     C25     1.398   .     A
C8     O60     1.386   .     S
C9     C25     1.413   .     A
C9     C49     1.444   .     S
C9     C24     1.409   .     A
C10    C26     1.403   .     A
C10    C12     1.462   .     S
C11    C17     1.412   .     A
C11    C75     1.447   .     S
C11    C241    1.376   .     S
C12    O42     1.292   .     A
C12    O41     1.294   .     A
C13    H29     1.085   .     S
C13    C14     1.394   .     A
C13    C467    1.376   1_545 S
C14    C22     1.414   .     S
C14    C15     1.392   .     A
C15    H30     1.084   .     S
C15    C472    1.367   1_545 S
C16    H31     1.080   .     S
C16    C17     1.397   .     A
C16    C243    1.367   .     S
C18    H32     1.074   .     S
C18    N38     1.366   .     A
C18    C95     1.416   .     S
C19    N37     1.362   .     A
C19    H33     1.079   .     S
C19    C170    1.416   1_455 S
C20    C51     1.437   .     S
C20    N37     1.372   .     A
C20    C173    1.417   1_455 S
C21    N38     1.363   .     A
C21    H34     1.083   .     S
C21    C96     1.417   .     S
C22    O44     1.283   .     A
C22    O43     1.282   .     A
C23    O45     1.293   .     A
C23    O46     1.297   .     A
C23    C25     1.473   .     S
C24    C689    1.420   1_554 S
C24    C742    1.453   1_554 S
C26    H35     1.081   .     S
C26    C711    1.411   .     S
C27    O70     1.394   .     S
C27    C28     1.403   .     A
C27    C710    1.411   1_554 S
C28    O65     1.385   .     S
C28    C686    1.422   1_554 S
N37    Zn47    2.011   .     S
N38    Zn48    2.011   .     S
O39    Zn47    1.999   .     S
O40    Zn48    1.996   .     S
O41    Zn47    1.955   .     S
O42    Zn48    1.905   .     S
O43    Zn47    1.996   .     S
O44    Zn48    1.999   .     S
O45    Zn47    1.905   .     S
O46    Zn48    1.955   .     S
C49    N50     1.154   .     T
C51    N52     1.157   .     T
O53    C54     1.411   .     S
C54    H56     1.114   .     S
C54    H55     1.112   .     S
C54    H57     1.109   .     S
C58    C708    1.453   .     S
C58    N135    1.158   .     S
N59    C210    1.158   1_455 S
O60    C61     1.409   .     S
C61    H63     1.113   .     S
C61    H64     1.109   .     S
C61    H62     1.114   .     S
O65    C66     1.416   .     S
C66    H68     1.116   .     S
C66    H69     1.104   .     S
C66    H67     1.111   .     S
O70    C223    1.411   1_455 S
C71    H74     1.109   .     S
C71    O146    1.411   .     S
C71    H756    1.111   1_554 S
C71    H833    1.114   1_554 S
H72    C755    1.111   .     S
H73    C907    1.114   1_455 S
C75    N76     1.158   .     T
C77    O116    1.282   .     A
C77    C93     1.425   .     S
C77    O115    1.287   .     A
C78    C79     1.393   .     A
C78    C764    1.414   .     S
C78    C788    1.422   .     S
C79    C83     1.408   .     A
C79    C86     1.409   .     A
C80    C84     1.403   .     A
C80    C762    1.414   1_554 S
C80    C765    1.423   1_554 S
C81    C82     1.418   .     A
C81    C764    1.423   .     S
C81    C784    1.420   .     S
C82    O129    1.383   .     S
C82    C83     1.396   .     A
C83    H112    1.081   .     S
C84    C101    1.398   .     A
C84    O136    1.386   .     S
C85    C101    1.413   .     A
C85    C125    1.444   .     S
C85    C100    1.409   .     A
C86    C102    1.403   .     A
C86    C88     1.462   .     S
C87    C93     1.412   .     A
C87    C151    1.447   .     S
C87    C317    1.376   .     S
C88    O118    1.292   .     A
C88    O117    1.294   .     A
C89    H105    1.085   .     S
C89    C90     1.394   .     A
C89    C543    1.376   1_545 S
C90    C98     1.414   .     S
C90    C91     1.392   .     A
C91    H106    1.084   .     S
C91    C548    1.367   1_545 S
C92    H107    1.080   .     S
C92    C93     1.397   .     A
C92    C319    1.367   .     S
C94    H108    1.074   .     S
C94    N114    1.366   .     A
C94    C171    1.416   .     S
C95    N113    1.362   .     A
C95    H109    1.079   .     S
C96    C127    1.437   .     S
C96    N113    1.372   .     A
C97    N114    1.363   .     A
C97    H110    1.083   .     S
C97    C172    1.417   .     S
C98    O120    1.283   .     A
C98    O119    1.282   .     A
C99    O121    1.293   .     A
C99    O122    1.297   .     A
C99    C101    1.473   .     S
C100   C765    1.420   1_554 S
C100   C818    1.453   1_554 S
C102   H111    1.081   .     S
C102   C787    1.411   .     S
C103   O146    1.394   .     S
C103   C104    1.403   .     A
C103   C786    1.411   1_554 S
C104   O141    1.385   .     S
C104   C762    1.422   1_554 S
N113   Zn123   2.011   .     S
N114   Zn124   2.011   .     S
O115   Zn123   1.999   .     S
O116   Zn124   1.996   .     S
O117   Zn123   1.955   .     S
O118   Zn124   1.905   .     S
O119   Zn123   1.996   .     S
O120   Zn124   1.999   .     S
O121   Zn123   1.905   .     S
O122   Zn124   1.955   .     S
C125   N126    1.154   .     T
C127   N128    1.157   .     T
O129   C130    1.411   .     S
C130   H132    1.114   .     S
C130   H131    1.112   .     S
C130   H133    1.109   .     S
C134   C784    1.453   .     S
C134   N211    1.158   .     S
O136   C137    1.409   .     S
C137   H139    1.113   .     S
C137   H140    1.109   .     S
C137   H138    1.114   .     S
O141   C142    1.416   .     S
C142   H144    1.116   .     S
C142   H145    1.104   .     S
C142   H143    1.111   .     S
C147   H150    1.109   .     S
C147   O222    1.411   .     S
C147   H832    1.111   1_554 S
C147   H909    1.114   1_554 S
H148   C831    1.111   .     S
H149   C755    1.114   .     S
C151   N152    1.158   .     T
C153   O192    1.282   .     A
C153   C169    1.425   .     S
C153   O191    1.287   .     A
C154   C155    1.393   .     A
C154   C840    1.414   .     S
C154   C864    1.422   .     S
C155   C159    1.408   .     A
C155   C162    1.409   .     A
C156   C160    1.403   .     A
C156   C838    1.414   1_554 S
C156   C841    1.423   1_554 S
C157   C158    1.418   .     A
C157   C840    1.423   .     S
C157   C860    1.420   .     S
C158   O205    1.383   .     S
C158   C159    1.396   .     A
C159   H188    1.081   .     S
C160   C177    1.398   .     A
C160   O212    1.386   .     S
C161   C177    1.413   .     A
C161   C201    1.444   .     S
C161   C176    1.409   .     A
C162   C178    1.403   .     A
C162   C164    1.462   .     S
C163   C169    1.412   .     A
C163   C227    1.447   .     S
C163   C393    1.376   .     S
C164   O194    1.292   .     A
C164   O193    1.294   .     A
C165   H181    1.085   .     S
C165   C166    1.394   .     A
C165   C619    1.376   1_545 S
C166   C174    1.414   .     S
C166   C167    1.392   .     A
C167   H182    1.084   .     S
C167   C624    1.367   1_545 S
C168   H183    1.080   .     S
C168   C169    1.397   .     A
C168   C395    1.367   .     S
C170   H184    1.074   .     S
C170   N190    1.366   .     A
C170   C19     1.416   1_655 S
C171   N189    1.362   .     A
C171   H185    1.079   .     S
C172   C203    1.437   .     S
C172   N189    1.372   .     A
C173   N190    1.363   .     A
C173   H186    1.083   .     S
C173   C20     1.417   1_655 S
C174   O196    1.283   .     A
C174   O195    1.282   .     A
C175   O197    1.293   .     A
C175   O198    1.297   .     A
C175   C177    1.473   .     S
C176   C841    1.420   1_554 S
C176   C894    1.453   1_554 S
C178   H187    1.081   .     S
C178   C863    1.411   .     S
C179   O222    1.394   .     S
C179   C180    1.403   .     A
C179   C862    1.411   1_554 S
C180   O217    1.385   .     S
C180   C838    1.422   1_554 S
N189   Zn199   2.011   .     S
N190   Zn200   2.011   .     S
O191   Zn199   1.999   .     S
O192   Zn200   1.996   .     S
O193   Zn199   1.955   .     S
O194   Zn200   1.905   .     S
O195   Zn199   1.996   .     S
O196   Zn200   1.999   .     S
O197   Zn199   1.905   .     S
O198   Zn200   1.955   .     S
C201   N202    1.154   .     T
C203   N204    1.157   .     T
O205   C206    1.411   .     S
C206   H208    1.114   .     S
C206   H207    1.112   .     S
C206   H209    1.109   .     S
C210   C860    1.453   .     S
C210   N59     1.158   1_655 S
O212   C213    1.409   .     S
C213   H215    1.113   .     S
C213   H216    1.109   .     S
C213   H214    1.114   .     S
O217   C218    1.416   .     S
C218   H220    1.116   .     S
C218   H221    1.104   .     S
C218   H219    1.111   .     S
C223   H226    1.109   .     S
C223   O70     1.411   1_655 S
C223   H908    1.111   1_554 S
C223   H757    1.114   1_654 S
H224   C907    1.111   .     S
H225   C831    1.114   .     S
C227   N228    1.158   .     T
C229   O268    1.282   .     A
C229   C245    1.425   .     S
C229   O267    1.287   .     A
C230   C231    1.393   .     A
C230   C916    1.414   .     S
C230   C940    1.422   .     S
C231   C235    1.408   .     A
C231   C238    1.409   .     A
C232   C236    1.403   .     A
C232   C914    1.414   1_554 S
C232   C917    1.423   1_554 S
C233   C234    1.418   .     A
C233   C916    1.423   .     S
C233   C936    1.420   .     S
C234   O281    1.383   .     S
C234   C235    1.396   .     A
C235   H264    1.081   .     S
C236   C253    1.398   .     A
C236   O288    1.386   .     S
C237   C253    1.413   .     A
C237   C277    1.444   .     S
C237   C252    1.409   .     A
C238   C254    1.403   .     A
C238   C240    1.462   .     S
C239   C245    1.412   .     A
C239   C303    1.447   .     S
C239   C469    1.376   .     S
C240   O270    1.292   .     A
C240   O269    1.294   .     A
C241   H257    1.085   .     S
C241   C242    1.394   .     A
C242   C250    1.414   .     S
C242   C243    1.392   .     A
C243   H258    1.084   .     S
C244   H259    1.080   .     S
C244   C245    1.397   .     A
C244   C471    1.367   .     S
C246   H260    1.074   .     S
C246   N266    1.366   .     A
C246   C323    1.416   .     S
C247   N265    1.362   .     A
C247   H261    1.079   .     S
C247   C398    1.416   1_455 S
C248   C279    1.437   .     S
C248   N265    1.372   .     A
C248   C401    1.417   1_455 S
C249   N266    1.363   .     A
C249   H262    1.083   .     S
C249   C324    1.417   .     S
C250   O272    1.283   .     A
C250   O271    1.282   .     A
C251   O273    1.293   .     A
C251   O274    1.297   .     A
C251   C253    1.473   .     S
C252   C917    1.420   1_554 S
C252   C970    1.453   1_554 S
C254   H263    1.081   .     S
C254   C939    1.411   .     S
C255   O298    1.394   .     S
C255   C256    1.403   .     A
C255   C938    1.411   1_554 S
C256   O293    1.385   .     S
C256   C914    1.422   1_554 S
N265   Zn275   2.011   .     S
N266   Zn276   2.011   .     S
O267   Zn275   1.999   .     S
O268   Zn276   1.996   .     S
O269   Zn275   1.955   .     S
O270   Zn276   1.905   .     S
O271   Zn275   1.996   .     S
O272   Zn276   1.999   .     S
O273   Zn275   1.905   .     S
O274   Zn276   1.955   .     S
C277   N278    1.154   .     T
C279   N280    1.157   .     T
O281   C282    1.411   .     S
C282   H284    1.114   .     S
C282   H283    1.112   .     S
C282   H285    1.109   .     S
C286   C936    1.453   .     S
C286   N363    1.158   .     S
N287   C438    1.158   1_455 S
O288   C289    1.409   .     S
C289   H291    1.113   .     S
C289   H292    1.109   .     S
C289   H290    1.114   .     S
O293   C294    1.416   .     S
C294   H296    1.116   .     S
C294   H297    1.104   .     S
C294   H295    1.111   .     S
O298   C451    1.411   1_455 S
C299   H302    1.109   .     S
C299   O374    1.411   .     S
C299   H984    1.111   1_554 S
C299   H1061   1.114   1_554 S
H300   C983    1.111   .     S
H301   C1135   1.114   1_455 S
C303   N304    1.158   .     T
C305   O344    1.282   .     A
C305   C321    1.425   .     S
C305   O343    1.287   .     A
C306   C307    1.393   .     A
C306   C992    1.414   .     S
C306   C1016   1.422   .     S
C307   C311    1.408   .     A
C307   C314    1.409   .     A
C308   C312    1.403   .     A
C308   C990    1.414   1_554 S
C308   C993    1.423   1_554 S
C309   C310    1.418   .     A
C309   C992    1.423   .     S
C309   C1012   1.420   .     S
C310   O357    1.383   .     S
C310   C311    1.396   .     A
C311   H340    1.081   .     S
C312   C329    1.398   .     A
C312   O364    1.386   .     S
C313   C329    1.413   .     A
C313   C353    1.444   .     S
C313   C328    1.409   .     A
C314   C330    1.403   .     A
C314   C316    1.462   .     S
C315   C321    1.412   .     A
C315   C379    1.447   .     S
C315   C545    1.376   .     S
C316   O346    1.292   .     A
C316   O345    1.294   .     A
C317   H333    1.085   .     S
C317   C318    1.394   .     A
C318   C326    1.414   .     S
C318   C319    1.392   .     A
C319   H334    1.084   .     S
C320   H335    1.080   .     S
C320   C321    1.397   .     A
C320   C547    1.367   .     S
C322   H336    1.074   .     S
C322   N342    1.366   .     A
C322   C399    1.416   .     S
C323   N341    1.362   .     A
C323   H337    1.079   .     S
C324   C355    1.437   .     S
C324   N341    1.372   .     A
C325   N342    1.363   .     A
C325   H338    1.083   .     S
C325   C400    1.417   .     S
C326   O348    1.283   .     A
C326   O347    1.282   .     A
C327   O349    1.293   .     A
C327   O350    1.297   .     A
C327   C329    1.473   .     S
C328   C993    1.420   1_554 S
C328   C1046   1.453   1_554 S
C330   H339    1.081   .     S
C330   C1015   1.411   .     S
C331   O374    1.394   .     S
C331   C332    1.403   .     A
C331   C1014   1.411   1_554 S
C332   O369    1.385   .     S
C332   C990    1.422   1_554 S
N341   Zn351   2.011   .     S
N342   Zn352   2.011   .     S
O343   Zn351   1.999   .     S
O344   Zn352   1.996   .     S
O345   Zn351   1.955   .     S
O346   Zn352   1.905   .     S
O347   Zn351   1.996   .     S
O348   Zn352   1.999   .     S
O349   Zn351   1.905   .     S
O350   Zn352   1.955   .     S
C353   N354    1.154   .     T
C355   N356    1.157   .     T
O357   C358    1.411   .     S
C358   H360    1.114   .     S
C358   H359    1.112   .     S
C358   H361    1.109   .     S
C362   C1012   1.453   .     S
C362   N439    1.158   .     S
O364   C365    1.409   .     S
C365   H367    1.113   .     S
C365   H368    1.109   .     S
C365   H366    1.114   .     S
O369   C370    1.416   .     S
C370   H372    1.116   .     S
C370   H373    1.104   .     S
C370   H371    1.111   .     S
C375   H378    1.109   .     S
C375   O450    1.411   .     S
C375   H1060   1.111   1_554 S
C375   H1137   1.114   1_554 S
H376   C1059   1.111   .     S
H377   C983    1.114   .     S
C379   N380    1.158   .     T
C381   O420    1.282   .     A
C381   C397    1.425   .     S
C381   O419    1.287   .     A
C382   C383    1.393   .     A
C382   C1068   1.414   .     S
C382   C1092   1.422   .     S
C383   C387    1.408   .     A
C383   C390    1.409   .     A
C384   C388    1.403   .     A
C384   C1066   1.414   1_554 S
C384   C1069   1.423   1_554 S
C385   C386    1.418   .     A
C385   C1068   1.423   .     S
C385   C1088   1.420   .     S
C386   O433    1.383   .     S
C386   C387    1.396   .     A
C387   H416    1.081   .     S
C388   C405    1.398   .     A
C388   O440    1.386   .     S
C389   C405    1.413   .     A
C389   C429    1.444   .     S
C389   C404    1.409   .     A
C390   C406    1.403   .     A
C390   C392    1.462   .     S
C391   C397    1.412   .     A
C391   C455    1.447   .     S
C391   C621    1.376   .     S
C392   O422    1.292   .     A
C392   O421    1.294   .     A
C393   H409    1.085   .     S
C393   C394    1.394   .     A
C394   C402    1.414   .     S
C394   C395    1.392   .     A
C395   H410    1.084   .     S
C396   H411    1.080   .     S
C396   C397    1.397   .     A
C396   C623    1.367   .     S
C398   H412    1.074   .     S
C398   N418    1.366   .     A
C398   C247    1.416   1_655 S
C399   N417    1.362   .     A
C399   H413    1.079   .     S
C400   C431    1.437   .     S
C400   N417    1.372   .     A
C401   N418    1.363   .     A
C401   H414    1.083   .     S
C401   C248    1.417   1_655 S
C402   O424    1.283   .     A
C402   O423    1.282   .     A
C403   O425    1.293   .     A
C403   O426    1.297   .     A
C403   C405    1.473   .     S
C404   C1069   1.420   1_554 S
C404   C1122   1.453   1_554 S
C406   H415    1.081   .     S
C406   C1091   1.411   .     S
C407   O450    1.394   .     S
C407   C408    1.403   .     A
C407   C1090   1.411   1_554 S
C408   O445    1.385   .     S
C408   C1066   1.422   1_554 S
N417   Zn427   2.011   .     S
N418   Zn428   2.011   .     S
O419   Zn427   1.999   .     S
O420   Zn428   1.996   .     S
O421   Zn427   1.955   .     S
O422   Zn428   1.905   .     S
O423   Zn427   1.996   .     S
O424   Zn428   1.999   .     S
O425   Zn427   1.905   .     S
O426   Zn428   1.955   .     S
C429   N430    1.154   .     T
C431   N432    1.157   .     T
O433   C434    1.411   .     S
C434   H436    1.114   .     S
C434   H435    1.112   .     S
C434   H437    1.109   .     S
C438   C1088   1.453   .     S
C438   N287    1.158   1_655 S
O440   C441    1.409   .     S
C441   H443    1.113   .     S
C441   H444    1.109   .     S
C441   H442    1.114   .     S
O445   C446    1.416   .     S
C446   H448    1.116   .     S
C446   H449    1.104   .     S
C446   H447    1.111   .     S
C451   H454    1.109   .     S
C451   O298    1.411   1_655 S
C451   H1136   1.111   1_554 S
C451   H985    1.114   1_654 S
H452   C1135   1.111   .     S
H453   C1059   1.114   .     S
C455   N456    1.158   .     T
C457   O496    1.282   .     A
C457   C473    1.425   .     S
C457   O495    1.287   .     A
C458   C459    1.393   .     A
C458   C1144   1.414   .     S
C458   C1168   1.422   .     S
C459   C463    1.408   .     A
C459   C466    1.409   .     A
C460   C464    1.403   .     A
C460   C1142   1.414   1_554 S
C460   C1145   1.423   1_554 S
C461   C462    1.418   .     A
C461   C1144   1.423   .     S
C461   C1164   1.420   .     S
C462   O509    1.383   .     S
C462   C463    1.396   .     A
C463   H492    1.081   .     S
C464   C481    1.398   .     A
C464   O516    1.386   .     S
C465   C481    1.413   .     A
C465   C505    1.444   .     S
C465   C480    1.409   .     A
C466   C482    1.403   .     A
C466   C468    1.462   .     S
C467   C473    1.412   .     A
C467   C531    1.447   .     S
C467   C13     1.376   1_565 S
C468   O498    1.292   .     A
C468   O497    1.294   .     A
C469   H485    1.085   .     S
C469   C470    1.394   .     A
C470   C478    1.414   .     S
C470   C471    1.392   .     A
C471   H486    1.084   .     S
C472   H487    1.080   .     S
C472   C473    1.397   .     A
C472   C15     1.367   1_565 S
C474   H488    1.074   .     S
C474   N494    1.366   .     A
C474   C551    1.416   .     S
C475   N493    1.362   .     A
C475   H489    1.079   .     S
C475   C626    1.416   1_455 S
C476   C507    1.437   .     S
C476   N493    1.372   .     A
C476   C629    1.417   1_455 S
C477   N494    1.363   .     A
C477   H490    1.083   .     S
C477   C552    1.417   .     S
C478   O500    1.283   .     A
C478   O499    1.282   .     A
C479   O501    1.293   .     A
C479   O502    1.297   .     A
C479   C481    1.473   .     S
C480   C1145   1.420   1_554 S
C480   C1198   1.453   1_554 S
C482   H491    1.081   .     S
C482   C1167   1.411   .     S
C483   O526    1.394   .     S
C483   C484    1.403   .     A
C483   C1166   1.411   1_554 S
C484   O521    1.385   .     S
C484   C1142   1.422   1_554 S
N493   Zn503   2.011   .     S
N494   Zn504   2.011   .     S
O495   Zn503   1.999   .     S
O496   Zn504   1.996   .     S
O497   Zn503   1.955   .     S
O498   Zn504   1.905   .     S
O499   Zn503   1.996   .     S
O500   Zn504   1.999   .     S
O501   Zn503   1.905   .     S
O502   Zn504   1.955   .     S
C505   N506    1.154   .     T
C507   N508    1.157   .     T
O509   C510    1.411   .     S
C510   H512    1.114   .     S
C510   H511    1.112   .     S
C510   H513    1.109   .     S
C514   C1164   1.453   .     S
C514   N591    1.158   .     S
N515   C666    1.158   1_455 S
O516   C517    1.409   .     S
C517   H519    1.113   .     S
C517   H520    1.109   .     S
C517   H518    1.114   .     S
O521   C522    1.416   .     S
C522   H524    1.116   .     S
C522   H525    1.104   .     S
C522   H523    1.111   .     S
O526   C679    1.411   1_455 S
C527   H530    1.109   .     S
C527   O602    1.411   .     S
C527   H1212   1.111   1_554 S
C527   H1289   1.114   1_554 S
H528   C1211   1.111   .     S
H529   C1363   1.114   1_455 S
C531   N532    1.158   .     T
C533   O572    1.282   .     A
C533   C549    1.425   .     S
C533   O571    1.287   .     A
C534   C535    1.393   .     A
C534   C1220   1.414   .     S
C534   C1244   1.422   .     S
C535   C539    1.408   .     A
C535   C542    1.409   .     A
C536   C540    1.403   .     A
C536   C1218   1.414   1_554 S
C536   C1221   1.423   1_554 S
C537   C538    1.418   .     A
C537   C1220   1.423   .     S
C537   C1240   1.420   .     S
C538   O585    1.383   .     S
C538   C539    1.396   .     A
C539   H568    1.081   .     S
C540   C557    1.398   .     A
C540   O592    1.386   .     S
C541   C557    1.413   .     A
C541   C581    1.444   .     S
C541   C556    1.409   .     A
C542   C558    1.403   .     A
C542   C544    1.462   .     S
C543   C549    1.412   .     A
C543   C607    1.447   .     S
C543   C89     1.376   1_565 S
C544   O574    1.292   .     A
C544   O573    1.294   .     A
C545   H561    1.085   .     S
C545   C546    1.394   .     A
C546   C554    1.414   .     S
C546   C547    1.392   .     A
C547   H562    1.084   .     S
C548   H563    1.080   .     S
C548   C549    1.397   .     A
C548   C91     1.367   1_565 S
C550   H564    1.074   .     S
C550   N570    1.366   .     A
C550   C627    1.416   .     S
C551   N569    1.362   .     A
C551   H565    1.079   .     S
C552   C583    1.437   .     S
C552   N569    1.372   .     A
C553   N570    1.363   .     A
C553   H566    1.083   .     S
C553   C628    1.417   .     S
C554   O576    1.283   .     A
C554   O575    1.282   .     A
C555   O577    1.293   .     A
C555   O578    1.297   .     A
C555   C557    1.473   .     S
C556   C1221   1.420   1_554 S
C556   C1274   1.453   1_554 S
C558   H567    1.081   .     S
C558   C1243   1.411   .     S
C559   O602    1.394   .     S
C559   C560    1.403   .     A
C559   C1242   1.411   1_554 S
C560   O597    1.385   .     S
C560   C1218   1.422   1_554 S
N569   Zn579   2.011   .     S
N570   Zn580   2.011   .     S
O571   Zn579   1.999   .     S
O572   Zn580   1.996   .     S
O573   Zn579   1.955   .     S
O574   Zn580   1.905   .     S
O575   Zn579   1.996   .     S
O576   Zn580   1.999   .     S
O577   Zn579   1.905   .     S
O578   Zn580   1.955   .     S
C581   N582    1.154   .     T
C583   N584    1.157   .     T
O585   C586    1.411   .     S
C586   H588    1.114   .     S
C586   H587    1.112   .     S
C586   H589    1.109   .     S
C590   C1240   1.453   .     S
C590   N667    1.158   .     S
O592   C593    1.409   .     S
C593   H595    1.113   .     S
C593   H596    1.109   .     S
C593   H594    1.114   .     S
O597   C598    1.416   .     S
C598   H600    1.116   .     S
C598   H601    1.104   .     S
C598   H599    1.111   .     S
C603   H606    1.109   .     S
C603   O678    1.411   .     S
C603   H1288   1.111   1_554 S
C603   H1365   1.114   1_554 S
H604   C1287   1.111   .     S
H605   C1211   1.114   .     S
C607   N608    1.158   .     T
C609   O648    1.282   .     A
C609   C625    1.425   .     S
C609   O647    1.287   .     A
C610   C611    1.393   .     A
C610   C1296   1.414   .     S
C610   C1320   1.422   .     S
C611   C615    1.408   .     A
C611   C618    1.409   .     A
C612   C616    1.403   .     A
C612   C1294   1.414   1_554 S
C612   C1297   1.423   1_554 S
C613   C614    1.418   .     A
C613   C1296   1.423   .     S
C613   C1316   1.420   .     S
C614   O661    1.383   .     S
C614   C615    1.396   .     A
C615   H644    1.081   .     S
C616   C633    1.398   .     A
C616   O668    1.386   .     S
C617   C633    1.413   .     A
C617   C657    1.444   .     S
C617   C632    1.409   .     A
C618   C634    1.403   .     A
C618   C620    1.462   .     S
C619   C625    1.412   .     A
C619   C683    1.447   .     S
C619   C165    1.376   1_565 S
C620   O650    1.292   .     A
C620   O649    1.294   .     A
C621   H637    1.085   .     S
C621   C622    1.394   .     A
C622   C630    1.414   .     S
C622   C623    1.392   .     A
C623   H638    1.084   .     S
C624   H639    1.080   .     S
C624   C625    1.397   .     A
C624   C167    1.367   1_565 S
C626   H640    1.074   .     S
C626   N646    1.366   .     A
C626   C475    1.416   1_655 S
C627   N645    1.362   .     A
C627   H641    1.079   .     S
C628   C659    1.437   .     S
C628   N645    1.372   .     A
C629   N646    1.363   .     A
C629   H642    1.083   .     S
C629   C476    1.417   1_655 S
C630   O652    1.283   .     A
C630   O651    1.282   .     A
C631   O653    1.293   .     A
C631   O654    1.297   .     A
C631   C633    1.473   .     S
C632   C1297   1.420   1_554 S
C632   C1350   1.453   1_554 S
C634   H643    1.081   .     S
C634   C1319   1.411   .     S
C635   O678    1.394   .     S
C635   C636    1.403   .     A
C635   C1318   1.411   1_554 S
C636   O673    1.385   .     S
C636   C1294   1.422   1_554 S
N645   Zn655   2.011   .     S
N646   Zn656   2.011   .     S
O647   Zn655   1.999   .     S
O648   Zn656   1.996   .     S
O649   Zn655   1.955   .     S
O650   Zn656   1.905   .     S
O651   Zn655   1.996   .     S
O652   Zn656   1.999   .     S
O653   Zn655   1.905   .     S
O654   Zn656   1.955   .     S
C657   N658    1.154   .     T
C659   N660    1.157   .     T
O661   C662    1.411   .     S
C662   H664    1.114   .     S
C662   H663    1.112   .     S
C662   H665    1.109   .     S
C666   C1316   1.453   .     S
C666   N515    1.158   1_655 S
O668   C669    1.409   .     S
C669   H671    1.113   .     S
C669   H672    1.109   .     S
C669   H670    1.114   .     S
O673   C674    1.416   .     S
C674   H676    1.116   .     S
C674   H677    1.104   .     S
C674   H675    1.111   .     S
C679   H682    1.109   .     S
C679   O526    1.411   1_655 S
C679   H1364   1.111   1_554 S
C679   H1213   1.114   1_654 S
H680   C1363   1.111   .     S
H681   C1287   1.114   .     S
C683   N684    1.158   .     T
C685   O724    1.282   .     A
C685   C701    1.425   .     S
C685   O723    1.287   .     A
C686   C687    1.393   .     A
C686   C4      1.414   1_556 S
C686   C28     1.422   1_556 S
C687   C691    1.408   .     A
C687   C694    1.409   .     A
C688   C692    1.403   .     A
C689   C690    1.418   .     A
C689   C4      1.423   1_556 S
C689   C24     1.420   1_556 S
C690   O737    1.383   .     S
C690   C691    1.396   .     A
C691   H720    1.081   .     S
C692   C709    1.398   .     A
C692   O744    1.386   .     S
C693   C709    1.413   .     A
C693   C733    1.444   .     S
C693   C708    1.409   .     A
C694   C710    1.403   .     A
C694   C696    1.462   .     S
C695   C701    1.412   .     A
C695   C759    1.447   .     S
C695   C925    1.376   .     S
C696   O726    1.292   .     A
C696   O725    1.294   .     A
C697   H713    1.085   .     S
C697   C698    1.394   .     A
C697   C1151   1.376   1_545 S
C698   C706    1.414   .     S
C698   C699    1.392   .     A
C699   H714    1.084   .     S
C699   C1156   1.367   1_545 S
C700   H715    1.080   .     S
C700   C701    1.397   .     A
C700   C927    1.367   .     S
C702   H716    1.074   .     S
C702   N722    1.366   .     A
C702   C779    1.416   .     S
C703   N721    1.362   .     A
C703   H717    1.079   .     S
C703   C854    1.416   1_455 S
C704   C735    1.437   .     S
C704   N721    1.372   .     A
C704   C857    1.417   1_455 S
C705   N722    1.363   .     A
C705   H718    1.083   .     S
C705   C780    1.417   .     S
C706   O728    1.283   .     A
C706   O727    1.282   .     A
C707   O729    1.293   .     A
C707   O730    1.297   .     A
C707   C709    1.473   .     S
C710   H719    1.081   .     S
C710   C27     1.411   1_556 S
C711   O754    1.394   .     S
C711   C712    1.403   .     A
C712   O749    1.385   .     S
N721   Zn731   2.011   .     S
N722   Zn732   2.011   .     S
O723   Zn731   1.999   .     S
O724   Zn732   1.996   .     S
O725   Zn731   1.955   .     S
O726   Zn732   1.905   .     S
O727   Zn731   1.996   .     S
O728   Zn732   1.999   .     S
O729   Zn731   1.905   .     S
O730   Zn732   1.955   .     S
C733   N734    1.154   .     T
C735   N736    1.157   .     T
O737   C738    1.411   .     S
C738   H740    1.114   .     S
C738   H739    1.112   .     S
C738   H741    1.109   .     S
C742   C24     1.453   1_556 S
C742   N819    1.158   .     S
N743   C894    1.158   1_455 S
O744   C745    1.409   .     S
C745   H747    1.113   .     S
C745   H748    1.109   .     S
C745   H746    1.114   .     S
O749   C750    1.416   .     S
C750   H752    1.116   .     S
C750   H753    1.104   .     S
C750   H751    1.111   .     S
O754   C907    1.411   1_455 S
C755   H758    1.109   .     S
C755   O830    1.411   .     S
H756   C71     1.111   1_556 S
H757   C223    1.114   1_456 S
C759   N760    1.158   .     T
C761   O800    1.282   .     A
C761   C777    1.425   .     S
C761   O799    1.287   .     A
C762   C763    1.393   .     A
C762   C80     1.414   1_556 S
C762   C104    1.422   1_556 S
C763   C767    1.408   .     A
C763   C770    1.409   .     A
C764   C768    1.403   .     A
C765   C766    1.418   .     A
C765   C80     1.423   1_556 S
C765   C100    1.420   1_556 S
C766   O813    1.383   .     S
C766   C767    1.396   .     A
C767   H796    1.081   .     S
C768   C785    1.398   .     A
C768   O820    1.386   .     S
C769   C785    1.413   .     A
C769   C809    1.444   .     S
C769   C784    1.409   .     A
C770   C786    1.403   .     A
C770   C772    1.462   .     S
C771   C777    1.412   .     A
C771   C835    1.447   .     S
C771   C1001   1.376   .     S
C772   O802    1.292   .     A
C772   O801    1.294   .     A
C773   H789    1.085   .     S
C773   C774    1.394   .     A
C773   C1227   1.376   1_545 S
C774   C782    1.414   .     S
C774   C775    1.392   .     A
C775   H790    1.084   .     S
C775   C1232   1.367   1_545 S
C776   H791    1.080   .     S
C776   C777    1.397   .     A
C776   C1003   1.367   .     S
C778   H792    1.074   .     S
C778   N798    1.366   .     A
C778   C855    1.416   .     S
C779   N797    1.362   .     A
C779   H793    1.079   .     S
C780   C811    1.437   .     S
C780   N797    1.372   .     A
C781   N798    1.363   .     A
C781   H794    1.083   .     S
C781   C856    1.417   .     S
C782   O804    1.283   .     A
C782   O803    1.282   .     A
C783   O805    1.293   .     A
C783   O806    1.297   .     A
C783   C785    1.473   .     S
C786   H795    1.081   .     S
C786   C103    1.411   1_556 S
C787   O830    1.394   .     S
C787   C788    1.403   .     A
C788   O825    1.385   .     S
N797   Zn807   2.011   .     S
N798   Zn808   2.011   .     S
O799   Zn807   1.999   .     S
O800   Zn808   1.996   .     S
O801   Zn807   1.955   .     S
O802   Zn808   1.905   .     S
O803   Zn807   1.996   .     S
O804   Zn808   1.999   .     S
O805   Zn807   1.905   .     S
O806   Zn808   1.955   .     S
C809   N810    1.154   .     T
C811   N812    1.157   .     T
O813   C814    1.411   .     S
C814   H816    1.114   .     S
C814   H815    1.112   .     S
C814   H817    1.109   .     S
C818   C100    1.453   1_556 S
C818   N895    1.158   .     S
O820   C821    1.409   .     S
C821   H823    1.113   .     S
C821   H824    1.109   .     S
C821   H822    1.114   .     S
O825   C826    1.416   .     S
C826   H828    1.116   .     S
C826   H829    1.104   .     S
C826   H827    1.111   .     S
C831   H834    1.109   .     S
C831   O906    1.411   .     S
H832   C147    1.111   1_556 S
H833   C71     1.114   1_556 S
C835   N836    1.158   .     T
C837   O876    1.282   .     A
C837   C853    1.425   .     S
C837   O875    1.287   .     A
C838   C839    1.393   .     A
C838   C156    1.414   1_556 S
C838   C180    1.422   1_556 S
C839   C843    1.408   .     A
C839   C846    1.409   .     A
C840   C844    1.403   .     A
C841   C842    1.418   .     A
C841   C156    1.423   1_556 S
C841   C176    1.420   1_556 S
C842   O889    1.383   .     S
C842   C843    1.396   .     A
C843   H872    1.081   .     S
C844   C861    1.398   .     A
C844   O896    1.386   .     S
C845   C861    1.413   .     A
C845   C885    1.444   .     S
C845   C860    1.409   .     A
C846   C862    1.403   .     A
C846   C848    1.462   .     S
C847   C853    1.412   .     A
C847   C911    1.447   .     S
C847   C1077   1.376   .     S
C848   O878    1.292   .     A
C848   O877    1.294   .     A
C849   H865    1.085   .     S
C849   C850    1.394   .     A
C849   C1303   1.376   1_545 S
C850   C858    1.414   .     S
C850   C851    1.392   .     A
C851   H866    1.084   .     S
C851   C1308   1.367   1_545 S
C852   H867    1.080   .     S
C852   C853    1.397   .     A
C852   C1079   1.367   .     S
C854   H868    1.074   .     S
C854   N874    1.366   .     A
C854   C703    1.416   1_655 S
C855   N873    1.362   .     A
C855   H869    1.079   .     S
C856   C887    1.437   .     S
C856   N873    1.372   .     A
C857   N874    1.363   .     A
C857   H870    1.083   .     S
C857   C704    1.417   1_655 S
C858   O880    1.283   .     A
C858   O879    1.282   .     A
C859   O881    1.293   .     A
C859   O882    1.297   .     A
C859   C861    1.473   .     S
C862   H871    1.081   .     S
C862   C179    1.411   1_556 S
C863   O906    1.394   .     S
C863   C864    1.403   .     A
C864   O901    1.385   .     S
N873   Zn883   2.011   .     S
N874   Zn884   2.011   .     S
O875   Zn883   1.999   .     S
O876   Zn884   1.996   .     S
O877   Zn883   1.955   .     S
O878   Zn884   1.905   .     S
O879   Zn883   1.996   .     S
O880   Zn884   1.999   .     S
O881   Zn883   1.905   .     S
O882   Zn884   1.955   .     S
C885   N886    1.154   .     T
C887   N888    1.157   .     T
O889   C890    1.411   .     S
C890   H892    1.114   .     S
C890   H891    1.112   .     S
C890   H893    1.109   .     S
C894   C176    1.453   1_556 S
C894   N743    1.158   1_655 S
O896   C897    1.409   .     S
C897   H899    1.113   .     S
C897   H900    1.109   .     S
C897   H898    1.114   .     S
O901   C902    1.416   .     S
C902   H904    1.116   .     S
C902   H905    1.104   .     S
C902   H903    1.111   .     S
C907   H910    1.109   .     S
C907   O754    1.411   1_655 S
C907   H73     1.114   1_655 S
H908   C223    1.111   1_556 S
H909   C147    1.114   1_556 S
C911   N912    1.158   .     T
C913   O952    1.282   .     A
C913   C929    1.425   .     S
C913   O951    1.287   .     A
C914   C915    1.393   .     A
C914   C232    1.414   1_556 S
C914   C256    1.422   1_556 S
C915   C919    1.408   .     A
C915   C922    1.409   .     A
C916   C920    1.403   .     A
C917   C918    1.418   .     A
C917   C232    1.423   1_556 S
C917   C252    1.420   1_556 S
C918   O965    1.383   .     S
C918   C919    1.396   .     A
C919   H948    1.081   .     S
C920   C937    1.398   .     A
C920   O972    1.386   .     S
C921   C937    1.413   .     A
C921   C961    1.444   .     S
C921   C936    1.409   .     A
C922   C938    1.403   .     A
C922   C924    1.462   .     S
C923   C929    1.412   .     A
C923   C987    1.447   .     S
C923   C1153   1.376   .     S
C924   O954    1.292   .     A
C924   O953    1.294   .     A
C925   H941    1.085   .     S
C925   C926    1.394   .     A
C926   C934    1.414   .     S
C926   C927    1.392   .     A
C927   H942    1.084   .     S
C928   H943    1.080   .     S
C928   C929    1.397   .     A
C928   C1155   1.367   .     S
C930   H944    1.074   .     S
C930   N950    1.366   .     A
C930   C1007   1.416   .     S
C931   N949    1.362   .     A
C931   H945    1.079   .     S
C931   C1082   1.416   1_455 S
C932   C963    1.437   .     S
C932   N949    1.372   .     A
C932   C1085   1.417   1_455 S
C933   N950    1.363   .     A
C933   H946    1.083   .     S
C933   C1008   1.417   .     S
C934   O956    1.283   .     A
C934   O955    1.282   .     A
C935   O957    1.293   .     A
C935   O958    1.297   .     A
C935   C937    1.473   .     S
C938   H947    1.081   .     S
C938   C255    1.411   1_556 S
C939   O982    1.394   .     S
C939   C940    1.403   .     A
C940   O977    1.385   .     S
N949   Zn959   2.011   .     S
N950   Zn960   2.011   .     S
O951   Zn959   1.999   .     S
O952   Zn960   1.996   .     S
O953   Zn959   1.955   .     S
O954   Zn960   1.905   .     S
O955   Zn959   1.996   .     S
O956   Zn960   1.999   .     S
O957   Zn959   1.905   .     S
O958   Zn960   1.955   .     S
C961   N962    1.154   .     T
C963   N964    1.157   .     T
O965   C966    1.411   .     S
C966   H968    1.114   .     S
C966   H967    1.112   .     S
C966   H969    1.109   .     S
C970   C252    1.453   1_556 S
C970   N1047   1.158   .     S
N971   C1122   1.158   1_455 S
O972   C973    1.409   .     S
C973   H975    1.113   .     S
C973   H976    1.109   .     S
C973   H974    1.114   .     S
O977   C978    1.416   .     S
C978   H980    1.116   .     S
C978   H981    1.104   .     S
C978   H979    1.111   .     S
O982   C1135   1.411   1_455 S
C983   H986    1.109   .     S
C983   O1058   1.411   .     S
H984   C299    1.111   1_556 S
H985   C451    1.114   1_456 S
C987   N988    1.158   .     T
C989   O1028   1.282   .     A
C989   C1005   1.425   .     S
C989   O1027   1.287   .     A
C990   C991    1.393   .     A
C990   C308    1.414   1_556 S
C990   C332    1.422   1_556 S
C991   C995    1.408   .     A
C991   C998    1.409   .     A
C992   C996    1.403   .     A
C993   C994    1.418   .     A
C993   C308    1.423   1_556 S
C993   C328    1.420   1_556 S
C994   O1041   1.383   .     S
C994   C995    1.396   .     A
C995   H1024   1.081   .     S
C996   C1013   1.398   .     A
C996   O1048   1.386   .     S
C997   C1013   1.413   .     A
C997   C1037   1.444   .     S
C997   C1012   1.409   .     A
C998   C1014   1.403   .     A
C998   C1000   1.462   .     S
C999   C1005   1.412   .     A
C999   C1063   1.447   .     S
C999   C1229   1.376   .     S
C1000  O1030   1.292   .     A
C1000  O1029   1.294   .     A
C1001  H1017   1.085   .     S
C1001  C1002   1.394   .     A
C1002  C1010   1.414   .     S
C1002  C1003   1.392   .     A
C1003  H1018   1.084   .     S
C1004  H1019   1.080   .     S
C1004  C1005   1.397   .     A
C1004  C1231   1.367   .     S
C1006  H1020   1.074   .     S
C1006  N1026   1.366   .     A
C1006  C1083   1.416   .     S
C1007  N1025   1.362   .     A
C1007  H1021   1.079   .     S
C1008  C1039   1.437   .     S
C1008  N1025   1.372   .     A
C1009  N1026   1.363   .     A
C1009  H1022   1.083   .     S
C1009  C1084   1.417   .     S
C1010  O1032   1.283   .     A
C1010  O1031   1.282   .     A
C1011  O1033   1.293   .     A
C1011  O1034   1.297   .     A
C1011  C1013   1.473   .     S
C1014  H1023   1.081   .     S
C1014  C331    1.411   1_556 S
C1015  O1058   1.394   .     S
C1015  C1016   1.403   .     A
C1016  O1053   1.385   .     S
N1025  Zn1035  2.011   .     S
N1026  Zn1036  2.011   .     S
O1027  Zn1035  1.999   .     S
O1028  Zn1036  1.996   .     S
O1029  Zn1035  1.955   .     S
O1030  Zn1036  1.905   .     S
O1031  Zn1035  1.996   .     S
O1032  Zn1036  1.999   .     S
O1033  Zn1035  1.905   .     S
O1034  Zn1036  1.955   .     S
C1037  N1038   1.154   .     T
C1039  N1040   1.157   .     T
O1041  C1042   1.411   .     S
C1042  H1044   1.114   .     S
C1042  H1043   1.112   .     S
C1042  H1045   1.109   .     S
C1046  C328    1.453   1_556 S
C1046  N1123   1.158   .     S
O1048  C1049   1.409   .     S
C1049  H1051   1.113   .     S
C1049  H1052   1.109   .     S
C1049  H1050   1.114   .     S
O1053  C1054   1.416   .     S
C1054  H1056   1.116   .     S
C1054  H1057   1.104   .     S
C1054  H1055   1.111   .     S
C1059  H1062   1.109   .     S
C1059  O1134   1.411   .     S
H1060  C375    1.111   1_556 S
H1061  C299    1.114   1_556 S
C1063  N1064   1.158   .     T
C1065  O1104   1.282   .     A
C1065  C1081   1.425   .     S
C1065  O1103   1.287   .     A
C1066  C1067   1.393   .     A
C1066  C384    1.414   1_556 S
C1066  C408    1.422   1_556 S
C1067  C1071   1.408   .     A
C1067  C1074   1.409   .     A
C1068  C1072   1.403   .     A
C1069  C1070   1.418   .     A
C1069  C384    1.423   1_556 S
C1069  C404    1.420   1_556 S
C1070  O1117   1.383   .     S
C1070  C1071   1.396   .     A
C1071  H1100   1.081   .     S
C1072  C1089   1.398   .     A
C1072  O1124   1.386   .     S
C1073  C1089   1.413   .     A
C1073  C1113   1.444   .     S
C1073  C1088   1.409   .     A
C1074  C1090   1.403   .     A
C1074  C1076   1.462   .     S
C1075  C1081   1.412   .     A
C1075  C1139   1.447   .     S
C1075  C1305   1.376   .     S
C1076  O1106   1.292   .     A
C1076  O1105   1.294   .     A
C1077  H1093   1.085   .     S
C1077  C1078   1.394   .     A
C1078  C1086   1.414   .     S
C1078  C1079   1.392   .     A
C1079  H1094   1.084   .     S
C1080  H1095   1.080   .     S
C1080  C1081   1.397   .     A
C1080  C1307   1.367   .     S
C1082  H1096   1.074   .     S
C1082  N1102   1.366   .     A
C1082  C931    1.416   1_655 S
C1083  N1101   1.362   .     A
C1083  H1097   1.079   .     S
C1084  C1115   1.437   .     S
C1084  N1101   1.372   .     A
C1085  N1102   1.363   .     A
C1085  H1098   1.083   .     S
C1085  C932    1.417   1_655 S
C1086  O1108   1.283   .     A
C1086  O1107   1.282   .     A
C1087  O1109   1.293   .     A
C1087  O1110   1.297   .     A
C1087  C1089   1.473   .     S
C1090  H1099   1.081   .     S
C1090  C407    1.411   1_556 S
C1091  O1134   1.394   .     S
C1091  C1092   1.403   .     A
C1092  O1129   1.385   .     S
N1101  Zn1111  2.011   .     S
N1102  Zn1112  2.011   .     S
O1103  Zn1111  1.999   .     S
O1104  Zn1112  1.996   .     S
O1105  Zn1111  1.955   .     S
O1106  Zn1112  1.905   .     S
O1107  Zn1111  1.996   .     S
O1108  Zn1112  1.999   .     S
O1109  Zn1111  1.905   .     S
O1110  Zn1112  1.955   .     S
C1113  N1114   1.154   .     T
C1115  N1116   1.157   .     T
O1117  C1118   1.411   .     S
C1118  H1120   1.114   .     S
C1118  H1119   1.112   .     S
C1118  H1121   1.109   .     S
C1122  C404    1.453   1_556 S
C1122  N971    1.158   1_655 S
O1124  C1125   1.409   .     S
C1125  H1127   1.113   .     S
C1125  H1128   1.109   .     S
C1125  H1126   1.114   .     S
O1129  C1130   1.416   .     S
C1130  H1132   1.116   .     S
C1130  H1133   1.104   .     S
C1130  H1131   1.111   .     S
C1135  H1138   1.109   .     S
C1135  O982    1.411   1_655 S
C1135  H301    1.114   1_655 S
H1136  C451    1.111   1_556 S
H1137  C375    1.114   1_556 S
C1139  N1140   1.158   .     T
C1141  O1180   1.282   .     A
C1141  C1157   1.425   .     S
C1141  O1179   1.287   .     A
C1142  C1143   1.393   .     A
C1142  C460    1.414   1_556 S
C1142  C484    1.422   1_556 S
C1143  C1147   1.408   .     A
C1143  C1150   1.409   .     A
C1144  C1148   1.403   .     A
C1145  C1146   1.418   .     A
C1145  C460    1.423   1_556 S
C1145  C480    1.420   1_556 S
C1146  O1193   1.383   .     S
C1146  C1147   1.396   .     A
C1147  H1176   1.081   .     S
C1148  C1165   1.398   .     A
C1148  O1200   1.386   .     S
C1149  C1165   1.413   .     A
C1149  C1189   1.444   .     S
C1149  C1164   1.409   .     A
C1150  C1166   1.403   .     A
C1150  C1152   1.462   .     S
C1151  C1157   1.412   .     A
C1151  C1215   1.447   .     S
C1151  C697    1.376   1_565 S
C1152  O1182   1.292   .     A
C1152  O1181   1.294   .     A
C1153  H1169   1.085   .     S
C1153  C1154   1.394   .     A
C1154  C1162   1.414   .     S
C1154  C1155   1.392   .     A
C1155  H1170   1.084   .     S
C1156  H1171   1.080   .     S
C1156  C1157   1.397   .     A
C1156  C699    1.367   1_565 S
C1158  H1172   1.074   .     S
C1158  N1178   1.366   .     A
C1158  C1235   1.416   .     S
C1159  N1177   1.362   .     A
C1159  H1173   1.079   .     S
C1159  C1310   1.416   1_455 S
C1160  C1191   1.437   .     S
C1160  N1177   1.372   .     A
C1160  C1313   1.417   1_455 S
C1161  N1178   1.363   .     A
C1161  H1174   1.083   .     S
C1161  C1236   1.417   .     S
C1162  O1184   1.283   .     A
C1162  O1183   1.282   .     A
C1163  O1185   1.293   .     A
C1163  O1186   1.297   .     A
C1163  C1165   1.473   .     S
C1166  H1175   1.081   .     S
C1166  C483    1.411   1_556 S
C1167  O1210   1.394   .     S
C1167  C1168   1.403   .     A
C1168  O1205   1.385   .     S
N1177  Zn1187  2.011   .     S
N1178  Zn1188  2.011   .     S
O1179  Zn1187  1.999   .     S
O1180  Zn1188  1.996   .     S
O1181  Zn1187  1.955   .     S
O1182  Zn1188  1.905   .     S
O1183  Zn1187  1.996   .     S
O1184  Zn1188  1.999   .     S
O1185  Zn1187  1.905   .     S
O1186  Zn1188  1.955   .     S
C1189  N1190   1.154   .     T
C1191  N1192   1.157   .     T
O1193  C1194   1.411   .     S
C1194  H1196   1.114   .     S
C1194  H1195   1.112   .     S
C1194  H1197   1.109   .     S
C1198  C480    1.453   1_556 S
C1198  N1275   1.158   .     S
N1199  C1350   1.158   1_455 S
O1200  C1201   1.409   .     S
C1201  H1203   1.113   .     S
C1201  H1204   1.109   .     S
C1201  H1202   1.114   .     S
O1205  C1206   1.416   .     S
C1206  H1208   1.116   .     S
C1206  H1209   1.104   .     S
C1206  H1207   1.111   .     S
O1210  C1363   1.411   1_455 S
C1211  H1214   1.109   .     S
C1211  O1286   1.411   .     S
H1212  C527    1.111   1_556 S
H1213  C679    1.114   1_456 S
C1215  N1216   1.158   .     T
C1217  O1256   1.282   .     A
C1217  C1233   1.425   .     S
C1217  O1255   1.287   .     A
C1218  C1219   1.393   .     A
C1218  C536    1.414   1_556 S
C1218  C560    1.422   1_556 S
C1219  C1223   1.408   .     A
C1219  C1226   1.409   .     A
C1220  C1224   1.403   .     A
C1221  C1222   1.418   .     A
C1221  C536    1.423   1_556 S
C1221  C556    1.420   1_556 S
C1222  O1269   1.383   .     S
C1222  C1223   1.396   .     A
C1223  H1252   1.081   .     S
C1224  C1241   1.398   .     A
C1224  O1276   1.386   .     S
C1225  C1241   1.413   .     A
C1225  C1265   1.444   .     S
C1225  C1240   1.409   .     A
C1226  C1242   1.403   .     A
C1226  C1228   1.462   .     S
C1227  C1233   1.412   .     A
C1227  C1291   1.447   .     S
C1227  C773    1.376   1_565 S
C1228  O1258   1.292   .     A
C1228  O1257   1.294   .     A
C1229  H1245   1.085   .     S
C1229  C1230   1.394   .     A
C1230  C1238   1.414   .     S
C1230  C1231   1.392   .     A
C1231  H1246   1.084   .     S
C1232  H1247   1.080   .     S
C1232  C1233   1.397   .     A
C1232  C775    1.367   1_565 S
C1234  H1248   1.074   .     S
C1234  N1254   1.366   .     A
C1234  C1311   1.416   .     S
C1235  N1253   1.362   .     A
C1235  H1249   1.079   .     S
C1236  C1267   1.437   .     S
C1236  N1253   1.372   .     A
C1237  N1254   1.363   .     A
C1237  H1250   1.083   .     S
C1237  C1312   1.417   .     S
C1238  O1260   1.283   .     A
C1238  O1259   1.282   .     A
C1239  O1261   1.293   .     A
C1239  O1262   1.297   .     A
C1239  C1241   1.473   .     S
C1242  H1251   1.081   .     S
C1242  C559    1.411   1_556 S
C1243  O1286   1.394   .     S
C1243  C1244   1.403   .     A
C1244  O1281   1.385   .     S
N1253  Zn1263  2.011   .     S
N1254  Zn1264  2.011   .     S
O1255  Zn1263  1.999   .     S
O1256  Zn1264  1.996   .     S
O1257  Zn1263  1.955   .     S
O1258  Zn1264  1.905   .     S
O1259  Zn1263  1.996   .     S
O1260  Zn1264  1.999   .     S
O1261  Zn1263  1.905   .     S
O1262  Zn1264  1.955   .     S
C1265  N1266   1.154   .     T
C1267  N1268   1.157   .     T
O1269  C1270   1.411   .     S
C1270  H1272   1.114   .     S
C1270  H1271   1.112   .     S
C1270  H1273   1.109   .     S
C1274  C556    1.453   1_556 S
C1274  N1351   1.158   .     S
O1276  C1277   1.409   .     S
C1277  H1279   1.113   .     S
C1277  H1280   1.109   .     S
C1277  H1278   1.114   .     S
O1281  C1282   1.416   .     S
C1282  H1284   1.116   .     S
C1282  H1285   1.104   .     S
C1282  H1283   1.111   .     S
C1287  H1290   1.109   .     S
C1287  O1362   1.411   .     S
H1288  C603    1.111   1_556 S
H1289  C527    1.114   1_556 S
C1291  N1292   1.158   .     T
C1293  O1332   1.282   .     A
C1293  C1309   1.425   .     S
C1293  O1331   1.287   .     A
C1294  C1295   1.393   .     A
C1294  C612    1.414   1_556 S
C1294  C636    1.422   1_556 S
C1295  C1299   1.408   .     A
C1295  C1302   1.409   .     A
C1296  C1300   1.403   .     A
C1297  C1298   1.418   .     A
C1297  C612    1.423   1_556 S
C1297  C632    1.420   1_556 S
C1298  O1345   1.383   .     S
C1298  C1299   1.396   .     A
C1299  H1328   1.081   .     S
C1300  C1317   1.398   .     A
C1300  O1352   1.386   .     S
C1301  C1317   1.413   .     A
C1301  C1341   1.444   .     S
C1301  C1316   1.409   .     A
C1302  C1318   1.403   .     A
C1302  C1304   1.462   .     S
C1303  C1309   1.412   .     A
C1303  C1367   1.447   .     S
C1303  C849    1.376   1_565 S
C1304  O1334   1.292   .     A
C1304  O1333   1.294   .     A
C1305  H1321   1.085   .     S
C1305  C1306   1.394   .     A
C1306  C1314   1.414   .     S
C1306  C1307   1.392   .     A
C1307  H1322   1.084   .     S
C1308  H1323   1.080   .     S
C1308  C1309   1.397   .     A
C1308  C851    1.367   1_565 S
C1310  H1324   1.074   .     S
C1310  N1330   1.366   .     A
C1310  C1159   1.416   1_655 S
C1311  N1329   1.362   .     A
C1311  H1325   1.079   .     S
C1312  C1343   1.437   .     S
C1312  N1329   1.372   .     A
C1313  N1330   1.363   .     A
C1313  H1326   1.083   .     S
C1313  C1160   1.417   1_655 S
C1314  O1336   1.283   .     A
C1314  O1335   1.282   .     A
C1315  O1337   1.293   .     A
C1315  O1338   1.297   .     A
C1315  C1317   1.473   .     S
C1318  H1327   1.081   .     S
C1318  C635    1.411   1_556 S
C1319  O1362   1.394   .     S
C1319  C1320   1.403   .     A
C1320  O1357   1.385   .     S
N1329  Zn1339  2.011   .     S
N1330  Zn1340  2.011   .     S
O1331  Zn1339  1.999   .     S
O1332  Zn1340  1.996   .     S
O1333  Zn1339  1.955   .     S
O1334  Zn1340  1.905   .     S
O1335  Zn1339  1.996   .     S
O1336  Zn1340  1.999   .     S
O1337  Zn1339  1.905   .     S
O1338  Zn1340  1.955   .     S
C1341  N1342   1.154   .     T
C1343  N1344   1.157   .     T
O1345  C1346   1.411   .     S
C1346  H1348   1.114   .     S
C1346  H1347   1.112   .     S
C1346  H1349   1.109   .     S
C1350  C632    1.453   1_556 S
C1350  N1199   1.158   1_655 S
O1352  C1353   1.409   .     S
C1353  H1355   1.113   .     S
C1353  H1356   1.109   .     S
C1353  H1354   1.114   .     S
O1357  C1358   1.416   .     S
C1358  H1360   1.116   .     S
C1358  H1361   1.104   .     S
C1358  H1359   1.111   .     S
C1363  H1366   1.109   .     S
C1363  O1210   1.411   1_655 S
C1363  H529    1.114   1_655 S
H1364  C679    1.111   1_556 S
H1365  C603    1.114   1_556 S
C1367  N1368   1.158   .     T
