data_str_m3_o1_o16_pcu_sym.37
_audit_creation_date              2020-01-03
_audit_creation_method            'Materials Studio'
_symmetry_space_group_name_H-M    'P1'
_symmetry_Int_Tables_number       1
_symmetry_cell_setting            triclinic
loop_
_symmetry_equiv_pos_as_xyz
  x,y,z
_cell_length_a                    29.7834
_cell_length_b                    31.9965
_cell_length_c                    26.4310
_cell_angle_alpha                 91.7752
_cell_angle_beta                  71.5118
_cell_angle_gamma                 91.5456
loop_
_atom_site_label
_atom_site_type_symbol
_atom_site_fract_x
_atom_site_fract_y
_atom_site_fract_z
_atom_site_U_iso_or_equiv
_atom_site_adp_type
_atom_site_occupancy
C1     C     0.16933   0.24627   0.24360   0.00000  Uiso   1.00
C2     C     0.12546   0.18064   0.40918   0.00000  Uiso   1.00
C3     C     0.21165   0.31356   0.24515   0.00000  Uiso   1.00
C4     C     0.14092   0.17081   0.35150   0.00000  Uiso   1.00
C5     C     0.20142   0.02109   0.26388   0.00000  Uiso   1.00
C6     C     0.16641   0.04189   0.24953   0.00000  Uiso   1.00
C7     C     0.13784   0.02056   0.22409   0.00000  Uiso   1.00
C8     C     0.14081   0.31117   0.21711   0.00000  Uiso   1.00
C9     C     0.17492   0.29049   0.23308   0.00000  Uiso   1.00
C10    C     0.31296   0.13223   0.23322   0.00000  Uiso   1.00
C11    C     0.02786   0.13251   0.23156   0.00000  Uiso   1.00
C12    C     0.14529   0.18423   0.49144   0.00000  Uiso   1.00
C13    C     0.01965   0.20129   0.26697   0.00000  Uiso   1.00
C14    C     0.30605   0.20146   0.26472   0.00000  Uiso   1.00
C15    C     0.16575   0.08659   0.25170   0.00000  Uiso   1.00
C16    C     0.19254   0.16577   0.14829   0.00000  Uiso   1.00
C17    C     0.26168   0.15374   0.00054   0.00000  Uiso   1.00
C18    C     0.20697   0.16573   0.09014   0.00000  Uiso   1.00
C19    C     0.07742   0.17760   0.43873   0.00000  Uiso   1.00
C20    C     0.06296   0.17963   0.49413   0.00000  Uiso   1.00
C21    C     0.09653   0.18078   0.02064   0.00000  Uiso   1.00
C22    C     0.28412   0.13264   0.07862   0.00000  Uiso   1.00
C23    C     0.15864   0.18999   0.43616   0.00000  Uiso   1.00
C24    C     0.22332   0.04015   0.30102   0.00000  Uiso   1.00
C25    C     0.11189   0.28992   0.18912   0.00000  Uiso   1.00
C26    C     0.07214   0.09542   0.15188   0.00000  Uiso   1.00
C27    C     0.03232   0.23756   0.34302   0.00000  Uiso   1.00
C28    C     0.30484   0.08905   0.46788   0.00000  Uiso   1.00
C29    C     0.18533   0.26888   0.37913   0.00000  Uiso   1.00
C30    C     0.29893   0.32344   0.22756   0.00000  Uiso   1.00
C31    C     0.18176   0.17877   0.01398   0.00000  Uiso   1.00
C32    C     0.22873   0.17277   0.48034   0.00000  Uiso   1.00
C33    C     0.24119   0.18871   0.42892   0.00000  Uiso   1.00
C34    C     0.20581   0.20313   0.41002   0.00000  Uiso   1.00
C35    C     0.17284   0.17849   0.06837   0.00000  Uiso   1.00
C36    C     0.25083   0.15099   0.05645   0.00000  Uiso   1.00
H37    H     0.11331   0.03700   0.20978   0.00000  Uiso   1.00
H38    H     0.04217   0.08759   0.13664   0.00000  Uiso   1.00
H39    H     0.09908   0.07081   0.13758   0.00000  Uiso   1.00
H40    H     0.08848   0.12569   0.13545   0.00000  Uiso   1.00
H41    H     0.02671   0.26540   0.27559   0.00000  Uiso   1.00
H42    H     0.00144   0.25645   0.36608   0.00000  Uiso   1.00
H43    H     0.06472   0.25148   0.34932   0.00000  Uiso   1.00
H44    H     0.02714   0.20538   0.35844   0.00000  Uiso   1.00
H45    H     0.31421   0.14396   0.42651   0.00000  Uiso   1.00
H46    H     0.00448   0.08079   0.47598   0.00000  Uiso   1.00
H47    H     0.30522   0.07420   0.42916   0.00000  Uiso   1.00
H48    H     0.29798   0.10473   0.21936   0.00000  Uiso   1.00
H49    H     0.27397   0.07581   0.49951   0.00000  Uiso   1.00
H50    H     0.25194   0.24438   0.35968   0.00000  Uiso   1.00
H51    H     0.20054   0.29300   0.34903   0.00000  Uiso   1.00
H52    H     0.18035   0.28326   0.41932   0.00000  Uiso   1.00
H53    H     0.15061   0.25878   0.37537   0.00000  Uiso   1.00
H54    H     0.26518   0.27291   0.20591   0.00000  Uiso   1.00
H55    H     0.29695   0.01750   0.20354   0.00000  Uiso   1.00
H56    H     0.33157   0.30625   0.20578   0.00000  Uiso   1.00
H57    H     0.30263   0.00010   0.26658   0.00000  Uiso   1.00
H58    H     0.28590   0.22961   0.27498   0.00000  Uiso   1.00
H59    H     0.27775   0.19415   0.40586   0.00000  Uiso   1.00
H60    H     0.13947   0.18990   0.09434   0.00000  Uiso   1.00
H61    H     0.05131   0.17258   0.41894   0.00000  Uiso   1.00
H62    H     0.08348   0.17724   0.06332   0.00000  Uiso   1.00
H63    H     0.02578   0.17767   0.01653   0.00000  Uiso   1.00
H64    H     0.03943   0.06964   0.22530   0.00000  Uiso   1.00
N65    N     0.04760   0.16668   0.25001   0.00000  Uiso   1.00
N66    N     0.25780   0.29598   0.23535   0.00000  Uiso   1.00
N67    N     0.28573   0.16665   0.25000   0.00000  Uiso   1.00
N68    N     0.31070   0.11790   0.09637   0.00000  Uiso   1.00
N69    N     0.24048   0.05547   0.33083   0.00000  Uiso   1.00
N70    N     0.08905   0.27290   0.16639   0.00000  Uiso   1.00
N71    N     0.05578   0.09731   0.20962   0.00000  Uiso   1.00
N72    N     0.03729   0.23768   0.28680   0.00000  Uiso   1.00
N73    N     0.30290   0.13420   0.46526   0.00000  Uiso   1.00
N74    N     0.21725   0.23401   0.36975   0.00000  Uiso   1.00
O75    O     0.12846   0.22775   0.25000   0.00000  Uiso   1.00
O76    O     0.20490   0.22774   0.25000   0.00000  Uiso   1.00
O77    O     0.10947   0.16666   0.32681   0.00000  Uiso   1.00
O78    O     0.18591   0.16665   0.32681   0.00000  Uiso   1.00
O79    O     0.12843   0.10559   0.25000   0.00000  Uiso   1.00
O80    O     0.20488   0.10558   0.25000   0.00000  Uiso   1.00
O81    O     0.14742   0.16668   0.17319   0.00000  Uiso   1.00
O82    O     0.22387   0.16667   0.17319   0.00000  Uiso   1.00
Zn83   Zn    0.11562   0.16667   0.25000   0.00000  Uiso   1.00
Zn84   Zn    0.21771   0.16666   0.25000   0.00000  Uiso   1.00
C85    C     0.50266   0.24627   0.24360   0.00000  Uiso   1.00
C86    C     0.45879   0.18064   0.40918   0.00000  Uiso   1.00
C87    C     0.54498   0.31356   0.24515   0.00000  Uiso   1.00
C88    C     0.47425   0.17081   0.35150   0.00000  Uiso   1.00
C89    C     0.53475   0.02109   0.26388   0.00000  Uiso   1.00
C90    C     0.49974   0.04189   0.24953   0.00000  Uiso   1.00
C91    C     0.47117   0.02056   0.22409   0.00000  Uiso   1.00
C92    C     0.47415   0.31117   0.21711   0.00000  Uiso   1.00
C93    C     0.50825   0.29049   0.23308   0.00000  Uiso   1.00
C94    C     0.64630   0.13223   0.23322   0.00000  Uiso   1.00
C95    C     0.36119   0.13251   0.23156   0.00000  Uiso   1.00
C96    C     0.47862   0.18423   0.49144   0.00000  Uiso   1.00
C97    C     0.35298   0.20129   0.26697   0.00000  Uiso   1.00
C98    C     0.63938   0.20146   0.26472   0.00000  Uiso   1.00
C99    C     0.49909   0.08659   0.25170   0.00000  Uiso   1.00
C100   C     0.52587   0.16577   0.14829   0.00000  Uiso   1.00
C101   C     0.59501   0.15374   0.00054   0.00000  Uiso   1.00
C102   C     0.54031   0.16573   0.09014   0.00000  Uiso   1.00
C103   C     0.41076   0.17760   0.43873   0.00000  Uiso   1.00
C104   C     0.39630   0.17963   0.49413   0.00000  Uiso   1.00
C105   C     0.42986   0.18078   0.02064   0.00000  Uiso   1.00
C106   C     0.61745   0.13264   0.07862   0.00000  Uiso   1.00
C107   C     0.49198   0.18999   0.43616   0.00000  Uiso   1.00
C108   C     0.55665   0.04015   0.30102   0.00000  Uiso   1.00
C109   C     0.44523   0.28992   0.18912   0.00000  Uiso   1.00
C110   C     0.40547   0.09542   0.15188   0.00000  Uiso   1.00
C111   C     0.36565   0.23756   0.34302   0.00000  Uiso   1.00
C112   C     0.63817   0.08905   0.46788   0.00000  Uiso   1.00
C113   C     0.51866   0.26888   0.37913   0.00000  Uiso   1.00
C114   C     0.63226   0.32344   0.22756   0.00000  Uiso   1.00
C115   C     0.51510   0.17877   0.01398   0.00000  Uiso   1.00
C116   C     0.56206   0.17277   0.48034   0.00000  Uiso   1.00
C117   C     0.57452   0.18871   0.42892   0.00000  Uiso   1.00
C118   C     0.53914   0.20313   0.41002   0.00000  Uiso   1.00
C119   C     0.50618   0.17849   0.06837   0.00000  Uiso   1.00
C120   C     0.58416   0.15099   0.05645   0.00000  Uiso   1.00
H121   H     0.44664   0.03700   0.20978   0.00000  Uiso   1.00
H122   H     0.37550   0.08759   0.13664   0.00000  Uiso   1.00
H123   H     0.43242   0.07081   0.13758   0.00000  Uiso   1.00
H124   H     0.42182   0.12569   0.13545   0.00000  Uiso   1.00
H125   H     0.36005   0.26540   0.27559   0.00000  Uiso   1.00
H126   H     0.33477   0.25645   0.36608   0.00000  Uiso   1.00
H127   H     0.39806   0.25148   0.34932   0.00000  Uiso   1.00
H128   H     0.36048   0.20538   0.35844   0.00000  Uiso   1.00
H129   H     0.64754   0.14396   0.42651   0.00000  Uiso   1.00
H130   H     0.33782   0.08079   0.47598   0.00000  Uiso   1.00
H131   H     0.63855   0.07420   0.42916   0.00000  Uiso   1.00
H132   H     0.63131   0.10473   0.21936   0.00000  Uiso   1.00
H133   H     0.60731   0.07581   0.49951   0.00000  Uiso   1.00
H134   H     0.58527   0.24438   0.35968   0.00000  Uiso   1.00
H135   H     0.53388   0.29300   0.34903   0.00000  Uiso   1.00
H136   H     0.51368   0.28326   0.41932   0.00000  Uiso   1.00
H137   H     0.48394   0.25878   0.37537   0.00000  Uiso   1.00
H138   H     0.59851   0.27291   0.20591   0.00000  Uiso   1.00
H139   H     0.63028   0.01750   0.20354   0.00000  Uiso   1.00
H140   H     0.66491   0.30625   0.20578   0.00000  Uiso   1.00
H141   H     0.63596   0.00010   0.26658   0.00000  Uiso   1.00
H142   H     0.61923   0.22961   0.27498   0.00000  Uiso   1.00
H143   H     0.61109   0.19415   0.40586   0.00000  Uiso   1.00
H144   H     0.47281   0.18990   0.09434   0.00000  Uiso   1.00
H145   H     0.38464   0.17258   0.41894   0.00000  Uiso   1.00
H146   H     0.41681   0.17724   0.06332   0.00000  Uiso   1.00
H147   H     0.35911   0.17767   0.01653   0.00000  Uiso   1.00
H148   H     0.37276   0.06964   0.22530   0.00000  Uiso   1.00
N149   N     0.38093   0.16668   0.25001   0.00000  Uiso   1.00
N150   N     0.59113   0.29598   0.23535   0.00000  Uiso   1.00
N151   N     0.61906   0.16665   0.25000   0.00000  Uiso   1.00
N152   N     0.64403   0.11790   0.09637   0.00000  Uiso   1.00
N153   N     0.57381   0.05547   0.33083   0.00000  Uiso   1.00
N154   N     0.42239   0.27290   0.16639   0.00000  Uiso   1.00
N155   N     0.38912   0.09731   0.20962   0.00000  Uiso   1.00
N156   N     0.37062   0.23768   0.28680   0.00000  Uiso   1.00
N157   N     0.63624   0.13420   0.46526   0.00000  Uiso   1.00
N158   N     0.55058   0.23401   0.36975   0.00000  Uiso   1.00
O159   O     0.46179   0.22775   0.25000   0.00000  Uiso   1.00
O160   O     0.53823   0.22774   0.25000   0.00000  Uiso   1.00
O161   O     0.44280   0.16666   0.32681   0.00000  Uiso   1.00
O162   O     0.51924   0.16665   0.32681   0.00000  Uiso   1.00
O163   O     0.46177   0.10559   0.25000   0.00000  Uiso   1.00
O164   O     0.53821   0.10558   0.25000   0.00000  Uiso   1.00
O165   O     0.48076   0.16668   0.17319   0.00000  Uiso   1.00
O166   O     0.55720   0.16667   0.17319   0.00000  Uiso   1.00
Zn167  Zn    0.44896   0.16667   0.25000   0.00000  Uiso   1.00
Zn168  Zn    0.55104   0.16666   0.25000   0.00000  Uiso   1.00
C169   C     0.83600   0.24627   0.24360   0.00000  Uiso   1.00
C170   C     0.79212   0.18064   0.40918   0.00000  Uiso   1.00
C171   C     0.87832   0.31356   0.24515   0.00000  Uiso   1.00
C172   C     0.80758   0.17081   0.35150   0.00000  Uiso   1.00
C173   C     0.86808   0.02109   0.26388   0.00000  Uiso   1.00
C174   C     0.83307   0.04189   0.24953   0.00000  Uiso   1.00
C175   C     0.80451   0.02056   0.22409   0.00000  Uiso   1.00
C176   C     0.80748   0.31117   0.21711   0.00000  Uiso   1.00
C177   C     0.84158   0.29049   0.23308   0.00000  Uiso   1.00
C178   C     0.97963   0.13223   0.23322   0.00000  Uiso   1.00
C179   C     0.69452   0.13251   0.23156   0.00000  Uiso   1.00
C180   C     0.81195   0.18423   0.49144   0.00000  Uiso   1.00
C181   C     0.68632   0.20129   0.26697   0.00000  Uiso   1.00
C182   C     0.97271   0.20146   0.26472   0.00000  Uiso   1.00
C183   C     0.83242   0.08659   0.25170   0.00000  Uiso   1.00
C184   C     0.85921   0.16577   0.14829   0.00000  Uiso   1.00
C185   C     0.92834   0.15374   0.00054   0.00000  Uiso   1.00
C186   C     0.87364   0.16573   0.09014   0.00000  Uiso   1.00
C187   C     0.74409   0.17760   0.43873   0.00000  Uiso   1.00
C188   C     0.72963   0.17963   0.49413   0.00000  Uiso   1.00
C189   C     0.76320   0.18078   0.02064   0.00000  Uiso   1.00
C190   C     0.95079   0.13264   0.07862   0.00000  Uiso   1.00
C191   C     0.82531   0.18999   0.43616   0.00000  Uiso   1.00
C192   C     0.88998   0.04015   0.30102   0.00000  Uiso   1.00
C193   C     0.77856   0.28992   0.18912   0.00000  Uiso   1.00
C194   C     0.73880   0.09542   0.15188   0.00000  Uiso   1.00
C195   C     0.69899   0.23756   0.34302   0.00000  Uiso   1.00
C196   C     0.97150   0.08905   0.46788   0.00000  Uiso   1.00
C197   C     0.85199   0.26888   0.37913   0.00000  Uiso   1.00
C198   C     0.96560   0.32344   0.22756   0.00000  Uiso   1.00
C199   C     0.84843   0.17877   0.01398   0.00000  Uiso   1.00
C200   C     0.89539   0.17277   0.48034   0.00000  Uiso   1.00
C201   C     0.90785   0.18871   0.42892   0.00000  Uiso   1.00
C202   C     0.87248   0.20313   0.41002   0.00000  Uiso   1.00
C203   C     0.83951   0.17849   0.06837   0.00000  Uiso   1.00
C204   C     0.91749   0.15099   0.05645   0.00000  Uiso   1.00
H205   H     0.77998   0.03700   0.20978   0.00000  Uiso   1.00
H206   H     0.70884   0.08759   0.13664   0.00000  Uiso   1.00
H207   H     0.76575   0.07081   0.13758   0.00000  Uiso   1.00
H208   H     0.75515   0.12569   0.13545   0.00000  Uiso   1.00
H209   H     0.69338   0.26540   0.27559   0.00000  Uiso   1.00
H210   H     0.66811   0.25645   0.36608   0.00000  Uiso   1.00
H211   H     0.73139   0.25148   0.34932   0.00000  Uiso   1.00
H212   H     0.69381   0.20538   0.35844   0.00000  Uiso   1.00
H213   H     0.98088   0.14396   0.42651   0.00000  Uiso   1.00
H214   H     0.67115   0.08079   0.47598   0.00000  Uiso   1.00
H215   H     0.97188   0.07420   0.42916   0.00000  Uiso   1.00
H216   H     0.96464   0.10473   0.21936   0.00000  Uiso   1.00
H217   H     0.94064   0.07581   0.49951   0.00000  Uiso   1.00
H218   H     0.91860   0.24438   0.35968   0.00000  Uiso   1.00
H219   H     0.86721   0.29300   0.34903   0.00000  Uiso   1.00
H220   H     0.84702   0.28326   0.41932   0.00000  Uiso   1.00
H221   H     0.81727   0.25878   0.37537   0.00000  Uiso   1.00
H222   H     0.93185   0.27291   0.20591   0.00000  Uiso   1.00
H223   H     0.96362   0.01750   0.20354   0.00000  Uiso   1.00
H224   H     0.99824   0.30625   0.20578   0.00000  Uiso   1.00
H225   H     0.96930   0.00010   0.26658   0.00000  Uiso   1.00
H226   H     0.95256   0.22961   0.27498   0.00000  Uiso   1.00
H227   H     0.94442   0.19415   0.40586   0.00000  Uiso   1.00
H228   H     0.80614   0.18990   0.09434   0.00000  Uiso   1.00
H229   H     0.71798   0.17258   0.41894   0.00000  Uiso   1.00
H230   H     0.75014   0.17724   0.06332   0.00000  Uiso   1.00
H231   H     0.69245   0.17767   0.01653   0.00000  Uiso   1.00
H232   H     0.70609   0.06964   0.22530   0.00000  Uiso   1.00
N233   N     0.71426   0.16668   0.25001   0.00000  Uiso   1.00
N234   N     0.92447   0.29598   0.23535   0.00000  Uiso   1.00
N235   N     0.95239   0.16665   0.25000   0.00000  Uiso   1.00
N236   N     0.97736   0.11790   0.09637   0.00000  Uiso   1.00
N237   N     0.90715   0.05547   0.33083   0.00000  Uiso   1.00
N238   N     0.75572   0.27290   0.16639   0.00000  Uiso   1.00
N239   N     0.72245   0.09731   0.20962   0.00000  Uiso   1.00
N240   N     0.70395   0.23768   0.28680   0.00000  Uiso   1.00
N241   N     0.96957   0.13420   0.46526   0.00000  Uiso   1.00
N242   N     0.88391   0.23401   0.36975   0.00000  Uiso   1.00
O243   O     0.79512   0.22775   0.25000   0.00000  Uiso   1.00
O244   O     0.87157   0.22774   0.25000   0.00000  Uiso   1.00
O245   O     0.77613   0.16666   0.32681   0.00000  Uiso   1.00
O246   O     0.85258   0.16665   0.32681   0.00000  Uiso   1.00
O247   O     0.79510   0.10559   0.25000   0.00000  Uiso   1.00
O248   O     0.87154   0.10558   0.25000   0.00000  Uiso   1.00
O249   O     0.81409   0.16668   0.17319   0.00000  Uiso   1.00
O250   O     0.89053   0.16667   0.17319   0.00000  Uiso   1.00
Zn251  Zn    0.78229   0.16667   0.25000   0.00000  Uiso   1.00
Zn252  Zn    0.88438   0.16666   0.25000   0.00000  Uiso   1.00
C253   C     0.16933   0.57961   0.24360   0.00000  Uiso   1.00
C254   C     0.12546   0.51397   0.40918   0.00000  Uiso   1.00
C255   C     0.21165   0.64689   0.24515   0.00000  Uiso   1.00
C256   C     0.14092   0.50415   0.35150   0.00000  Uiso   1.00
C257   C     0.20142   0.35442   0.26388   0.00000  Uiso   1.00
C258   C     0.16641   0.37522   0.24953   0.00000  Uiso   1.00
C259   C     0.13784   0.35389   0.22409   0.00000  Uiso   1.00
C260   C     0.14081   0.64450   0.21711   0.00000  Uiso   1.00
C261   C     0.17492   0.62382   0.23308   0.00000  Uiso   1.00
C262   C     0.31296   0.46557   0.23322   0.00000  Uiso   1.00
C263   C     0.02786   0.46585   0.23156   0.00000  Uiso   1.00
C264   C     0.14529   0.51757   0.49144   0.00000  Uiso   1.00
C265   C     0.01965   0.53463   0.26697   0.00000  Uiso   1.00
C266   C     0.30605   0.53480   0.26472   0.00000  Uiso   1.00
C267   C     0.16575   0.41992   0.25170   0.00000  Uiso   1.00
C268   C     0.19254   0.49910   0.14829   0.00000  Uiso   1.00
C269   C     0.26168   0.48708   0.00054   0.00000  Uiso   1.00
C270   C     0.20697   0.49907   0.09014   0.00000  Uiso   1.00
C271   C     0.07742   0.51093   0.43873   0.00000  Uiso   1.00
C272   C     0.06296   0.51296   0.49413   0.00000  Uiso   1.00
C273   C     0.09653   0.51412   0.02064   0.00000  Uiso   1.00
C274   C     0.28412   0.46597   0.07862   0.00000  Uiso   1.00
C275   C     0.15864   0.52332   0.43616   0.00000  Uiso   1.00
C276   C     0.22332   0.37349   0.30102   0.00000  Uiso   1.00
C277   C     0.11189   0.62326   0.18912   0.00000  Uiso   1.00
C278   C     0.07214   0.42875   0.15188   0.00000  Uiso   1.00
C279   C     0.03232   0.57089   0.34302   0.00000  Uiso   1.00
C280   C     0.30484   0.42239   0.46788   0.00000  Uiso   1.00
C281   C     0.18533   0.60221   0.37913   0.00000  Uiso   1.00
C282   C     0.29893   0.65677   0.22756   0.00000  Uiso   1.00
C283   C     0.18176   0.51211   0.01398   0.00000  Uiso   1.00
C284   C     0.22873   0.50610   0.48034   0.00000  Uiso   1.00
C285   C     0.24119   0.52205   0.42892   0.00000  Uiso   1.00
C286   C     0.20581   0.53647   0.41002   0.00000  Uiso   1.00
C287   C     0.17284   0.51182   0.06837   0.00000  Uiso   1.00
C288   C     0.25083   0.48433   0.05645   0.00000  Uiso   1.00
H289   H     0.11331   0.37033   0.20978   0.00000  Uiso   1.00
H290   H     0.04217   0.42092   0.13664   0.00000  Uiso   1.00
H291   H     0.09908   0.40414   0.13758   0.00000  Uiso   1.00
H292   H     0.08848   0.45903   0.13545   0.00000  Uiso   1.00
H293   H     0.02671   0.59873   0.27559   0.00000  Uiso   1.00
H294   H     0.00144   0.58979   0.36608   0.00000  Uiso   1.00
H295   H     0.06472   0.58481   0.34932   0.00000  Uiso   1.00
H296   H     0.02714   0.53871   0.35844   0.00000  Uiso   1.00
H297   H     0.31421   0.47729   0.42651   0.00000  Uiso   1.00
H298   H     0.00448   0.41412   0.47598   0.00000  Uiso   1.00
H299   H     0.30522   0.40754   0.42916   0.00000  Uiso   1.00
H300   H     0.29798   0.43806   0.21936   0.00000  Uiso   1.00
H301   H     0.27397   0.40915   0.49951   0.00000  Uiso   1.00
H302   H     0.25194   0.57772   0.35968   0.00000  Uiso   1.00
H303   H     0.20054   0.62633   0.34903   0.00000  Uiso   1.00
H304   H     0.18035   0.61659   0.41932   0.00000  Uiso   1.00
H305   H     0.15061   0.59212   0.37537   0.00000  Uiso   1.00
H306   H     0.26518   0.60624   0.20591   0.00000  Uiso   1.00
H307   H     0.29695   0.35084   0.20354   0.00000  Uiso   1.00
H308   H     0.33157   0.63958   0.20578   0.00000  Uiso   1.00
H309   H     0.30263   0.33344   0.26658   0.00000  Uiso   1.00
H310   H     0.28590   0.56294   0.27498   0.00000  Uiso   1.00
H311   H     0.27775   0.52748   0.40586   0.00000  Uiso   1.00
H312   H     0.13947   0.52324   0.09434   0.00000  Uiso   1.00
H313   H     0.05131   0.50591   0.41894   0.00000  Uiso   1.00
H314   H     0.08348   0.51057   0.06332   0.00000  Uiso   1.00
H315   H     0.02578   0.51100   0.01653   0.00000  Uiso   1.00
H316   H     0.03943   0.40297   0.22530   0.00000  Uiso   1.00
N317   N     0.04760   0.50001   0.25001   0.00000  Uiso   1.00
N318   N     0.25780   0.62931   0.23535   0.00000  Uiso   1.00
N319   N     0.28573   0.49998   0.25000   0.00000  Uiso   1.00
N320   N     0.31070   0.45123   0.09637   0.00000  Uiso   1.00
N321   N     0.24048   0.38881   0.33083   0.00000  Uiso   1.00
N322   N     0.08905   0.60623   0.16639   0.00000  Uiso   1.00
N323   N     0.05578   0.43064   0.20962   0.00000  Uiso   1.00
N324   N     0.03729   0.57101   0.28680   0.00000  Uiso   1.00
N325   N     0.30290   0.46753   0.46526   0.00000  Uiso   1.00
N326   N     0.21725   0.56734   0.36975   0.00000  Uiso   1.00
O327   O     0.12846   0.56108   0.25000   0.00000  Uiso   1.00
O328   O     0.20490   0.56107   0.25000   0.00000  Uiso   1.00
O329   O     0.10947   0.50000   0.32681   0.00000  Uiso   1.00
O330   O     0.18591   0.49999   0.32681   0.00000  Uiso   1.00
O331   O     0.12843   0.43893   0.25000   0.00000  Uiso   1.00
O332   O     0.20488   0.43892   0.25000   0.00000  Uiso   1.00
O333   O     0.14742   0.50001   0.17319   0.00000  Uiso   1.00
O334   O     0.22387   0.50000   0.17319   0.00000  Uiso   1.00
Zn335  Zn    0.11562   0.50001   0.25000   0.00000  Uiso   1.00
Zn336  Zn    0.21771   0.49999   0.25000   0.00000  Uiso   1.00
C337   C     0.50266   0.57961   0.24360   0.00000  Uiso   1.00
C338   C     0.45879   0.51397   0.40918   0.00000  Uiso   1.00
C339   C     0.54498   0.64689   0.24515   0.00000  Uiso   1.00
C340   C     0.47425   0.50415   0.35150   0.00000  Uiso   1.00
C341   C     0.53475   0.35442   0.26388   0.00000  Uiso   1.00
C342   C     0.49974   0.37522   0.24953   0.00000  Uiso   1.00
C343   C     0.47117   0.35389   0.22409   0.00000  Uiso   1.00
C344   C     0.47415   0.64450   0.21711   0.00000  Uiso   1.00
C345   C     0.50825   0.62382   0.23308   0.00000  Uiso   1.00
C346   C     0.64630   0.46557   0.23322   0.00000  Uiso   1.00
C347   C     0.36119   0.46585   0.23156   0.00000  Uiso   1.00
C348   C     0.47862   0.51757   0.49144   0.00000  Uiso   1.00
C349   C     0.35298   0.53463   0.26697   0.00000  Uiso   1.00
C350   C     0.63938   0.53480   0.26472   0.00000  Uiso   1.00
C351   C     0.49909   0.41992   0.25170   0.00000  Uiso   1.00
C352   C     0.52587   0.49910   0.14829   0.00000  Uiso   1.00
C353   C     0.59501   0.48708   0.00054   0.00000  Uiso   1.00
C354   C     0.54031   0.49907   0.09014   0.00000  Uiso   1.00
C355   C     0.41076   0.51093   0.43873   0.00000  Uiso   1.00
C356   C     0.39630   0.51296   0.49413   0.00000  Uiso   1.00
C357   C     0.42986   0.51412   0.02064   0.00000  Uiso   1.00
C358   C     0.61745   0.46597   0.07862   0.00000  Uiso   1.00
C359   C     0.49198   0.52332   0.43616   0.00000  Uiso   1.00
C360   C     0.55665   0.37349   0.30102   0.00000  Uiso   1.00
C361   C     0.44523   0.62326   0.18912   0.00000  Uiso   1.00
C362   C     0.40547   0.42875   0.15188   0.00000  Uiso   1.00
C363   C     0.36565   0.57089   0.34302   0.00000  Uiso   1.00
C364   C     0.63817   0.42239   0.46788   0.00000  Uiso   1.00
C365   C     0.51866   0.60221   0.37913   0.00000  Uiso   1.00
C366   C     0.63226   0.65677   0.22756   0.00000  Uiso   1.00
C367   C     0.51510   0.51211   0.01398   0.00000  Uiso   1.00
C368   C     0.56206   0.50610   0.48034   0.00000  Uiso   1.00
C369   C     0.57452   0.52205   0.42892   0.00000  Uiso   1.00
C370   C     0.53914   0.53647   0.41002   0.00000  Uiso   1.00
C371   C     0.50618   0.51182   0.06837   0.00000  Uiso   1.00
C372   C     0.58416   0.48433   0.05645   0.00000  Uiso   1.00
H373   H     0.44664   0.37033   0.20978   0.00000  Uiso   1.00
H374   H     0.37550   0.42092   0.13664   0.00000  Uiso   1.00
H375   H     0.43242   0.40414   0.13758   0.00000  Uiso   1.00
H376   H     0.42182   0.45903   0.13545   0.00000  Uiso   1.00
H377   H     0.36005   0.59873   0.27559   0.00000  Uiso   1.00
H378   H     0.33477   0.58979   0.36608   0.00000  Uiso   1.00
H379   H     0.39806   0.58481   0.34932   0.00000  Uiso   1.00
H380   H     0.36048   0.53871   0.35844   0.00000  Uiso   1.00
H381   H     0.64754   0.47729   0.42651   0.00000  Uiso   1.00
H382   H     0.33782   0.41412   0.47598   0.00000  Uiso   1.00
H383   H     0.63855   0.40754   0.42916   0.00000  Uiso   1.00
H384   H     0.63131   0.43806   0.21936   0.00000  Uiso   1.00
H385   H     0.60731   0.40915   0.49951   0.00000  Uiso   1.00
H386   H     0.58527   0.57772   0.35968   0.00000  Uiso   1.00
H387   H     0.53388   0.62633   0.34903   0.00000  Uiso   1.00
H388   H     0.51368   0.61659   0.41932   0.00000  Uiso   1.00
H389   H     0.48394   0.59212   0.37537   0.00000  Uiso   1.00
H390   H     0.59851   0.60624   0.20591   0.00000  Uiso   1.00
H391   H     0.63028   0.35084   0.20354   0.00000  Uiso   1.00
H392   H     0.66491   0.63958   0.20578   0.00000  Uiso   1.00
H393   H     0.63596   0.33344   0.26658   0.00000  Uiso   1.00
H394   H     0.61923   0.56294   0.27498   0.00000  Uiso   1.00
H395   H     0.61109   0.52748   0.40586   0.00000  Uiso   1.00
H396   H     0.47281   0.52324   0.09434   0.00000  Uiso   1.00
H397   H     0.38464   0.50591   0.41894   0.00000  Uiso   1.00
H398   H     0.41681   0.51057   0.06332   0.00000  Uiso   1.00
H399   H     0.35911   0.51100   0.01653   0.00000  Uiso   1.00
H400   H     0.37276   0.40297   0.22530   0.00000  Uiso   1.00
N401   N     0.38093   0.50001   0.25001   0.00000  Uiso   1.00
N402   N     0.59113   0.62931   0.23535   0.00000  Uiso   1.00
N403   N     0.61906   0.49998   0.25000   0.00000  Uiso   1.00
N404   N     0.64403   0.45123   0.09637   0.00000  Uiso   1.00
N405   N     0.57381   0.38881   0.33083   0.00000  Uiso   1.00
N406   N     0.42239   0.60623   0.16639   0.00000  Uiso   1.00
N407   N     0.38912   0.43064   0.20962   0.00000  Uiso   1.00
N408   N     0.37062   0.57101   0.28680   0.00000  Uiso   1.00
N409   N     0.63624   0.46753   0.46526   0.00000  Uiso   1.00
N410   N     0.55058   0.56734   0.36975   0.00000  Uiso   1.00
O411   O     0.46179   0.56108   0.25000   0.00000  Uiso   1.00
O412   O     0.53823   0.56107   0.25000   0.00000  Uiso   1.00
O413   O     0.44280   0.50000   0.32681   0.00000  Uiso   1.00
O414   O     0.51924   0.49999   0.32681   0.00000  Uiso   1.00
O415   O     0.46177   0.43893   0.25000   0.00000  Uiso   1.00
O416   O     0.53821   0.43892   0.25000   0.00000  Uiso   1.00
O417   O     0.48076   0.50001   0.17319   0.00000  Uiso   1.00
O418   O     0.55720   0.50000   0.17319   0.00000  Uiso   1.00
Zn419  Zn    0.44896   0.50001   0.25000   0.00000  Uiso   1.00
Zn420  Zn    0.55104   0.49999   0.25000   0.00000  Uiso   1.00
C421   C     0.83600   0.57961   0.24360   0.00000  Uiso   1.00
C422   C     0.79212   0.51397   0.40918   0.00000  Uiso   1.00
C423   C     0.87832   0.64689   0.24515   0.00000  Uiso   1.00
C424   C     0.80758   0.50415   0.35150   0.00000  Uiso   1.00
C425   C     0.86808   0.35442   0.26388   0.00000  Uiso   1.00
C426   C     0.83307   0.37522   0.24953   0.00000  Uiso   1.00
C427   C     0.80451   0.35389   0.22409   0.00000  Uiso   1.00
C428   C     0.80748   0.64450   0.21711   0.00000  Uiso   1.00
C429   C     0.84158   0.62382   0.23308   0.00000  Uiso   1.00
C430   C     0.97963   0.46557   0.23322   0.00000  Uiso   1.00
C431   C     0.69452   0.46585   0.23156   0.00000  Uiso   1.00
C432   C     0.81195   0.51757   0.49144   0.00000  Uiso   1.00
C433   C     0.68632   0.53463   0.26697   0.00000  Uiso   1.00
C434   C     0.97271   0.53480   0.26472   0.00000  Uiso   1.00
C435   C     0.83242   0.41992   0.25170   0.00000  Uiso   1.00
C436   C     0.85921   0.49910   0.14829   0.00000  Uiso   1.00
C437   C     0.92834   0.48708   0.00054   0.00000  Uiso   1.00
C438   C     0.87364   0.49907   0.09014   0.00000  Uiso   1.00
C439   C     0.74409   0.51093   0.43873   0.00000  Uiso   1.00
C440   C     0.72963   0.51296   0.49413   0.00000  Uiso   1.00
C441   C     0.76320   0.51412   0.02064   0.00000  Uiso   1.00
C442   C     0.95079   0.46597   0.07862   0.00000  Uiso   1.00
C443   C     0.82531   0.52332   0.43616   0.00000  Uiso   1.00
C444   C     0.88998   0.37349   0.30102   0.00000  Uiso   1.00
C445   C     0.77856   0.62326   0.18912   0.00000  Uiso   1.00
C446   C     0.73880   0.42875   0.15188   0.00000  Uiso   1.00
C447   C     0.69899   0.57089   0.34302   0.00000  Uiso   1.00
C448   C     0.97150   0.42239   0.46788   0.00000  Uiso   1.00
C449   C     0.85199   0.60221   0.37913   0.00000  Uiso   1.00
C450   C     0.96560   0.65677   0.22756   0.00000  Uiso   1.00
C451   C     0.84843   0.51211   0.01398   0.00000  Uiso   1.00
C452   C     0.89539   0.50610   0.48034   0.00000  Uiso   1.00
C453   C     0.90785   0.52205   0.42892   0.00000  Uiso   1.00
C454   C     0.87248   0.53647   0.41002   0.00000  Uiso   1.00
C455   C     0.83951   0.51182   0.06837   0.00000  Uiso   1.00
C456   C     0.91749   0.48433   0.05645   0.00000  Uiso   1.00
H457   H     0.77998   0.37033   0.20978   0.00000  Uiso   1.00
H458   H     0.70884   0.42092   0.13664   0.00000  Uiso   1.00
H459   H     0.76575   0.40414   0.13758   0.00000  Uiso   1.00
H460   H     0.75515   0.45903   0.13545   0.00000  Uiso   1.00
H461   H     0.69338   0.59873   0.27559   0.00000  Uiso   1.00
H462   H     0.66811   0.58979   0.36608   0.00000  Uiso   1.00
H463   H     0.73139   0.58481   0.34932   0.00000  Uiso   1.00
H464   H     0.69381   0.53871   0.35844   0.00000  Uiso   1.00
H465   H     0.98088   0.47729   0.42651   0.00000  Uiso   1.00
H466   H     0.67115   0.41412   0.47598   0.00000  Uiso   1.00
H467   H     0.97188   0.40754   0.42916   0.00000  Uiso   1.00
H468   H     0.96464   0.43806   0.21936   0.00000  Uiso   1.00
H469   H     0.94064   0.40915   0.49951   0.00000  Uiso   1.00
H470   H     0.91860   0.57772   0.35968   0.00000  Uiso   1.00
H471   H     0.86721   0.62633   0.34903   0.00000  Uiso   1.00
H472   H     0.84702   0.61659   0.41932   0.00000  Uiso   1.00
H473   H     0.81727   0.59212   0.37537   0.00000  Uiso   1.00
H474   H     0.93185   0.60624   0.20591   0.00000  Uiso   1.00
H475   H     0.96362   0.35084   0.20354   0.00000  Uiso   1.00
H476   H     0.99824   0.63958   0.20578   0.00000  Uiso   1.00
H477   H     0.96930   0.33344   0.26658   0.00000  Uiso   1.00
H478   H     0.95256   0.56294   0.27498   0.00000  Uiso   1.00
H479   H     0.94442   0.52748   0.40586   0.00000  Uiso   1.00
H480   H     0.80614   0.52324   0.09434   0.00000  Uiso   1.00
H481   H     0.71798   0.50591   0.41894   0.00000  Uiso   1.00
H482   H     0.75014   0.51057   0.06332   0.00000  Uiso   1.00
H483   H     0.69245   0.51100   0.01653   0.00000  Uiso   1.00
H484   H     0.70609   0.40297   0.22530   0.00000  Uiso   1.00
N485   N     0.71426   0.50001   0.25001   0.00000  Uiso   1.00
N486   N     0.92447   0.62931   0.23535   0.00000  Uiso   1.00
N487   N     0.95239   0.49998   0.25000   0.00000  Uiso   1.00
N488   N     0.97736   0.45123   0.09637   0.00000  Uiso   1.00
N489   N     0.90715   0.38881   0.33083   0.00000  Uiso   1.00
N490   N     0.75572   0.60623   0.16639   0.00000  Uiso   1.00
N491   N     0.72245   0.43064   0.20962   0.00000  Uiso   1.00
N492   N     0.70395   0.57101   0.28680   0.00000  Uiso   1.00
N493   N     0.96957   0.46753   0.46526   0.00000  Uiso   1.00
N494   N     0.88391   0.56734   0.36975   0.00000  Uiso   1.00
O495   O     0.79512   0.56108   0.25000   0.00000  Uiso   1.00
O496   O     0.87157   0.56107   0.25000   0.00000  Uiso   1.00
O497   O     0.77613   0.50000   0.32681   0.00000  Uiso   1.00
O498   O     0.85258   0.49999   0.32681   0.00000  Uiso   1.00
O499   O     0.79510   0.43893   0.25000   0.00000  Uiso   1.00
O500   O     0.87154   0.43892   0.25000   0.00000  Uiso   1.00
O501   O     0.81409   0.50001   0.17319   0.00000  Uiso   1.00
O502   O     0.89053   0.50000   0.17319   0.00000  Uiso   1.00
Zn503  Zn    0.78229   0.50001   0.25000   0.00000  Uiso   1.00
Zn504  Zn    0.88438   0.49999   0.25000   0.00000  Uiso   1.00
C505   C     0.16933   0.91294   0.24360   0.00000  Uiso   1.00
C506   C     0.12546   0.84730   0.40918   0.00000  Uiso   1.00
C507   C     0.21165   0.98022   0.24515   0.00000  Uiso   1.00
C508   C     0.14092   0.83748   0.35150   0.00000  Uiso   1.00
C509   C     0.20142   0.68776   0.26388   0.00000  Uiso   1.00
C510   C     0.16641   0.70855   0.24953   0.00000  Uiso   1.00
C511   C     0.13784   0.68723   0.22409   0.00000  Uiso   1.00
C512   C     0.14081   0.97783   0.21711   0.00000  Uiso   1.00
C513   C     0.17492   0.95715   0.23308   0.00000  Uiso   1.00
C514   C     0.31296   0.79890   0.23322   0.00000  Uiso   1.00
C515   C     0.02786   0.79918   0.23156   0.00000  Uiso   1.00
C516   C     0.14529   0.85090   0.49144   0.00000  Uiso   1.00
C517   C     0.01965   0.86796   0.26697   0.00000  Uiso   1.00
C518   C     0.30605   0.86813   0.26472   0.00000  Uiso   1.00
C519   C     0.16575   0.75325   0.25170   0.00000  Uiso   1.00
C520   C     0.19254   0.83243   0.14829   0.00000  Uiso   1.00
C521   C     0.26168   0.82041   0.00054   0.00000  Uiso   1.00
C522   C     0.20697   0.83240   0.09014   0.00000  Uiso   1.00
C523   C     0.07742   0.84427   0.43873   0.00000  Uiso   1.00
C524   C     0.06296   0.84630   0.49413   0.00000  Uiso   1.00
C525   C     0.09653   0.84745   0.02064   0.00000  Uiso   1.00
C526   C     0.28412   0.79931   0.07862   0.00000  Uiso   1.00
C527   C     0.15864   0.85665   0.43616   0.00000  Uiso   1.00
C528   C     0.22332   0.70682   0.30102   0.00000  Uiso   1.00
C529   C     0.11189   0.95659   0.18912   0.00000  Uiso   1.00
C530   C     0.07214   0.76209   0.15188   0.00000  Uiso   1.00
C531   C     0.03232   0.90423   0.34302   0.00000  Uiso   1.00
C532   C     0.30484   0.75572   0.46788   0.00000  Uiso   1.00
C533   C     0.18533   0.93554   0.37913   0.00000  Uiso   1.00
C534   C     0.29893   0.99011   0.22756   0.00000  Uiso   1.00
C535   C     0.18176   0.84544   0.01398   0.00000  Uiso   1.00
C536   C     0.22873   0.83944   0.48034   0.00000  Uiso   1.00
C537   C     0.24119   0.85538   0.42892   0.00000  Uiso   1.00
C538   C     0.20581   0.86980   0.41002   0.00000  Uiso   1.00
C539   C     0.17284   0.84515   0.06837   0.00000  Uiso   1.00
C540   C     0.25083   0.81766   0.05645   0.00000  Uiso   1.00
H541   H     0.11331   0.70367   0.20978   0.00000  Uiso   1.00
H542   H     0.04217   0.75426   0.13664   0.00000  Uiso   1.00
H543   H     0.09908   0.73747   0.13758   0.00000  Uiso   1.00
H544   H     0.08848   0.79236   0.13545   0.00000  Uiso   1.00
H545   H     0.02671   0.93206   0.27559   0.00000  Uiso   1.00
H546   H     0.00144   0.92312   0.36608   0.00000  Uiso   1.00
H547   H     0.06472   0.91814   0.34932   0.00000  Uiso   1.00
H548   H     0.02714   0.87204   0.35844   0.00000  Uiso   1.00
H549   H     0.31421   0.81062   0.42651   0.00000  Uiso   1.00
H550   H     0.00448   0.74746   0.47598   0.00000  Uiso   1.00
H551   H     0.30522   0.74087   0.42916   0.00000  Uiso   1.00
H552   H     0.29798   0.77140   0.21936   0.00000  Uiso   1.00
H553   H     0.27397   0.74248   0.49951   0.00000  Uiso   1.00
H554   H     0.25194   0.91105   0.35968   0.00000  Uiso   1.00
H555   H     0.20054   0.95966   0.34903   0.00000  Uiso   1.00
H556   H     0.18035   0.94993   0.41932   0.00000  Uiso   1.00
H557   H     0.15061   0.92545   0.37537   0.00000  Uiso   1.00
H558   H     0.26518   0.93958   0.20591   0.00000  Uiso   1.00
H559   H     0.29695   0.68417   0.20354   0.00000  Uiso   1.00
H560   H     0.33157   0.97292   0.20578   0.00000  Uiso   1.00
H561   H     0.30263   0.66677   0.26658   0.00000  Uiso   1.00
H562   H     0.28590   0.89628   0.27498   0.00000  Uiso   1.00
H563   H     0.27775   0.86081   0.40586   0.00000  Uiso   1.00
H564   H     0.13947   0.85657   0.09434   0.00000  Uiso   1.00
H565   H     0.05131   0.83925   0.41894   0.00000  Uiso   1.00
H566   H     0.08348   0.84390   0.06332   0.00000  Uiso   1.00
H567   H     0.02578   0.84434   0.01653   0.00000  Uiso   1.00
H568   H     0.03943   0.73630   0.22530   0.00000  Uiso   1.00
N569   N     0.04760   0.83334   0.25001   0.00000  Uiso   1.00
N570   N     0.25780   0.96265   0.23535   0.00000  Uiso   1.00
N571   N     0.28573   0.83331   0.25000   0.00000  Uiso   1.00
N572   N     0.31070   0.78457   0.09637   0.00000  Uiso   1.00
N573   N     0.24048   0.72214   0.33083   0.00000  Uiso   1.00
N574   N     0.08905   0.93957   0.16639   0.00000  Uiso   1.00
N575   N     0.05578   0.76398   0.20962   0.00000  Uiso   1.00
N576   N     0.03729   0.90434   0.28680   0.00000  Uiso   1.00
N577   N     0.30290   0.80086   0.46526   0.00000  Uiso   1.00
N578   N     0.21725   0.90068   0.36975   0.00000  Uiso   1.00
O579   O     0.12846   0.89442   0.25000   0.00000  Uiso   1.00
O580   O     0.20490   0.89441   0.25000   0.00000  Uiso   1.00
O581   O     0.10947   0.83333   0.32681   0.00000  Uiso   1.00
O582   O     0.18591   0.83332   0.32681   0.00000  Uiso   1.00
O583   O     0.12843   0.77226   0.25000   0.00000  Uiso   1.00
O584   O     0.20488   0.77225   0.25000   0.00000  Uiso   1.00
O585   O     0.14742   0.83335   0.17319   0.00000  Uiso   1.00
O586   O     0.22387   0.83334   0.17319   0.00000  Uiso   1.00
Zn587  Zn    0.11562   0.83334   0.25000   0.00000  Uiso   1.00
Zn588  Zn    0.21771   0.83333   0.25000   0.00000  Uiso   1.00
C589   C     0.50266   0.91294   0.24360   0.00000  Uiso   1.00
C590   C     0.45879   0.84730   0.40918   0.00000  Uiso   1.00
C591   C     0.54498   0.98022   0.24515   0.00000  Uiso   1.00
C592   C     0.47425   0.83748   0.35150   0.00000  Uiso   1.00
C593   C     0.53475   0.68776   0.26388   0.00000  Uiso   1.00
C594   C     0.49974   0.70855   0.24953   0.00000  Uiso   1.00
C595   C     0.47117   0.68723   0.22409   0.00000  Uiso   1.00
C596   C     0.47415   0.97783   0.21711   0.00000  Uiso   1.00
C597   C     0.50825   0.95715   0.23308   0.00000  Uiso   1.00
C598   C     0.64630   0.79890   0.23322   0.00000  Uiso   1.00
C599   C     0.36119   0.79918   0.23156   0.00000  Uiso   1.00
C600   C     0.47862   0.85090   0.49144   0.00000  Uiso   1.00
C601   C     0.35298   0.86796   0.26697   0.00000  Uiso   1.00
C602   C     0.63938   0.86813   0.26472   0.00000  Uiso   1.00
C603   C     0.49909   0.75325   0.25170   0.00000  Uiso   1.00
C604   C     0.52587   0.83243   0.14829   0.00000  Uiso   1.00
C605   C     0.59501   0.82041   0.00054   0.00000  Uiso   1.00
C606   C     0.54031   0.83240   0.09014   0.00000  Uiso   1.00
C607   C     0.41076   0.84427   0.43873   0.00000  Uiso   1.00
C608   C     0.39630   0.84630   0.49413   0.00000  Uiso   1.00
C609   C     0.42986   0.84745   0.02064   0.00000  Uiso   1.00
C610   C     0.61745   0.79931   0.07862   0.00000  Uiso   1.00
C611   C     0.49198   0.85665   0.43616   0.00000  Uiso   1.00
C612   C     0.55665   0.70682   0.30102   0.00000  Uiso   1.00
C613   C     0.44523   0.95659   0.18912   0.00000  Uiso   1.00
C614   C     0.40547   0.76209   0.15188   0.00000  Uiso   1.00
C615   C     0.36565   0.90423   0.34302   0.00000  Uiso   1.00
C616   C     0.63817   0.75572   0.46788   0.00000  Uiso   1.00
C617   C     0.51866   0.93554   0.37913   0.00000  Uiso   1.00
C618   C     0.63226   0.99011   0.22756   0.00000  Uiso   1.00
C619   C     0.51510   0.84544   0.01398   0.00000  Uiso   1.00
C620   C     0.56206   0.83944   0.48034   0.00000  Uiso   1.00
C621   C     0.57452   0.85538   0.42892   0.00000  Uiso   1.00
C622   C     0.53914   0.86980   0.41002   0.00000  Uiso   1.00
C623   C     0.50618   0.84515   0.06837   0.00000  Uiso   1.00
C624   C     0.58416   0.81766   0.05645   0.00000  Uiso   1.00
H625   H     0.44664   0.70367   0.20978   0.00000  Uiso   1.00
H626   H     0.37550   0.75426   0.13664   0.00000  Uiso   1.00
H627   H     0.43242   0.73747   0.13758   0.00000  Uiso   1.00
H628   H     0.42182   0.79236   0.13545   0.00000  Uiso   1.00
H629   H     0.36005   0.93206   0.27559   0.00000  Uiso   1.00
H630   H     0.33477   0.92312   0.36608   0.00000  Uiso   1.00
H631   H     0.39806   0.91814   0.34932   0.00000  Uiso   1.00
H632   H     0.36048   0.87204   0.35844   0.00000  Uiso   1.00
H633   H     0.64754   0.81062   0.42651   0.00000  Uiso   1.00
H634   H     0.33782   0.74746   0.47598   0.00000  Uiso   1.00
H635   H     0.63855   0.74087   0.42916   0.00000  Uiso   1.00
H636   H     0.63131   0.77140   0.21936   0.00000  Uiso   1.00
H637   H     0.60731   0.74248   0.49951   0.00000  Uiso   1.00
H638   H     0.58527   0.91105   0.35968   0.00000  Uiso   1.00
H639   H     0.53388   0.95966   0.34903   0.00000  Uiso   1.00
H640   H     0.51368   0.94993   0.41932   0.00000  Uiso   1.00
H641   H     0.48394   0.92545   0.37537   0.00000  Uiso   1.00
H642   H     0.59851   0.93958   0.20591   0.00000  Uiso   1.00
H643   H     0.63028   0.68417   0.20354   0.00000  Uiso   1.00
H644   H     0.66491   0.97292   0.20578   0.00000  Uiso   1.00
H645   H     0.63596   0.66677   0.26658   0.00000  Uiso   1.00
H646   H     0.61923   0.89628   0.27498   0.00000  Uiso   1.00
H647   H     0.61109   0.86081   0.40586   0.00000  Uiso   1.00
H648   H     0.47281   0.85657   0.09434   0.00000  Uiso   1.00
H649   H     0.38464   0.83925   0.41894   0.00000  Uiso   1.00
H650   H     0.41681   0.84390   0.06332   0.00000  Uiso   1.00
H651   H     0.35911   0.84434   0.01653   0.00000  Uiso   1.00
H652   H     0.37276   0.73630   0.22530   0.00000  Uiso   1.00
N653   N     0.38093   0.83334   0.25001   0.00000  Uiso   1.00
N654   N     0.59113   0.96265   0.23535   0.00000  Uiso   1.00
N655   N     0.61906   0.83331   0.25000   0.00000  Uiso   1.00
N656   N     0.64403   0.78457   0.09637   0.00000  Uiso   1.00
N657   N     0.57381   0.72214   0.33083   0.00000  Uiso   1.00
N658   N     0.42239   0.93957   0.16639   0.00000  Uiso   1.00
N659   N     0.38912   0.76398   0.20962   0.00000  Uiso   1.00
N660   N     0.37062   0.90434   0.28680   0.00000  Uiso   1.00
N661   N     0.63624   0.80086   0.46526   0.00000  Uiso   1.00
N662   N     0.55058   0.90068   0.36975   0.00000  Uiso   1.00
O663   O     0.46179   0.89442   0.25000   0.00000  Uiso   1.00
O664   O     0.53823   0.89441   0.25000   0.00000  Uiso   1.00
O665   O     0.44280   0.83333   0.32681   0.00000  Uiso   1.00
O666   O     0.51924   0.83332   0.32681   0.00000  Uiso   1.00
O667   O     0.46177   0.77226   0.25000   0.00000  Uiso   1.00
O668   O     0.53821   0.77225   0.25000   0.00000  Uiso   1.00
O669   O     0.48076   0.83335   0.17319   0.00000  Uiso   1.00
O670   O     0.55720   0.83334   0.17319   0.00000  Uiso   1.00
Zn671  Zn    0.44896   0.83334   0.25000   0.00000  Uiso   1.00
Zn672  Zn    0.55104   0.83333   0.25000   0.00000  Uiso   1.00
C673   C     0.83600   0.91294   0.24360   0.00000  Uiso   1.00
C674   C     0.79212   0.84730   0.40918   0.00000  Uiso   1.00
C675   C     0.87832   0.98022   0.24515   0.00000  Uiso   1.00
C676   C     0.80758   0.83748   0.35150   0.00000  Uiso   1.00
C677   C     0.86808   0.68776   0.26388   0.00000  Uiso   1.00
C678   C     0.83307   0.70855   0.24953   0.00000  Uiso   1.00
C679   C     0.80451   0.68723   0.22409   0.00000  Uiso   1.00
C680   C     0.80748   0.97783   0.21711   0.00000  Uiso   1.00
C681   C     0.84158   0.95715   0.23308   0.00000  Uiso   1.00
C682   C     0.97963   0.79890   0.23322   0.00000  Uiso   1.00
C683   C     0.69452   0.79918   0.23156   0.00000  Uiso   1.00
C684   C     0.81195   0.85090   0.49144   0.00000  Uiso   1.00
C685   C     0.68632   0.86796   0.26697   0.00000  Uiso   1.00
C686   C     0.97271   0.86813   0.26472   0.00000  Uiso   1.00
C687   C     0.83242   0.75325   0.25170   0.00000  Uiso   1.00
C688   C     0.85921   0.83243   0.14829   0.00000  Uiso   1.00
C689   C     0.92834   0.82041   0.00054   0.00000  Uiso   1.00
C690   C     0.87364   0.83240   0.09014   0.00000  Uiso   1.00
C691   C     0.74409   0.84427   0.43873   0.00000  Uiso   1.00
C692   C     0.72963   0.84630   0.49413   0.00000  Uiso   1.00
C693   C     0.76320   0.84745   0.02064   0.00000  Uiso   1.00
C694   C     0.95079   0.79931   0.07862   0.00000  Uiso   1.00
C695   C     0.82531   0.85665   0.43616   0.00000  Uiso   1.00
C696   C     0.88998   0.70682   0.30102   0.00000  Uiso   1.00
C697   C     0.77856   0.95659   0.18912   0.00000  Uiso   1.00
C698   C     0.73880   0.76209   0.15188   0.00000  Uiso   1.00
C699   C     0.69899   0.90423   0.34302   0.00000  Uiso   1.00
C700   C     0.97150   0.75572   0.46788   0.00000  Uiso   1.00
C701   C     0.85199   0.93554   0.37913   0.00000  Uiso   1.00
C702   C     0.96560   0.99011   0.22756   0.00000  Uiso   1.00
C703   C     0.84843   0.84544   0.01398   0.00000  Uiso   1.00
C704   C     0.89539   0.83944   0.48034   0.00000  Uiso   1.00
C705   C     0.90785   0.85538   0.42892   0.00000  Uiso   1.00
C706   C     0.87248   0.86980   0.41002   0.00000  Uiso   1.00
C707   C     0.83951   0.84515   0.06837   0.00000  Uiso   1.00
C708   C     0.91749   0.81766   0.05645   0.00000  Uiso   1.00
H709   H     0.77998   0.70367   0.20978   0.00000  Uiso   1.00
H710   H     0.70884   0.75426   0.13664   0.00000  Uiso   1.00
H711   H     0.76575   0.73747   0.13758   0.00000  Uiso   1.00
H712   H     0.75515   0.79236   0.13545   0.00000  Uiso   1.00
H713   H     0.69338   0.93206   0.27559   0.00000  Uiso   1.00
H714   H     0.66811   0.92312   0.36608   0.00000  Uiso   1.00
H715   H     0.73139   0.91814   0.34932   0.00000  Uiso   1.00
H716   H     0.69381   0.87204   0.35844   0.00000  Uiso   1.00
H717   H     0.98088   0.81062   0.42651   0.00000  Uiso   1.00
H718   H     0.67115   0.74746   0.47598   0.00000  Uiso   1.00
H719   H     0.97188   0.74087   0.42916   0.00000  Uiso   1.00
H720   H     0.96464   0.77140   0.21936   0.00000  Uiso   1.00
H721   H     0.94064   0.74248   0.49951   0.00000  Uiso   1.00
H722   H     0.91860   0.91105   0.35968   0.00000  Uiso   1.00
H723   H     0.86721   0.95966   0.34903   0.00000  Uiso   1.00
H724   H     0.84702   0.94993   0.41932   0.00000  Uiso   1.00
H725   H     0.81727   0.92545   0.37537   0.00000  Uiso   1.00
H726   H     0.93185   0.93958   0.20591   0.00000  Uiso   1.00
H727   H     0.96362   0.68417   0.20354   0.00000  Uiso   1.00
H728   H     0.99824   0.97292   0.20578   0.00000  Uiso   1.00
H729   H     0.96930   0.66677   0.26658   0.00000  Uiso   1.00
H730   H     0.95256   0.89628   0.27498   0.00000  Uiso   1.00
H731   H     0.94442   0.86081   0.40586   0.00000  Uiso   1.00
H732   H     0.80614   0.85657   0.09434   0.00000  Uiso   1.00
H733   H     0.71798   0.83925   0.41894   0.00000  Uiso   1.00
H734   H     0.75014   0.84390   0.06332   0.00000  Uiso   1.00
H735   H     0.69245   0.84434   0.01653   0.00000  Uiso   1.00
H736   H     0.70609   0.73630   0.22530   0.00000  Uiso   1.00
N737   N     0.71426   0.83334   0.25001   0.00000  Uiso   1.00
N738   N     0.92447   0.96265   0.23535   0.00000  Uiso   1.00
N739   N     0.95239   0.83331   0.25000   0.00000  Uiso   1.00
N740   N     0.97736   0.78457   0.09637   0.00000  Uiso   1.00
N741   N     0.90715   0.72214   0.33083   0.00000  Uiso   1.00
N742   N     0.75572   0.93957   0.16639   0.00000  Uiso   1.00
N743   N     0.72245   0.76398   0.20962   0.00000  Uiso   1.00
N744   N     0.70395   0.90434   0.28680   0.00000  Uiso   1.00
N745   N     0.96957   0.80086   0.46526   0.00000  Uiso   1.00
N746   N     0.88391   0.90068   0.36975   0.00000  Uiso   1.00
O747   O     0.79512   0.89442   0.25000   0.00000  Uiso   1.00
O748   O     0.87157   0.89441   0.25000   0.00000  Uiso   1.00
O749   O     0.77613   0.83333   0.32681   0.00000  Uiso   1.00
O750   O     0.85258   0.83332   0.32681   0.00000  Uiso   1.00
O751   O     0.79510   0.77226   0.25000   0.00000  Uiso   1.00
O752   O     0.87154   0.77225   0.25000   0.00000  Uiso   1.00
O753   O     0.81409   0.83335   0.17319   0.00000  Uiso   1.00
O754   O     0.89053   0.83334   0.17319   0.00000  Uiso   1.00
Zn755  Zn    0.78229   0.83334   0.25000   0.00000  Uiso   1.00
Zn756  Zn    0.88438   0.83333   0.25000   0.00000  Uiso   1.00
C757   C     0.16933   0.24627   0.74360   0.00000  Uiso   1.00
C758   C     0.12546   0.18064   0.90918   0.00000  Uiso   1.00
C759   C     0.21165   0.31356   0.74515   0.00000  Uiso   1.00
C760   C     0.14092   0.17081   0.85150   0.00000  Uiso   1.00
C761   C     0.20142   0.02109   0.76388   0.00000  Uiso   1.00
C762   C     0.16641   0.04189   0.74953   0.00000  Uiso   1.00
C763   C     0.13784   0.02056   0.72409   0.00000  Uiso   1.00
C764   C     0.14081   0.31117   0.71711   0.00000  Uiso   1.00
C765   C     0.17492   0.29049   0.73308   0.00000  Uiso   1.00
C766   C     0.31296   0.13223   0.73322   0.00000  Uiso   1.00
C767   C     0.02786   0.13251   0.73156   0.00000  Uiso   1.00
C768   C     0.14529   0.18423   0.99144   0.00000  Uiso   1.00
C769   C     0.01965   0.20129   0.76697   0.00000  Uiso   1.00
C770   C     0.30605   0.20146   0.76472   0.00000  Uiso   1.00
C771   C     0.16575   0.08659   0.75170   0.00000  Uiso   1.00
C772   C     0.19254   0.16577   0.64829   0.00000  Uiso   1.00
C773   C     0.26168   0.15374   0.50054   0.00000  Uiso   1.00
C774   C     0.20697   0.16573   0.59014   0.00000  Uiso   1.00
C775   C     0.07742   0.17760   0.93873   0.00000  Uiso   1.00
C776   C     0.06296   0.17963   0.99413   0.00000  Uiso   1.00
C777   C     0.09653   0.18078   0.52064   0.00000  Uiso   1.00
C778   C     0.28412   0.13264   0.57862   0.00000  Uiso   1.00
C779   C     0.15864   0.18999   0.93616   0.00000  Uiso   1.00
C780   C     0.22332   0.04015   0.80102   0.00000  Uiso   1.00
C781   C     0.11189   0.28992   0.68912   0.00000  Uiso   1.00
C782   C     0.07214   0.09542   0.65188   0.00000  Uiso   1.00
C783   C     0.03232   0.23756   0.84302   0.00000  Uiso   1.00
C784   C     0.30484   0.08905   0.96788   0.00000  Uiso   1.00
C785   C     0.18533   0.26888   0.87913   0.00000  Uiso   1.00
C786   C     0.29893   0.32344   0.72756   0.00000  Uiso   1.00
C787   C     0.18176   0.17877   0.51398   0.00000  Uiso   1.00
C788   C     0.22873   0.17277   0.98034   0.00000  Uiso   1.00
C789   C     0.24119   0.18871   0.92892   0.00000  Uiso   1.00
C790   C     0.20581   0.20313   0.91002   0.00000  Uiso   1.00
C791   C     0.17284   0.17849   0.56837   0.00000  Uiso   1.00
C792   C     0.25083   0.15099   0.55645   0.00000  Uiso   1.00
H793   H     0.11331   0.03700   0.70978   0.00000  Uiso   1.00
H794   H     0.04217   0.08759   0.63664   0.00000  Uiso   1.00
H795   H     0.09908   0.07081   0.63758   0.00000  Uiso   1.00
H796   H     0.08848   0.12569   0.63545   0.00000  Uiso   1.00
H797   H     0.02671   0.26540   0.77559   0.00000  Uiso   1.00
H798   H     0.00144   0.25645   0.86608   0.00000  Uiso   1.00
H799   H     0.06472   0.25148   0.84932   0.00000  Uiso   1.00
H800   H     0.02714   0.20538   0.85844   0.00000  Uiso   1.00
H801   H     0.31421   0.14396   0.92651   0.00000  Uiso   1.00
H802   H     0.00448   0.08079   0.97598   0.00000  Uiso   1.00
H803   H     0.30522   0.07420   0.92916   0.00000  Uiso   1.00
H804   H     0.29798   0.10473   0.71936   0.00000  Uiso   1.00
H805   H     0.27397   0.07581   0.99951   0.00000  Uiso   1.00
H806   H     0.25194   0.24438   0.85968   0.00000  Uiso   1.00
H807   H     0.20054   0.29300   0.84903   0.00000  Uiso   1.00
H808   H     0.18035   0.28326   0.91932   0.00000  Uiso   1.00
H809   H     0.15061   0.25878   0.87537   0.00000  Uiso   1.00
H810   H     0.26518   0.27291   0.70591   0.00000  Uiso   1.00
H811   H     0.29695   0.01750   0.70354   0.00000  Uiso   1.00
H812   H     0.33157   0.30625   0.70578   0.00000  Uiso   1.00
H813   H     0.30263   0.00010   0.76658   0.00000  Uiso   1.00
H814   H     0.28590   0.22961   0.77498   0.00000  Uiso   1.00
H815   H     0.27775   0.19415   0.90586   0.00000  Uiso   1.00
H816   H     0.13947   0.18990   0.59434   0.00000  Uiso   1.00
H817   H     0.05131   0.17258   0.91894   0.00000  Uiso   1.00
H818   H     0.08348   0.17724   0.56332   0.00000  Uiso   1.00
H819   H     0.02578   0.17767   0.51653   0.00000  Uiso   1.00
H820   H     0.03943   0.06964   0.72530   0.00000  Uiso   1.00
N821   N     0.04760   0.16668   0.75001   0.00000  Uiso   1.00
N822   N     0.25780   0.29598   0.73535   0.00000  Uiso   1.00
N823   N     0.28573   0.16665   0.75000   0.00000  Uiso   1.00
N824   N     0.31070   0.11790   0.59637   0.00000  Uiso   1.00
N825   N     0.24048   0.05547   0.83083   0.00000  Uiso   1.00
N826   N     0.08905   0.27290   0.66639   0.00000  Uiso   1.00
N827   N     0.05578   0.09731   0.70962   0.00000  Uiso   1.00
N828   N     0.03729   0.23768   0.78680   0.00000  Uiso   1.00
N829   N     0.30290   0.13420   0.96526   0.00000  Uiso   1.00
N830   N     0.21725   0.23401   0.86975   0.00000  Uiso   1.00
O831   O     0.12846   0.22775   0.75000   0.00000  Uiso   1.00
O832   O     0.20490   0.22774   0.75000   0.00000  Uiso   1.00
O833   O     0.10947   0.16666   0.82681   0.00000  Uiso   1.00
O834   O     0.18591   0.16665   0.82681   0.00000  Uiso   1.00
O835   O     0.12843   0.10559   0.75000   0.00000  Uiso   1.00
O836   O     0.20488   0.10558   0.75000   0.00000  Uiso   1.00
O837   O     0.14742   0.16668   0.67319   0.00000  Uiso   1.00
O838   O     0.22387   0.16667   0.67319   0.00000  Uiso   1.00
Zn839  Zn    0.11562   0.16667   0.75000   0.00000  Uiso   1.00
Zn840  Zn    0.21771   0.16666   0.75000   0.00000  Uiso   1.00
C841   C     0.50266   0.24627   0.74360   0.00000  Uiso   1.00
C842   C     0.45879   0.18064   0.90918   0.00000  Uiso   1.00
C843   C     0.54498   0.31356   0.74515   0.00000  Uiso   1.00
C844   C     0.47425   0.17081   0.85150   0.00000  Uiso   1.00
C845   C     0.53475   0.02109   0.76388   0.00000  Uiso   1.00
C846   C     0.49974   0.04189   0.74953   0.00000  Uiso   1.00
C847   C     0.47117   0.02056   0.72409   0.00000  Uiso   1.00
C848   C     0.47415   0.31117   0.71711   0.00000  Uiso   1.00
C849   C     0.50825   0.29049   0.73308   0.00000  Uiso   1.00
C850   C     0.64630   0.13223   0.73322   0.00000  Uiso   1.00
C851   C     0.36119   0.13251   0.73156   0.00000  Uiso   1.00
C852   C     0.47862   0.18423   0.99144   0.00000  Uiso   1.00
C853   C     0.35298   0.20129   0.76697   0.00000  Uiso   1.00
C854   C     0.63938   0.20146   0.76472   0.00000  Uiso   1.00
C855   C     0.49909   0.08659   0.75170   0.00000  Uiso   1.00
C856   C     0.52587   0.16577   0.64829   0.00000  Uiso   1.00
C857   C     0.59501   0.15374   0.50054   0.00000  Uiso   1.00
C858   C     0.54031   0.16573   0.59014   0.00000  Uiso   1.00
C859   C     0.41076   0.17760   0.93873   0.00000  Uiso   1.00
C860   C     0.39630   0.17963   0.99413   0.00000  Uiso   1.00
C861   C     0.42986   0.18078   0.52064   0.00000  Uiso   1.00
C862   C     0.61745   0.13264   0.57862   0.00000  Uiso   1.00
C863   C     0.49198   0.18999   0.93616   0.00000  Uiso   1.00
C864   C     0.55665   0.04015   0.80102   0.00000  Uiso   1.00
C865   C     0.44523   0.28992   0.68912   0.00000  Uiso   1.00
C866   C     0.40547   0.09542   0.65188   0.00000  Uiso   1.00
C867   C     0.36565   0.23756   0.84302   0.00000  Uiso   1.00
C868   C     0.63817   0.08905   0.96788   0.00000  Uiso   1.00
C869   C     0.51866   0.26888   0.87913   0.00000  Uiso   1.00
C870   C     0.63226   0.32344   0.72756   0.00000  Uiso   1.00
C871   C     0.51510   0.17877   0.51398   0.00000  Uiso   1.00
C872   C     0.56206   0.17277   0.98034   0.00000  Uiso   1.00
C873   C     0.57452   0.18871   0.92892   0.00000  Uiso   1.00
C874   C     0.53914   0.20313   0.91002   0.00000  Uiso   1.00
C875   C     0.50618   0.17849   0.56837   0.00000  Uiso   1.00
C876   C     0.58416   0.15099   0.55645   0.00000  Uiso   1.00
H877   H     0.44664   0.03700   0.70978   0.00000  Uiso   1.00
H878   H     0.37550   0.08759   0.63664   0.00000  Uiso   1.00
H879   H     0.43242   0.07081   0.63758   0.00000  Uiso   1.00
H880   H     0.42182   0.12569   0.63545   0.00000  Uiso   1.00
H881   H     0.36005   0.26540   0.77559   0.00000  Uiso   1.00
H882   H     0.33477   0.25645   0.86608   0.00000  Uiso   1.00
H883   H     0.39806   0.25148   0.84932   0.00000  Uiso   1.00
H884   H     0.36048   0.20538   0.85844   0.00000  Uiso   1.00
H885   H     0.64754   0.14396   0.92651   0.00000  Uiso   1.00
H886   H     0.33782   0.08079   0.97598   0.00000  Uiso   1.00
H887   H     0.63855   0.07420   0.92916   0.00000  Uiso   1.00
H888   H     0.63131   0.10473   0.71936   0.00000  Uiso   1.00
H889   H     0.60731   0.07581   0.99951   0.00000  Uiso   1.00
H890   H     0.58527   0.24438   0.85968   0.00000  Uiso   1.00
H891   H     0.53388   0.29300   0.84903   0.00000  Uiso   1.00
H892   H     0.51368   0.28326   0.91932   0.00000  Uiso   1.00
H893   H     0.48394   0.25878   0.87537   0.00000  Uiso   1.00
H894   H     0.59851   0.27291   0.70591   0.00000  Uiso   1.00
H895   H     0.63028   0.01750   0.70354   0.00000  Uiso   1.00
H896   H     0.66491   0.30625   0.70578   0.00000  Uiso   1.00
H897   H     0.63596   0.00010   0.76658   0.00000  Uiso   1.00
H898   H     0.61923   0.22961   0.77498   0.00000  Uiso   1.00
H899   H     0.61109   0.19415   0.90586   0.00000  Uiso   1.00
H900   H     0.47281   0.18990   0.59434   0.00000  Uiso   1.00
H901   H     0.38464   0.17258   0.91894   0.00000  Uiso   1.00
H902   H     0.41681   0.17724   0.56332   0.00000  Uiso   1.00
H903   H     0.35911   0.17767   0.51653   0.00000  Uiso   1.00
H904   H     0.37276   0.06964   0.72530   0.00000  Uiso   1.00
N905   N     0.38093   0.16668   0.75001   0.00000  Uiso   1.00
N906   N     0.59113   0.29598   0.73535   0.00000  Uiso   1.00
N907   N     0.61906   0.16665   0.75000   0.00000  Uiso   1.00
N908   N     0.64403   0.11790   0.59637   0.00000  Uiso   1.00
N909   N     0.57381   0.05547   0.83083   0.00000  Uiso   1.00
N910   N     0.42239   0.27290   0.66639   0.00000  Uiso   1.00
N911   N     0.38912   0.09731   0.70962   0.00000  Uiso   1.00
N912   N     0.37062   0.23768   0.78680   0.00000  Uiso   1.00
N913   N     0.63624   0.13420   0.96526   0.00000  Uiso   1.00
N914   N     0.55058   0.23401   0.86975   0.00000  Uiso   1.00
O915   O     0.46179   0.22775   0.75000   0.00000  Uiso   1.00
O916   O     0.53823   0.22774   0.75000   0.00000  Uiso   1.00
O917   O     0.44280   0.16666   0.82681   0.00000  Uiso   1.00
O918   O     0.51924   0.16665   0.82681   0.00000  Uiso   1.00
O919   O     0.46177   0.10559   0.75000   0.00000  Uiso   1.00
O920   O     0.53821   0.10558   0.75000   0.00000  Uiso   1.00
O921   O     0.48076   0.16668   0.67319   0.00000  Uiso   1.00
O922   O     0.55720   0.16667   0.67319   0.00000  Uiso   1.00
Zn923  Zn    0.44896   0.16667   0.75000   0.00000  Uiso   1.00
Zn924  Zn    0.55104   0.16666   0.75000   0.00000  Uiso   1.00
C925   C     0.83600   0.24627   0.74360   0.00000  Uiso   1.00
C926   C     0.79212   0.18064   0.90918   0.00000  Uiso   1.00
C927   C     0.87832   0.31356   0.74515   0.00000  Uiso   1.00
C928   C     0.80758   0.17081   0.85150   0.00000  Uiso   1.00
C929   C     0.86808   0.02109   0.76388   0.00000  Uiso   1.00
C930   C     0.83307   0.04189   0.74953   0.00000  Uiso   1.00
C931   C     0.80451   0.02056   0.72409   0.00000  Uiso   1.00
C932   C     0.80748   0.31117   0.71711   0.00000  Uiso   1.00
C933   C     0.84158   0.29049   0.73308   0.00000  Uiso   1.00
C934   C     0.97963   0.13223   0.73322   0.00000  Uiso   1.00
C935   C     0.69452   0.13251   0.73156   0.00000  Uiso   1.00
C936   C     0.81195   0.18423   0.99144   0.00000  Uiso   1.00
C937   C     0.68632   0.20129   0.76697   0.00000  Uiso   1.00
C938   C     0.97271   0.20146   0.76472   0.00000  Uiso   1.00
C939   C     0.83242   0.08659   0.75170   0.00000  Uiso   1.00
C940   C     0.85921   0.16577   0.64829   0.00000  Uiso   1.00
C941   C     0.92834   0.15374   0.50054   0.00000  Uiso   1.00
C942   C     0.87364   0.16573   0.59014   0.00000  Uiso   1.00
C943   C     0.74409   0.17760   0.93873   0.00000  Uiso   1.00
C944   C     0.72963   0.17963   0.99413   0.00000  Uiso   1.00
C945   C     0.76320   0.18078   0.52064   0.00000  Uiso   1.00
C946   C     0.95079   0.13264   0.57862   0.00000  Uiso   1.00
C947   C     0.82531   0.18999   0.93616   0.00000  Uiso   1.00
C948   C     0.88998   0.04015   0.80102   0.00000  Uiso   1.00
C949   C     0.77856   0.28992   0.68912   0.00000  Uiso   1.00
C950   C     0.73880   0.09542   0.65188   0.00000  Uiso   1.00
C951   C     0.69899   0.23756   0.84302   0.00000  Uiso   1.00
C952   C     0.97150   0.08905   0.96788   0.00000  Uiso   1.00
C953   C     0.85199   0.26888   0.87913   0.00000  Uiso   1.00
C954   C     0.96560   0.32344   0.72756   0.00000  Uiso   1.00
C955   C     0.84843   0.17877   0.51398   0.00000  Uiso   1.00
C956   C     0.89539   0.17277   0.98034   0.00000  Uiso   1.00
C957   C     0.90785   0.18871   0.92892   0.00000  Uiso   1.00
C958   C     0.87248   0.20313   0.91002   0.00000  Uiso   1.00
C959   C     0.83951   0.17849   0.56837   0.00000  Uiso   1.00
C960   C     0.91749   0.15099   0.55645   0.00000  Uiso   1.00
H961   H     0.77998   0.03700   0.70978   0.00000  Uiso   1.00
H962   H     0.70884   0.08759   0.63664   0.00000  Uiso   1.00
H963   H     0.76575   0.07081   0.63758   0.00000  Uiso   1.00
H964   H     0.75515   0.12569   0.63545   0.00000  Uiso   1.00
H965   H     0.69338   0.26540   0.77559   0.00000  Uiso   1.00
H966   H     0.66811   0.25645   0.86608   0.00000  Uiso   1.00
H967   H     0.73139   0.25148   0.84932   0.00000  Uiso   1.00
H968   H     0.69381   0.20538   0.85844   0.00000  Uiso   1.00
H969   H     0.98088   0.14396   0.92651   0.00000  Uiso   1.00
H970   H     0.67115   0.08079   0.97598   0.00000  Uiso   1.00
H971   H     0.97188   0.07420   0.92916   0.00000  Uiso   1.00
H972   H     0.96464   0.10473   0.71936   0.00000  Uiso   1.00
H973   H     0.94064   0.07581   0.99951   0.00000  Uiso   1.00
H974   H     0.91860   0.24438   0.85968   0.00000  Uiso   1.00
H975   H     0.86721   0.29300   0.84903   0.00000  Uiso   1.00
H976   H     0.84702   0.28326   0.91932   0.00000  Uiso   1.00
H977   H     0.81727   0.25878   0.87537   0.00000  Uiso   1.00
H978   H     0.93185   0.27291   0.70591   0.00000  Uiso   1.00
H979   H     0.96362   0.01750   0.70354   0.00000  Uiso   1.00
H980   H     0.99824   0.30625   0.70578   0.00000  Uiso   1.00
H981   H     0.96930   0.00010   0.76658   0.00000  Uiso   1.00
H982   H     0.95256   0.22961   0.77498   0.00000  Uiso   1.00
H983   H     0.94442   0.19415   0.90586   0.00000  Uiso   1.00
H984   H     0.80614   0.18990   0.59434   0.00000  Uiso   1.00
H985   H     0.71798   0.17258   0.91894   0.00000  Uiso   1.00
H986   H     0.75014   0.17724   0.56332   0.00000  Uiso   1.00
H987   H     0.69245   0.17767   0.51653   0.00000  Uiso   1.00
H988   H     0.70609   0.06964   0.72530   0.00000  Uiso   1.00
N989   N     0.71426   0.16668   0.75001   0.00000  Uiso   1.00
N990   N     0.92447   0.29598   0.73535   0.00000  Uiso   1.00
N991   N     0.95239   0.16665   0.75000   0.00000  Uiso   1.00
N992   N     0.97736   0.11790   0.59637   0.00000  Uiso   1.00
N993   N     0.90715   0.05547   0.83083   0.00000  Uiso   1.00
N994   N     0.75572   0.27290   0.66639   0.00000  Uiso   1.00
N995   N     0.72245   0.09731   0.70962   0.00000  Uiso   1.00
N996   N     0.70395   0.23768   0.78680   0.00000  Uiso   1.00
N997   N     0.96957   0.13420   0.96526   0.00000  Uiso   1.00
N998   N     0.88391   0.23401   0.86975   0.00000  Uiso   1.00
O999   O     0.79512   0.22775   0.75000   0.00000  Uiso   1.00
O1000  O     0.87157   0.22774   0.75000   0.00000  Uiso   1.00
O1001  O     0.77613   0.16666   0.82681   0.00000  Uiso   1.00
O1002  O     0.85258   0.16665   0.82681   0.00000  Uiso   1.00
O1003  O     0.79510   0.10559   0.75000   0.00000  Uiso   1.00
O1004  O     0.87154   0.10558   0.75000   0.00000  Uiso   1.00
O1005  O     0.81409   0.16668   0.67319   0.00000  Uiso   1.00
O1006  O     0.89053   0.16667   0.67319   0.00000  Uiso   1.00
Zn1007 Zn    0.78229   0.16667   0.75000   0.00000  Uiso   1.00
Zn1008 Zn    0.88438   0.16666   0.75000   0.00000  Uiso   1.00
C1009  C     0.16933   0.57961   0.74360   0.00000  Uiso   1.00
C1010  C     0.12546   0.51397   0.90918   0.00000  Uiso   1.00
C1011  C     0.21165   0.64689   0.74515   0.00000  Uiso   1.00
C1012  C     0.14092   0.50415   0.85150   0.00000  Uiso   1.00
C1013  C     0.20142   0.35442   0.76388   0.00000  Uiso   1.00
C1014  C     0.16641   0.37522   0.74953   0.00000  Uiso   1.00
C1015  C     0.13784   0.35389   0.72409   0.00000  Uiso   1.00
C1016  C     0.14081   0.64450   0.71711   0.00000  Uiso   1.00
C1017  C     0.17492   0.62382   0.73308   0.00000  Uiso   1.00
C1018  C     0.31296   0.46557   0.73322   0.00000  Uiso   1.00
C1019  C     0.02786   0.46585   0.73156   0.00000  Uiso   1.00
C1020  C     0.14529   0.51757   0.99144   0.00000  Uiso   1.00
C1021  C     0.01965   0.53463   0.76697   0.00000  Uiso   1.00
C1022  C     0.30605   0.53480   0.76472   0.00000  Uiso   1.00
C1023  C     0.16575   0.41992   0.75170   0.00000  Uiso   1.00
C1024  C     0.19254   0.49910   0.64829   0.00000  Uiso   1.00
C1025  C     0.26168   0.48708   0.50054   0.00000  Uiso   1.00
C1026  C     0.20697   0.49907   0.59014   0.00000  Uiso   1.00
C1027  C     0.07742   0.51093   0.93873   0.00000  Uiso   1.00
C1028  C     0.06296   0.51296   0.99413   0.00000  Uiso   1.00
C1029  C     0.09653   0.51412   0.52064   0.00000  Uiso   1.00
C1030  C     0.28412   0.46597   0.57862   0.00000  Uiso   1.00
C1031  C     0.15864   0.52332   0.93616   0.00000  Uiso   1.00
C1032  C     0.22332   0.37349   0.80102   0.00000  Uiso   1.00
C1033  C     0.11189   0.62326   0.68912   0.00000  Uiso   1.00
C1034  C     0.07214   0.42875   0.65188   0.00000  Uiso   1.00
C1035  C     0.03232   0.57089   0.84302   0.00000  Uiso   1.00
C1036  C     0.30484   0.42239   0.96788   0.00000  Uiso   1.00
C1037  C     0.18533   0.60221   0.87913   0.00000  Uiso   1.00
C1038  C     0.29893   0.65677   0.72756   0.00000  Uiso   1.00
C1039  C     0.18176   0.51211   0.51398   0.00000  Uiso   1.00
C1040  C     0.22873   0.50610   0.98034   0.00000  Uiso   1.00
C1041  C     0.24119   0.52205   0.92892   0.00000  Uiso   1.00
C1042  C     0.20581   0.53647   0.91002   0.00000  Uiso   1.00
C1043  C     0.17284   0.51182   0.56837   0.00000  Uiso   1.00
C1044  C     0.25083   0.48433   0.55645   0.00000  Uiso   1.00
H1045  H     0.11331   0.37033   0.70978   0.00000  Uiso   1.00
H1046  H     0.04217   0.42092   0.63664   0.00000  Uiso   1.00
H1047  H     0.09908   0.40414   0.63758   0.00000  Uiso   1.00
H1048  H     0.08848   0.45903   0.63545   0.00000  Uiso   1.00
H1049  H     0.02671   0.59873   0.77559   0.00000  Uiso   1.00
H1050  H     0.00144   0.58979   0.86608   0.00000  Uiso   1.00
H1051  H     0.06472   0.58481   0.84932   0.00000  Uiso   1.00
H1052  H     0.02714   0.53871   0.85844   0.00000  Uiso   1.00
H1053  H     0.31421   0.47729   0.92651   0.00000  Uiso   1.00
H1054  H     0.00448   0.41412   0.97598   0.00000  Uiso   1.00
H1055  H     0.30522   0.40754   0.92916   0.00000  Uiso   1.00
H1056  H     0.29798   0.43806   0.71936   0.00000  Uiso   1.00
H1057  H     0.27397   0.40915   0.99951   0.00000  Uiso   1.00
H1058  H     0.25194   0.57772   0.85968   0.00000  Uiso   1.00
H1059  H     0.20054   0.62633   0.84903   0.00000  Uiso   1.00
H1060  H     0.18035   0.61659   0.91932   0.00000  Uiso   1.00
H1061  H     0.15061   0.59212   0.87537   0.00000  Uiso   1.00
H1062  H     0.26518   0.60624   0.70591   0.00000  Uiso   1.00
H1063  H     0.29695   0.35084   0.70354   0.00000  Uiso   1.00
H1064  H     0.33157   0.63958   0.70578   0.00000  Uiso   1.00
H1065  H     0.30263   0.33344   0.76658   0.00000  Uiso   1.00
H1066  H     0.28590   0.56294   0.77498   0.00000  Uiso   1.00
H1067  H     0.27775   0.52748   0.90586   0.00000  Uiso   1.00
H1068  H     0.13947   0.52324   0.59434   0.00000  Uiso   1.00
H1069  H     0.05131   0.50591   0.91894   0.00000  Uiso   1.00
H1070  H     0.08348   0.51057   0.56332   0.00000  Uiso   1.00
H1071  H     0.02578   0.51100   0.51653   0.00000  Uiso   1.00
H1072  H     0.03943   0.40297   0.72530   0.00000  Uiso   1.00
N1073  N     0.04760   0.50001   0.75001   0.00000  Uiso   1.00
N1074  N     0.25780   0.62931   0.73535   0.00000  Uiso   1.00
N1075  N     0.28573   0.49998   0.75000   0.00000  Uiso   1.00
N1076  N     0.31070   0.45123   0.59637   0.00000  Uiso   1.00
N1077  N     0.24048   0.38881   0.83083   0.00000  Uiso   1.00
N1078  N     0.08905   0.60623   0.66639   0.00000  Uiso   1.00
N1079  N     0.05578   0.43064   0.70962   0.00000  Uiso   1.00
N1080  N     0.03729   0.57101   0.78680   0.00000  Uiso   1.00
N1081  N     0.30290   0.46753   0.96526   0.00000  Uiso   1.00
N1082  N     0.21725   0.56734   0.86975   0.00000  Uiso   1.00
O1083  O     0.12846   0.56108   0.75000   0.00000  Uiso   1.00
O1084  O     0.20490   0.56107   0.75000   0.00000  Uiso   1.00
O1085  O     0.10947   0.50000   0.82681   0.00000  Uiso   1.00
O1086  O     0.18591   0.49999   0.82681   0.00000  Uiso   1.00
O1087  O     0.12843   0.43893   0.75000   0.00000  Uiso   1.00
O1088  O     0.20488   0.43892   0.75000   0.00000  Uiso   1.00
O1089  O     0.14742   0.50001   0.67319   0.00000  Uiso   1.00
O1090  O     0.22387   0.50000   0.67319   0.00000  Uiso   1.00
Zn1091 Zn    0.11562   0.50001   0.75000   0.00000  Uiso   1.00
Zn1092 Zn    0.21771   0.49999   0.75000   0.00000  Uiso   1.00
C1093  C     0.50266   0.57961   0.74360   0.00000  Uiso   1.00
C1094  C     0.45879   0.51397   0.90918   0.00000  Uiso   1.00
C1095  C     0.54498   0.64689   0.74515   0.00000  Uiso   1.00
C1096  C     0.47425   0.50415   0.85150   0.00000  Uiso   1.00
C1097  C     0.53475   0.35442   0.76388   0.00000  Uiso   1.00
C1098  C     0.49974   0.37522   0.74953   0.00000  Uiso   1.00
C1099  C     0.47117   0.35389   0.72409   0.00000  Uiso   1.00
C1100  C     0.47415   0.64450   0.71711   0.00000  Uiso   1.00
C1101  C     0.50825   0.62382   0.73308   0.00000  Uiso   1.00
C1102  C     0.64630   0.46557   0.73322   0.00000  Uiso   1.00
C1103  C     0.36119   0.46585   0.73156   0.00000  Uiso   1.00
C1104  C     0.47862   0.51757   0.99144   0.00000  Uiso   1.00
C1105  C     0.35298   0.53463   0.76697   0.00000  Uiso   1.00
C1106  C     0.63938   0.53480   0.76472   0.00000  Uiso   1.00
C1107  C     0.49909   0.41992   0.75170   0.00000  Uiso   1.00
C1108  C     0.52587   0.49910   0.64829   0.00000  Uiso   1.00
C1109  C     0.59501   0.48708   0.50054   0.00000  Uiso   1.00
C1110  C     0.54031   0.49907   0.59014   0.00000  Uiso   1.00
C1111  C     0.41076   0.51093   0.93873   0.00000  Uiso   1.00
C1112  C     0.39630   0.51296   0.99413   0.00000  Uiso   1.00
C1113  C     0.42986   0.51412   0.52064   0.00000  Uiso   1.00
C1114  C     0.61745   0.46597   0.57862   0.00000  Uiso   1.00
C1115  C     0.49198   0.52332   0.93616   0.00000  Uiso   1.00
C1116  C     0.55665   0.37349   0.80102   0.00000  Uiso   1.00
C1117  C     0.44523   0.62326   0.68912   0.00000  Uiso   1.00
C1118  C     0.40547   0.42875   0.65188   0.00000  Uiso   1.00
C1119  C     0.36565   0.57089   0.84302   0.00000  Uiso   1.00
C1120  C     0.63817   0.42239   0.96788   0.00000  Uiso   1.00
C1121  C     0.51866   0.60221   0.87913   0.00000  Uiso   1.00
C1122  C     0.63226   0.65677   0.72756   0.00000  Uiso   1.00
C1123  C     0.51510   0.51211   0.51398   0.00000  Uiso   1.00
C1124  C     0.56206   0.50610   0.98034   0.00000  Uiso   1.00
C1125  C     0.57452   0.52205   0.92892   0.00000  Uiso   1.00
C1126  C     0.53914   0.53647   0.91002   0.00000  Uiso   1.00
C1127  C     0.50618   0.51182   0.56837   0.00000  Uiso   1.00
C1128  C     0.58416   0.48433   0.55645   0.00000  Uiso   1.00
H1129  H     0.44664   0.37033   0.70978   0.00000  Uiso   1.00
H1130  H     0.37550   0.42092   0.63664   0.00000  Uiso   1.00
H1131  H     0.43242   0.40414   0.63758   0.00000  Uiso   1.00
H1132  H     0.42182   0.45903   0.63545   0.00000  Uiso   1.00
H1133  H     0.36005   0.59873   0.77559   0.00000  Uiso   1.00
H1134  H     0.33477   0.58979   0.86608   0.00000  Uiso   1.00
H1135  H     0.39806   0.58481   0.84932   0.00000  Uiso   1.00
H1136  H     0.36048   0.53871   0.85844   0.00000  Uiso   1.00
H1137  H     0.64754   0.47729   0.92651   0.00000  Uiso   1.00
H1138  H     0.33782   0.41412   0.97598   0.00000  Uiso   1.00
H1139  H     0.63855   0.40754   0.92916   0.00000  Uiso   1.00
H1140  H     0.63131   0.43806   0.71936   0.00000  Uiso   1.00
H1141  H     0.60731   0.40915   0.99951   0.00000  Uiso   1.00
H1142  H     0.58527   0.57772   0.85968   0.00000  Uiso   1.00
H1143  H     0.53388   0.62633   0.84903   0.00000  Uiso   1.00
H1144  H     0.51368   0.61659   0.91932   0.00000  Uiso   1.00
H1145  H     0.48394   0.59212   0.87537   0.00000  Uiso   1.00
H1146  H     0.59851   0.60624   0.70591   0.00000  Uiso   1.00
H1147  H     0.63028   0.35084   0.70354   0.00000  Uiso   1.00
H1148  H     0.66491   0.63958   0.70578   0.00000  Uiso   1.00
H1149  H     0.63596   0.33344   0.76658   0.00000  Uiso   1.00
H1150  H     0.61923   0.56294   0.77498   0.00000  Uiso   1.00
H1151  H     0.61109   0.52748   0.90586   0.00000  Uiso   1.00
H1152  H     0.47281   0.52324   0.59434   0.00000  Uiso   1.00
H1153  H     0.38464   0.50591   0.91894   0.00000  Uiso   1.00
H1154  H     0.41681   0.51057   0.56332   0.00000  Uiso   1.00
H1155  H     0.35911   0.51100   0.51653   0.00000  Uiso   1.00
H1156  H     0.37276   0.40297   0.72530   0.00000  Uiso   1.00
N1157  N     0.38093   0.50001   0.75001   0.00000  Uiso   1.00
N1158  N     0.59113   0.62931   0.73535   0.00000  Uiso   1.00
N1159  N     0.61906   0.49998   0.75000   0.00000  Uiso   1.00
N1160  N     0.64403   0.45123   0.59637   0.00000  Uiso   1.00
N1161  N     0.57381   0.38881   0.83083   0.00000  Uiso   1.00
N1162  N     0.42239   0.60623   0.66639   0.00000  Uiso   1.00
N1163  N     0.38912   0.43064   0.70962   0.00000  Uiso   1.00
N1164  N     0.37062   0.57101   0.78680   0.00000  Uiso   1.00
N1165  N     0.63624   0.46753   0.96526   0.00000  Uiso   1.00
N1166  N     0.55058   0.56734   0.86975   0.00000  Uiso   1.00
O1167  O     0.46179   0.56108   0.75000   0.00000  Uiso   1.00
O1168  O     0.53823   0.56107   0.75000   0.00000  Uiso   1.00
O1169  O     0.44280   0.50000   0.82681   0.00000  Uiso   1.00
O1170  O     0.51924   0.49999   0.82681   0.00000  Uiso   1.00
O1171  O     0.46177   0.43893   0.75000   0.00000  Uiso   1.00
O1172  O     0.53821   0.43892   0.75000   0.00000  Uiso   1.00
O1173  O     0.48076   0.50001   0.67319   0.00000  Uiso   1.00
O1174  O     0.55720   0.50000   0.67319   0.00000  Uiso   1.00
Zn1175 Zn    0.44896   0.50001   0.75000   0.00000  Uiso   1.00
Zn1176 Zn    0.55104   0.49999   0.75000   0.00000  Uiso   1.00
C1177  C     0.83600   0.57961   0.74360   0.00000  Uiso   1.00
C1178  C     0.79212   0.51397   0.90918   0.00000  Uiso   1.00
C1179  C     0.87832   0.64689   0.74515   0.00000  Uiso   1.00
C1180  C     0.80758   0.50415   0.85150   0.00000  Uiso   1.00
C1181  C     0.86808   0.35442   0.76388   0.00000  Uiso   1.00
C1182  C     0.83307   0.37522   0.74953   0.00000  Uiso   1.00
C1183  C     0.80451   0.35389   0.72409   0.00000  Uiso   1.00
C1184  C     0.80748   0.64450   0.71711   0.00000  Uiso   1.00
C1185  C     0.84158   0.62382   0.73308   0.00000  Uiso   1.00
C1186  C     0.97963   0.46557   0.73322   0.00000  Uiso   1.00
C1187  C     0.69452   0.46585   0.73156   0.00000  Uiso   1.00
C1188  C     0.81195   0.51757   0.99144   0.00000  Uiso   1.00
C1189  C     0.68632   0.53463   0.76697   0.00000  Uiso   1.00
C1190  C     0.97271   0.53480   0.76472   0.00000  Uiso   1.00
C1191  C     0.83242   0.41992   0.75170   0.00000  Uiso   1.00
C1192  C     0.85921   0.49910   0.64829   0.00000  Uiso   1.00
C1193  C     0.92834   0.48708   0.50054   0.00000  Uiso   1.00
C1194  C     0.87364   0.49907   0.59014   0.00000  Uiso   1.00
C1195  C     0.74409   0.51093   0.93873   0.00000  Uiso   1.00
C1196  C     0.72963   0.51296   0.99413   0.00000  Uiso   1.00
C1197  C     0.76320   0.51412   0.52064   0.00000  Uiso   1.00
C1198  C     0.95079   0.46597   0.57862   0.00000  Uiso   1.00
C1199  C     0.82531   0.52332   0.93616   0.00000  Uiso   1.00
C1200  C     0.88998   0.37349   0.80102   0.00000  Uiso   1.00
C1201  C     0.77856   0.62326   0.68912   0.00000  Uiso   1.00
C1202  C     0.73880   0.42875   0.65188   0.00000  Uiso   1.00
C1203  C     0.69899   0.57089   0.84302   0.00000  Uiso   1.00
C1204  C     0.97150   0.42239   0.96788   0.00000  Uiso   1.00
C1205  C     0.85199   0.60221   0.87913   0.00000  Uiso   1.00
C1206  C     0.96560   0.65677   0.72756   0.00000  Uiso   1.00
C1207  C     0.84843   0.51211   0.51398   0.00000  Uiso   1.00
C1208  C     0.89539   0.50610   0.98034   0.00000  Uiso   1.00
C1209  C     0.90785   0.52205   0.92892   0.00000  Uiso   1.00
C1210  C     0.87248   0.53647   0.91002   0.00000  Uiso   1.00
C1211  C     0.83951   0.51182   0.56837   0.00000  Uiso   1.00
C1212  C     0.91749   0.48433   0.55645   0.00000  Uiso   1.00
H1213  H     0.77998   0.37033   0.70978   0.00000  Uiso   1.00
H1214  H     0.70884   0.42092   0.63664   0.00000  Uiso   1.00
H1215  H     0.76575   0.40414   0.63758   0.00000  Uiso   1.00
H1216  H     0.75515   0.45903   0.63545   0.00000  Uiso   1.00
H1217  H     0.69338   0.59873   0.77559   0.00000  Uiso   1.00
H1218  H     0.66811   0.58979   0.86608   0.00000  Uiso   1.00
H1219  H     0.73139   0.58481   0.84932   0.00000  Uiso   1.00
H1220  H     0.69381   0.53871   0.85844   0.00000  Uiso   1.00
H1221  H     0.98088   0.47729   0.92651   0.00000  Uiso   1.00
H1222  H     0.67115   0.41412   0.97598   0.00000  Uiso   1.00
H1223  H     0.97188   0.40754   0.92916   0.00000  Uiso   1.00
H1224  H     0.96464   0.43806   0.71936   0.00000  Uiso   1.00
H1225  H     0.94064   0.40915   0.99951   0.00000  Uiso   1.00
H1226  H     0.91860   0.57772   0.85968   0.00000  Uiso   1.00
H1227  H     0.86721   0.62633   0.84903   0.00000  Uiso   1.00
H1228  H     0.84702   0.61659   0.91932   0.00000  Uiso   1.00
H1229  H     0.81727   0.59212   0.87537   0.00000  Uiso   1.00
H1230  H     0.93185   0.60624   0.70591   0.00000  Uiso   1.00
H1231  H     0.96362   0.35084   0.70354   0.00000  Uiso   1.00
H1232  H     0.99824   0.63958   0.70578   0.00000  Uiso   1.00
H1233  H     0.96930   0.33344   0.76658   0.00000  Uiso   1.00
H1234  H     0.95256   0.56294   0.77498   0.00000  Uiso   1.00
H1235  H     0.94442   0.52748   0.90586   0.00000  Uiso   1.00
H1236  H     0.80614   0.52324   0.59434   0.00000  Uiso   1.00
H1237  H     0.71798   0.50591   0.91894   0.00000  Uiso   1.00
H1238  H     0.75014   0.51057   0.56332   0.00000  Uiso   1.00
H1239  H     0.69245   0.51100   0.51653   0.00000  Uiso   1.00
H1240  H     0.70609   0.40297   0.72530   0.00000  Uiso   1.00
N1241  N     0.71426   0.50001   0.75001   0.00000  Uiso   1.00
N1242  N     0.92447   0.62931   0.73535   0.00000  Uiso   1.00
N1243  N     0.95239   0.49998   0.75000   0.00000  Uiso   1.00
N1244  N     0.97736   0.45123   0.59637   0.00000  Uiso   1.00
N1245  N     0.90715   0.38881   0.83083   0.00000  Uiso   1.00
N1246  N     0.75572   0.60623   0.66639   0.00000  Uiso   1.00
N1247  N     0.72245   0.43064   0.70962   0.00000  Uiso   1.00
N1248  N     0.70395   0.57101   0.78680   0.00000  Uiso   1.00
N1249  N     0.96957   0.46753   0.96526   0.00000  Uiso   1.00
N1250  N     0.88391   0.56734   0.86975   0.00000  Uiso   1.00
O1251  O     0.79512   0.56108   0.75000   0.00000  Uiso   1.00
O1252  O     0.87157   0.56107   0.75000   0.00000  Uiso   1.00
O1253  O     0.77613   0.50000   0.82681   0.00000  Uiso   1.00
O1254  O     0.85258   0.49999   0.82681   0.00000  Uiso   1.00
O1255  O     0.79510   0.43893   0.75000   0.00000  Uiso   1.00
O1256  O     0.87154   0.43892   0.75000   0.00000  Uiso   1.00
O1257  O     0.81409   0.50001   0.67319   0.00000  Uiso   1.00
O1258  O     0.89053   0.50000   0.67319   0.00000  Uiso   1.00
Zn1259 Zn    0.78229   0.50001   0.75000   0.00000  Uiso   1.00
Zn1260 Zn    0.88438   0.49999   0.75000   0.00000  Uiso   1.00
C1261  C     0.16933   0.91294   0.74360   0.00000  Uiso   1.00
C1262  C     0.12546   0.84730   0.90918   0.00000  Uiso   1.00
C1263  C     0.21165   0.98022   0.74515   0.00000  Uiso   1.00
C1264  C     0.14092   0.83748   0.85150   0.00000  Uiso   1.00
C1265  C     0.20142   0.68776   0.76388   0.00000  Uiso   1.00
C1266  C     0.16641   0.70855   0.74953   0.00000  Uiso   1.00
C1267  C     0.13784   0.68723   0.72409   0.00000  Uiso   1.00
C1268  C     0.14081   0.97783   0.71711   0.00000  Uiso   1.00
C1269  C     0.17492   0.95715   0.73308   0.00000  Uiso   1.00
C1270  C     0.31296   0.79890   0.73322   0.00000  Uiso   1.00
C1271  C     0.02786   0.79918   0.73156   0.00000  Uiso   1.00
C1272  C     0.14529   0.85090   0.99144   0.00000  Uiso   1.00
C1273  C     0.01965   0.86796   0.76697   0.00000  Uiso   1.00
C1274  C     0.30605   0.86813   0.76472   0.00000  Uiso   1.00
C1275  C     0.16575   0.75325   0.75170   0.00000  Uiso   1.00
C1276  C     0.19254   0.83243   0.64829   0.00000  Uiso   1.00
C1277  C     0.26168   0.82041   0.50054   0.00000  Uiso   1.00
C1278  C     0.20697   0.83240   0.59014   0.00000  Uiso   1.00
C1279  C     0.07742   0.84427   0.93873   0.00000  Uiso   1.00
C1280  C     0.06296   0.84630   0.99413   0.00000  Uiso   1.00
C1281  C     0.09653   0.84745   0.52064   0.00000  Uiso   1.00
C1282  C     0.28412   0.79931   0.57862   0.00000  Uiso   1.00
C1283  C     0.15864   0.85665   0.93616   0.00000  Uiso   1.00
C1284  C     0.22332   0.70682   0.80102   0.00000  Uiso   1.00
C1285  C     0.11189   0.95659   0.68912   0.00000  Uiso   1.00
C1286  C     0.07214   0.76209   0.65188   0.00000  Uiso   1.00
C1287  C     0.03232   0.90423   0.84302   0.00000  Uiso   1.00
C1288  C     0.30484   0.75572   0.96788   0.00000  Uiso   1.00
C1289  C     0.18533   0.93554   0.87913   0.00000  Uiso   1.00
C1290  C     0.29893   0.99011   0.72756   0.00000  Uiso   1.00
C1291  C     0.18176   0.84544   0.51398   0.00000  Uiso   1.00
C1292  C     0.22873   0.83944   0.98034   0.00000  Uiso   1.00
C1293  C     0.24119   0.85538   0.92892   0.00000  Uiso   1.00
C1294  C     0.20581   0.86980   0.91002   0.00000  Uiso   1.00
C1295  C     0.17284   0.84515   0.56837   0.00000  Uiso   1.00
C1296  C     0.25083   0.81766   0.55645   0.00000  Uiso   1.00
H1297  H     0.11331   0.70367   0.70978   0.00000  Uiso   1.00
H1298  H     0.04217   0.75426   0.63664   0.00000  Uiso   1.00
H1299  H     0.09908   0.73747   0.63758   0.00000  Uiso   1.00
H1300  H     0.08848   0.79236   0.63545   0.00000  Uiso   1.00
H1301  H     0.02671   0.93206   0.77559   0.00000  Uiso   1.00
H1302  H     0.00144   0.92312   0.86608   0.00000  Uiso   1.00
H1303  H     0.06472   0.91814   0.84932   0.00000  Uiso   1.00
H1304  H     0.02714   0.87204   0.85844   0.00000  Uiso   1.00
H1305  H     0.31421   0.81062   0.92651   0.00000  Uiso   1.00
H1306  H     0.00448   0.74746   0.97598   0.00000  Uiso   1.00
H1307  H     0.30522   0.74087   0.92916   0.00000  Uiso   1.00
H1308  H     0.29798   0.77140   0.71936   0.00000  Uiso   1.00
H1309  H     0.27397   0.74248   0.99951   0.00000  Uiso   1.00
H1310  H     0.25194   0.91105   0.85968   0.00000  Uiso   1.00
H1311  H     0.20054   0.95966   0.84903   0.00000  Uiso   1.00
H1312  H     0.18035   0.94993   0.91932   0.00000  Uiso   1.00
H1313  H     0.15061   0.92545   0.87537   0.00000  Uiso   1.00
H1314  H     0.26518   0.93958   0.70591   0.00000  Uiso   1.00
H1315  H     0.29695   0.68417   0.70354   0.00000  Uiso   1.00
H1316  H     0.33157   0.97292   0.70578   0.00000  Uiso   1.00
H1317  H     0.30263   0.66677   0.76658   0.00000  Uiso   1.00
H1318  H     0.28590   0.89628   0.77498   0.00000  Uiso   1.00
H1319  H     0.27775   0.86081   0.90586   0.00000  Uiso   1.00
H1320  H     0.13947   0.85657   0.59434   0.00000  Uiso   1.00
H1321  H     0.05131   0.83925   0.91894   0.00000  Uiso   1.00
H1322  H     0.08348   0.84390   0.56332   0.00000  Uiso   1.00
H1323  H     0.02578   0.84434   0.51653   0.00000  Uiso   1.00
H1324  H     0.03943   0.73630   0.72530   0.00000  Uiso   1.00
N1325  N     0.04760   0.83334   0.75001   0.00000  Uiso   1.00
N1326  N     0.25780   0.96265   0.73535   0.00000  Uiso   1.00
N1327  N     0.28573   0.83331   0.75000   0.00000  Uiso   1.00
N1328  N     0.31070   0.78457   0.59637   0.00000  Uiso   1.00
N1329  N     0.24048   0.72214   0.83083   0.00000  Uiso   1.00
N1330  N     0.08905   0.93957   0.66639   0.00000  Uiso   1.00
N1331  N     0.05578   0.76398   0.70962   0.00000  Uiso   1.00
N1332  N     0.03729   0.90434   0.78680   0.00000  Uiso   1.00
N1333  N     0.30290   0.80086   0.96526   0.00000  Uiso   1.00
N1334  N     0.21725   0.90068   0.86975   0.00000  Uiso   1.00
O1335  O     0.12846   0.89442   0.75000   0.00000  Uiso   1.00
O1336  O     0.20490   0.89441   0.75000   0.00000  Uiso   1.00
O1337  O     0.10947   0.83333   0.82681   0.00000  Uiso   1.00
O1338  O     0.18591   0.83332   0.82681   0.00000  Uiso   1.00
O1339  O     0.12843   0.77226   0.75000   0.00000  Uiso   1.00
O1340  O     0.20488   0.77225   0.75000   0.00000  Uiso   1.00
O1341  O     0.14742   0.83335   0.67319   0.00000  Uiso   1.00
O1342  O     0.22387   0.83334   0.67319   0.00000  Uiso   1.00
Zn1343 Zn    0.11562   0.83334   0.75000   0.00000  Uiso   1.00
Zn1344 Zn    0.21771   0.83333   0.75000   0.00000  Uiso   1.00
C1345  C     0.50266   0.91294   0.74360   0.00000  Uiso   1.00
C1346  C     0.45879   0.84730   0.90918   0.00000  Uiso   1.00
C1347  C     0.54498   0.98022   0.74515   0.00000  Uiso   1.00
C1348  C     0.47425   0.83748   0.85150   0.00000  Uiso   1.00
C1349  C     0.53475   0.68776   0.76388   0.00000  Uiso   1.00
C1350  C     0.49974   0.70855   0.74953   0.00000  Uiso   1.00
C1351  C     0.47117   0.68723   0.72409   0.00000  Uiso   1.00
C1352  C     0.47415   0.97783   0.71711   0.00000  Uiso   1.00
C1353  C     0.50825   0.95715   0.73308   0.00000  Uiso   1.00
C1354  C     0.64630   0.79890   0.73322   0.00000  Uiso   1.00
C1355  C     0.36119   0.79918   0.73156   0.00000  Uiso   1.00
C1356  C     0.47862   0.85090   0.99144   0.00000  Uiso   1.00
C1357  C     0.35298   0.86796   0.76697   0.00000  Uiso   1.00
C1358  C     0.63938   0.86813   0.76472   0.00000  Uiso   1.00
C1359  C     0.49909   0.75325   0.75170   0.00000  Uiso   1.00
C1360  C     0.52587   0.83243   0.64829   0.00000  Uiso   1.00
C1361  C     0.59501   0.82041   0.50054   0.00000  Uiso   1.00
C1362  C     0.54031   0.83240   0.59014   0.00000  Uiso   1.00
C1363  C     0.41076   0.84427   0.93873   0.00000  Uiso   1.00
C1364  C     0.39630   0.84630   0.99413   0.00000  Uiso   1.00
C1365  C     0.42986   0.84745   0.52064   0.00000  Uiso   1.00
C1366  C     0.61745   0.79931   0.57862   0.00000  Uiso   1.00
C1367  C     0.49198   0.85665   0.93616   0.00000  Uiso   1.00
C1368  C     0.55665   0.70682   0.80102   0.00000  Uiso   1.00
C1369  C     0.44523   0.95659   0.68912   0.00000  Uiso   1.00
C1370  C     0.40547   0.76209   0.65188   0.00000  Uiso   1.00
C1371  C     0.36565   0.90423   0.84302   0.00000  Uiso   1.00
C1372  C     0.63817   0.75572   0.96788   0.00000  Uiso   1.00
C1373  C     0.51866   0.93554   0.87913   0.00000  Uiso   1.00
C1374  C     0.63226   0.99011   0.72756   0.00000  Uiso   1.00
C1375  C     0.51510   0.84544   0.51398   0.00000  Uiso   1.00
C1376  C     0.56206   0.83944   0.98034   0.00000  Uiso   1.00
C1377  C     0.57452   0.85538   0.92892   0.00000  Uiso   1.00
C1378  C     0.53914   0.86980   0.91002   0.00000  Uiso   1.00
C1379  C     0.50618   0.84515   0.56837   0.00000  Uiso   1.00
C1380  C     0.58416   0.81766   0.55645   0.00000  Uiso   1.00
H1381  H     0.44664   0.70367   0.70978   0.00000  Uiso   1.00
H1382  H     0.37550   0.75426   0.63664   0.00000  Uiso   1.00
H1383  H     0.43242   0.73747   0.63758   0.00000  Uiso   1.00
H1384  H     0.42182   0.79236   0.63545   0.00000  Uiso   1.00
H1385  H     0.36005   0.93206   0.77559   0.00000  Uiso   1.00
H1386  H     0.33477   0.92312   0.86608   0.00000  Uiso   1.00
H1387  H     0.39806   0.91814   0.84932   0.00000  Uiso   1.00
H1388  H     0.36048   0.87204   0.85844   0.00000  Uiso   1.00
H1389  H     0.64754   0.81062   0.92651   0.00000  Uiso   1.00
H1390  H     0.33782   0.74746   0.97598   0.00000  Uiso   1.00
H1391  H     0.63855   0.74087   0.92916   0.00000  Uiso   1.00
H1392  H     0.63131   0.77140   0.71936   0.00000  Uiso   1.00
H1393  H     0.60731   0.74248   0.99951   0.00000  Uiso   1.00
H1394  H     0.58527   0.91105   0.85968   0.00000  Uiso   1.00
H1395  H     0.53388   0.95966   0.84903   0.00000  Uiso   1.00
H1396  H     0.51368   0.94993   0.91932   0.00000  Uiso   1.00
H1397  H     0.48394   0.92545   0.87537   0.00000  Uiso   1.00
H1398  H     0.59851   0.93958   0.70591   0.00000  Uiso   1.00
H1399  H     0.63028   0.68417   0.70354   0.00000  Uiso   1.00
H1400  H     0.66491   0.97292   0.70578   0.00000  Uiso   1.00
H1401  H     0.63596   0.66677   0.76658   0.00000  Uiso   1.00
H1402  H     0.61923   0.89628   0.77498   0.00000  Uiso   1.00
H1403  H     0.61109   0.86081   0.90586   0.00000  Uiso   1.00
H1404  H     0.47281   0.85657   0.59434   0.00000  Uiso   1.00
H1405  H     0.38464   0.83925   0.91894   0.00000  Uiso   1.00
H1406  H     0.41681   0.84390   0.56332   0.00000  Uiso   1.00
H1407  H     0.35911   0.84434   0.51653   0.00000  Uiso   1.00
H1408  H     0.37276   0.73630   0.72530   0.00000  Uiso   1.00
N1409  N     0.38093   0.83334   0.75001   0.00000  Uiso   1.00
N1410  N     0.59113   0.96265   0.73535   0.00000  Uiso   1.00
N1411  N     0.61906   0.83331   0.75000   0.00000  Uiso   1.00
N1412  N     0.64403   0.78457   0.59637   0.00000  Uiso   1.00
N1413  N     0.57381   0.72214   0.83083   0.00000  Uiso   1.00
N1414  N     0.42239   0.93957   0.66639   0.00000  Uiso   1.00
N1415  N     0.38912   0.76398   0.70962   0.00000  Uiso   1.00
N1416  N     0.37062   0.90434   0.78680   0.00000  Uiso   1.00
N1417  N     0.63624   0.80086   0.96526   0.00000  Uiso   1.00
N1418  N     0.55058   0.90068   0.86975   0.00000  Uiso   1.00
O1419  O     0.46179   0.89442   0.75000   0.00000  Uiso   1.00
O1420  O     0.53823   0.89441   0.75000   0.00000  Uiso   1.00
O1421  O     0.44280   0.83333   0.82681   0.00000  Uiso   1.00
O1422  O     0.51924   0.83332   0.82681   0.00000  Uiso   1.00
O1423  O     0.46177   0.77226   0.75000   0.00000  Uiso   1.00
O1424  O     0.53821   0.77225   0.75000   0.00000  Uiso   1.00
O1425  O     0.48076   0.83335   0.67319   0.00000  Uiso   1.00
O1426  O     0.55720   0.83334   0.67319   0.00000  Uiso   1.00
Zn1427 Zn    0.44896   0.83334   0.75000   0.00000  Uiso   1.00
Zn1428 Zn    0.55104   0.83333   0.75000   0.00000  Uiso   1.00
C1429  C     0.83600   0.91294   0.74360   0.00000  Uiso   1.00
C1430  C     0.79212   0.84730   0.90918   0.00000  Uiso   1.00
C1431  C     0.87832   0.98022   0.74515   0.00000  Uiso   1.00
C1432  C     0.80758   0.83748   0.85150   0.00000  Uiso   1.00
C1433  C     0.86808   0.68776   0.76388   0.00000  Uiso   1.00
C1434  C     0.83307   0.70855   0.74953   0.00000  Uiso   1.00
C1435  C     0.80451   0.68723   0.72409   0.00000  Uiso   1.00
C1436  C     0.80748   0.97783   0.71711   0.00000  Uiso   1.00
C1437  C     0.84158   0.95715   0.73308   0.00000  Uiso   1.00
C1438  C     0.97963   0.79890   0.73322   0.00000  Uiso   1.00
C1439  C     0.69452   0.79918   0.73156   0.00000  Uiso   1.00
C1440  C     0.81195   0.85090   0.99144   0.00000  Uiso   1.00
C1441  C     0.68632   0.86796   0.76697   0.00000  Uiso   1.00
C1442  C     0.97271   0.86813   0.76472   0.00000  Uiso   1.00
C1443  C     0.83242   0.75325   0.75170   0.00000  Uiso   1.00
C1444  C     0.85921   0.83243   0.64829   0.00000  Uiso   1.00
C1445  C     0.92834   0.82041   0.50054   0.00000  Uiso   1.00
C1446  C     0.87364   0.83240   0.59014   0.00000  Uiso   1.00
C1447  C     0.74409   0.84427   0.93873   0.00000  Uiso   1.00
C1448  C     0.72963   0.84630   0.99413   0.00000  Uiso   1.00
C1449  C     0.76320   0.84745   0.52064   0.00000  Uiso   1.00
C1450  C     0.95079   0.79931   0.57862   0.00000  Uiso   1.00
C1451  C     0.82531   0.85665   0.93616   0.00000  Uiso   1.00
C1452  C     0.88998   0.70682   0.80102   0.00000  Uiso   1.00
C1453  C     0.77856   0.95659   0.68912   0.00000  Uiso   1.00
C1454  C     0.73880   0.76209   0.65188   0.00000  Uiso   1.00
C1455  C     0.69899   0.90423   0.84302   0.00000  Uiso   1.00
C1456  C     0.97150   0.75572   0.96788   0.00000  Uiso   1.00
C1457  C     0.85199   0.93554   0.87913   0.00000  Uiso   1.00
C1458  C     0.96560   0.99011   0.72756   0.00000  Uiso   1.00
C1459  C     0.84843   0.84544   0.51398   0.00000  Uiso   1.00
C1460  C     0.89539   0.83944   0.98034   0.00000  Uiso   1.00
C1461  C     0.90785   0.85538   0.92892   0.00000  Uiso   1.00
C1462  C     0.87248   0.86980   0.91002   0.00000  Uiso   1.00
C1463  C     0.83951   0.84515   0.56837   0.00000  Uiso   1.00
C1464  C     0.91749   0.81766   0.55645   0.00000  Uiso   1.00
H1465  H     0.77998   0.70367   0.70978   0.00000  Uiso   1.00
H1466  H     0.70884   0.75426   0.63664   0.00000  Uiso   1.00
H1467  H     0.76575   0.73747   0.63758   0.00000  Uiso   1.00
H1468  H     0.75515   0.79236   0.63545   0.00000  Uiso   1.00
H1469  H     0.69338   0.93206   0.77559   0.00000  Uiso   1.00
H1470  H     0.66811   0.92312   0.86608   0.00000  Uiso   1.00
H1471  H     0.73139   0.91814   0.84932   0.00000  Uiso   1.00
H1472  H     0.69381   0.87204   0.85844   0.00000  Uiso   1.00
H1473  H     0.98088   0.81062   0.92651   0.00000  Uiso   1.00
H1474  H     0.67115   0.74746   0.97598   0.00000  Uiso   1.00
H1475  H     0.97188   0.74087   0.92916   0.00000  Uiso   1.00
H1476  H     0.96464   0.77140   0.71936   0.00000  Uiso   1.00
H1477  H     0.94064   0.74248   0.99951   0.00000  Uiso   1.00
H1478  H     0.91860   0.91105   0.85968   0.00000  Uiso   1.00
H1479  H     0.86721   0.95966   0.84903   0.00000  Uiso   1.00
H1480  H     0.84702   0.94993   0.91932   0.00000  Uiso   1.00
H1481  H     0.81727   0.92545   0.87537   0.00000  Uiso   1.00
H1482  H     0.93185   0.93958   0.70591   0.00000  Uiso   1.00
H1483  H     0.96362   0.68417   0.70354   0.00000  Uiso   1.00
H1484  H     0.99824   0.97292   0.70578   0.00000  Uiso   1.00
H1485  H     0.96930   0.66677   0.76658   0.00000  Uiso   1.00
H1486  H     0.95256   0.89628   0.77498   0.00000  Uiso   1.00
H1487  H     0.94442   0.86081   0.90586   0.00000  Uiso   1.00
H1488  H     0.80614   0.85657   0.59434   0.00000  Uiso   1.00
H1489  H     0.71798   0.83925   0.91894   0.00000  Uiso   1.00
H1490  H     0.75014   0.84390   0.56332   0.00000  Uiso   1.00
H1491  H     0.69245   0.84434   0.51653   0.00000  Uiso   1.00
H1492  H     0.70609   0.73630   0.72530   0.00000  Uiso   1.00
N1493  N     0.71426   0.83334   0.75001   0.00000  Uiso   1.00
N1494  N     0.92447   0.96265   0.73535   0.00000  Uiso   1.00
N1495  N     0.95239   0.83331   0.75000   0.00000  Uiso   1.00
N1496  N     0.97736   0.78457   0.59637   0.00000  Uiso   1.00
N1497  N     0.90715   0.72214   0.83083   0.00000  Uiso   1.00
N1498  N     0.75572   0.93957   0.66639   0.00000  Uiso   1.00
N1499  N     0.72245   0.76398   0.70962   0.00000  Uiso   1.00
N1500  N     0.70395   0.90434   0.78680   0.00000  Uiso   1.00
N1501  N     0.96957   0.80086   0.96526   0.00000  Uiso   1.00
N1502  N     0.88391   0.90068   0.86975   0.00000  Uiso   1.00
O1503  O     0.79512   0.89442   0.75000   0.00000  Uiso   1.00
O1504  O     0.87157   0.89441   0.75000   0.00000  Uiso   1.00
O1505  O     0.77613   0.83333   0.82681   0.00000  Uiso   1.00
O1506  O     0.85258   0.83332   0.82681   0.00000  Uiso   1.00
O1507  O     0.79510   0.77226   0.75000   0.00000  Uiso   1.00
O1508  O     0.87154   0.77225   0.75000   0.00000  Uiso   1.00
O1509  O     0.81409   0.83335   0.67319   0.00000  Uiso   1.00
O1510  O     0.89053   0.83334   0.67319   0.00000  Uiso   1.00
Zn1511 Zn    0.78229   0.83334   0.75000   0.00000  Uiso   1.00
Zn1512 Zn    0.88438   0.83333   0.75000   0.00000  Uiso   1.00
loop_
_geom_bond_atom_site_label_1
_geom_bond_atom_site_label_2
_geom_bond_distance
_geom_bond_site_symmetry_2
_ccdc_geom_bond_type
C1     O75     1.303   .     A
C1     C9      1.445   .     S
C1     O76     1.287   .     A
C2     C4      1.472   .     S
C2     C19     1.398   .     A
C2     C23     1.412   .     A
C3     C9      1.417   .     A
C3     N66     1.442   .     S
C3     C257    1.390   .     S
C4     O78     1.300   .     A
C4     O77     1.302   .     A
C5     C6      1.406   .     A
C5     C24     1.452   .     S
C5     C507    1.390   1_545 S
C6     C15     1.430   .     S
C6     C7      1.395   .     A
C7     H37     1.078   .     S
C7     C512    1.375   1_545 S
C8     C9      1.405   .     A
C8     C25     1.447   .     S
C8     C259    1.375   .     S
C10    N67     1.363   .     A
C10    H48     1.082   .     S
C10    C95     1.423   .     S
C11    N71     1.415   .     S
C11    N65     1.376   .     A
C11    C178    1.423   1_455 S
C12    C23     1.404   .     A
C12    C777    1.415   .     S
C12    C787    1.412   .     S
C13    N65     1.379   .     A
C13    N72     1.418   .     S
C13    C182    1.418   1_455 S
C14    N67     1.358   .     A
C14    H58     1.075   .     S
C14    C97     1.418   .     S
C15    O79     1.295   .     A
C15    O80     1.288   .     A
C16    O82     1.301   .     A
C16    O81     1.296   .     A
C16    C18     1.459   .     S
C17    C36     1.414   .     A
C17    C788    1.415   1_554 S
C17    N829    1.431   1_554 S
C18    C35     1.392   .     A
C18    C36     1.411   .     A
C19    C20     1.389   .     A
C19    H61     1.073   .     S
C20    C777    1.390   .     S
C20    H819    1.079   .     S
C21    H62     1.079   .     S
C21    C776    1.390   1_554 S
C21    C768    1.415   1_554 S
C22    N68     1.157   .     T
C22    C36     1.447   .     S
C23    C34     1.414   .     A
C24    N69     1.158   .     T
C25    N70     1.157   .     T
C26    N71     1.447   .     S
C26    H39     1.109   .     S
C26    H38     1.110   .     S
C26    H40     1.109   .     S
C27    H44     1.108   .     S
C27    H43     1.110   .     S
C27    H42     1.111   .     S
C27    N72     1.446   .     S
C28    H47     1.112   .     S
C28    N73     1.452   .     S
C28    H49     1.112   .     S
C28    H130    1.110   .     S
C29    N74     1.449   .     S
C29    H51     1.107   .     S
C29    H53     1.108   .     S
C29    H52     1.112   .     S
C30    H56     1.111   .     S
C30    N66     1.452   .     S
C30    H307    1.112   .     S
C30    H309    1.108   .     S
C31    C35     1.377   .     A
C31    C768    1.412   1_554 S
C31    C788    1.414   1_554 S
C32    C33     1.399   .     A
C32    C773    1.415   .     S
C32    C787    1.414   .     S
C33    H59     1.078   .     S
C33    C34     1.395   .     A
C34    N74     1.429   .     S
C35    H60     1.079   .     S
H41    N72     1.032   .     S
H45    N73     1.027   .     S
H46    C196    1.110   1_455 S
H50    N74     1.030   .     S
H54    N66     1.031   .     S
H55    C534    1.112   1_545 S
H57    C534    1.108   1_545 S
H63    C776    1.079   1_554 S
H64    N71     1.032   .     S
N65    Zn83    2.026   .     S
N67    Zn84    2.026   .     S
N73    C773    1.431   .     S
O75    Zn83    1.981   .     S
O76    Zn84    2.001   .     S
O77    Zn83    1.980   .     S
O78    Zn84    1.949   .     S
O79    Zn83    2.001   .     S
O80    Zn84    1.981   .     S
O81    Zn83    1.949   .     S
O82    Zn84    1.980   .     S
C85    O159    1.303   .     A
C85    C93     1.445   .     S
C85    O160    1.287   .     A
C86    C88     1.472   .     S
C86    C103    1.398   .     A
C86    C107    1.412   .     A
C87    C93     1.417   .     A
C87    N150    1.442   .     S
C87    C341    1.390   .     S
C88    O162    1.300   .     A
C88    O161    1.302   .     A
C89    C90     1.406   .     A
C89    C108    1.452   .     S
C89    C591    1.390   1_545 S
C90    C99     1.430   .     S
C90    C91     1.395   .     A
C91    H121    1.078   .     S
C91    C596    1.375   1_545 S
C92    C93     1.405   .     A
C92    C109    1.447   .     S
C92    C343    1.375   .     S
C94    N151    1.363   .     A
C94    H132    1.082   .     S
C94    C179    1.423   .     S
C95    N155    1.415   .     S
C95    N149    1.376   .     A
C96    C107    1.404   .     A
C96    C861    1.415   .     S
C96    C871    1.412   .     S
C97    N149    1.379   .     A
C97    N156    1.418   .     S
C98    N151    1.358   .     A
C98    H142    1.075   .     S
C98    C181    1.418   .     S
C99    O163    1.295   .     A
C99    O164    1.288   .     A
C100   O166    1.301   .     A
C100   O165    1.296   .     A
C100   C102    1.459   .     S
C101   C120    1.414   .     A
C101   C872    1.415   1_554 S
C101   N913    1.431   1_554 S
C102   C119    1.392   .     A
C102   C120    1.411   .     A
C103   C104    1.389   .     A
C103   H145    1.073   .     S
C104   C861    1.390   .     S
C104   H903    1.079   .     S
C105   H146    1.079   .     S
C105   C860    1.390   1_554 S
C105   C852    1.415   1_554 S
C106   N152    1.157   .     T
C106   C120    1.447   .     S
C107   C118    1.414   .     A
C108   N153    1.158   .     T
C109   N154    1.157   .     T
C110   N155    1.447   .     S
C110   H123    1.109   .     S
C110   H122    1.110   .     S
C110   H124    1.109   .     S
C111   H128    1.108   .     S
C111   H127    1.110   .     S
C111   H126    1.111   .     S
C111   N156    1.446   .     S
C112   H131    1.112   .     S
C112   N157    1.452   .     S
C112   H133    1.112   .     S
C112   H214    1.110   .     S
C113   N158    1.449   .     S
C113   H135    1.107   .     S
C113   H137    1.108   .     S
C113   H136    1.112   .     S
C114   H140    1.111   .     S
C114   N150    1.452   .     S
C114   H391    1.112   .     S
C114   H393    1.108   .     S
C115   C119    1.377   .     A
C115   C852    1.412   1_554 S
C115   C872    1.414   1_554 S
C116   C117    1.399   .     A
C116   C857    1.415   .     S
C116   C871    1.414   .     S
C117   H143    1.078   .     S
C117   C118    1.395   .     A
C118   N158    1.429   .     S
C119   H144    1.079   .     S
H125   N156    1.032   .     S
H129   N157    1.027   .     S
H134   N158    1.030   .     S
H138   N150    1.031   .     S
H139   C618    1.112   1_545 S
H141   C618    1.108   1_545 S
H147   C860    1.079   1_554 S
H148   N155    1.032   .     S
N149   Zn167   2.026   .     S
N151   Zn168   2.026   .     S
N157   C857    1.431   .     S
O159   Zn167   1.981   .     S
O160   Zn168   2.001   .     S
O161   Zn167   1.980   .     S
O162   Zn168   1.949   .     S
O163   Zn167   2.001   .     S
O164   Zn168   1.981   .     S
O165   Zn167   1.949   .     S
O166   Zn168   1.980   .     S
C169   O243    1.303   .     A
C169   C177    1.445   .     S
C169   O244    1.287   .     A
C170   C172    1.472   .     S
C170   C187    1.398   .     A
C170   C191    1.412   .     A
C171   C177    1.417   .     A
C171   N234    1.442   .     S
C171   C425    1.390   .     S
C172   O246    1.300   .     A
C172   O245    1.302   .     A
C173   C174    1.406   .     A
C173   C192    1.452   .     S
C173   C675    1.390   1_545 S
C174   C183    1.430   .     S
C174   C175    1.395   .     A
C175   H205    1.078   .     S
C175   C680    1.375   1_545 S
C176   C177    1.405   .     A
C176   C193    1.447   .     S
C176   C427    1.375   .     S
C178   N235    1.363   .     A
C178   H216    1.082   .     S
C178   C11     1.423   1_655 S
C179   N239    1.415   .     S
C179   N233    1.376   .     A
C180   C191    1.404   .     A
C180   C945    1.415   .     S
C180   C955    1.412   .     S
C181   N233    1.379   .     A
C181   N240    1.418   .     S
C182   N235    1.358   .     A
C182   H226    1.075   .     S
C182   C13     1.418   1_655 S
C183   O247    1.295   .     A
C183   O248    1.288   .     A
C184   O250    1.301   .     A
C184   O249    1.296   .     A
C184   C186    1.459   .     S
C185   C204    1.414   .     A
C185   C956    1.415   1_554 S
C185   N997    1.431   1_554 S
C186   C203    1.392   .     A
C186   C204    1.411   .     A
C187   C188    1.389   .     A
C187   H229    1.073   .     S
C188   C945    1.390   .     S
C188   H987    1.079   .     S
C189   H230    1.079   .     S
C189   C944    1.390   1_554 S
C189   C936    1.415   1_554 S
C190   N236    1.157   .     T
C190   C204    1.447   .     S
C191   C202    1.414   .     A
C192   N237    1.158   .     T
C193   N238    1.157   .     T
C194   N239    1.447   .     S
C194   H207    1.109   .     S
C194   H206    1.110   .     S
C194   H208    1.109   .     S
C195   H212    1.108   .     S
C195   H211    1.110   .     S
C195   H210    1.111   .     S
C195   N240    1.446   .     S
C196   H215    1.112   .     S
C196   N241    1.452   .     S
C196   H217    1.112   .     S
C196   H46     1.110   1_655 S
C197   N242    1.449   .     S
C197   H219    1.107   .     S
C197   H221    1.108   .     S
C197   H220    1.112   .     S
C198   H224    1.111   .     S
C198   N234    1.452   .     S
C198   H475    1.112   .     S
C198   H477    1.108   .     S
C199   C203    1.377   .     A
C199   C936    1.412   1_554 S
C199   C956    1.414   1_554 S
C200   C201    1.399   .     A
C200   C941    1.415   .     S
C200   C955    1.414   .     S
C201   H227    1.078   .     S
C201   C202    1.395   .     A
C202   N242    1.429   .     S
C203   H228    1.079   .     S
H209   N240    1.032   .     S
H213   N241    1.027   .     S
H218   N242    1.030   .     S
H222   N234    1.031   .     S
H223   C702    1.112   1_545 S
H225   C702    1.108   1_545 S
H231   C944    1.079   1_554 S
H232   N239    1.032   .     S
N233   Zn251   2.026   .     S
N235   Zn252   2.026   .     S
N241   C941    1.431   .     S
O243   Zn251   1.981   .     S
O244   Zn252   2.001   .     S
O245   Zn251   1.980   .     S
O246   Zn252   1.949   .     S
O247   Zn251   2.001   .     S
O248   Zn252   1.981   .     S
O249   Zn251   1.949   .     S
O250   Zn252   1.980   .     S
C253   O327    1.303   .     A
C253   C261    1.445   .     S
C253   O328    1.287   .     A
C254   C256    1.472   .     S
C254   C271    1.398   .     A
C254   C275    1.412   .     A
C255   C261    1.417   .     A
C255   N318    1.442   .     S
C255   C509    1.390   .     S
C256   O330    1.300   .     A
C256   O329    1.302   .     A
C257   C258    1.406   .     A
C257   C276    1.452   .     S
C258   C267    1.430   .     S
C258   C259    1.395   .     A
C259   H289    1.078   .     S
C260   C261    1.405   .     A
C260   C277    1.447   .     S
C260   C511    1.375   .     S
C262   N319    1.363   .     A
C262   H300    1.082   .     S
C262   C347    1.423   .     S
C263   N323    1.415   .     S
C263   N317    1.376   .     A
C263   C430    1.423   1_455 S
C264   C275    1.404   .     A
C264   C1029   1.415   .     S
C264   C1039   1.412   .     S
C265   N317    1.379   .     A
C265   N324    1.418   .     S
C265   C434    1.418   1_455 S
C266   N319    1.358   .     A
C266   H310    1.075   .     S
C266   C349    1.418   .     S
C267   O331    1.295   .     A
C267   O332    1.288   .     A
C268   O334    1.301   .     A
C268   O333    1.296   .     A
C268   C270    1.459   .     S
C269   C288    1.414   .     A
C269   C1040   1.415   1_554 S
C269   N1081   1.431   1_554 S
C270   C287    1.392   .     A
C270   C288    1.411   .     A
C271   C272    1.389   .     A
C271   H313    1.073   .     S
C272   C1029   1.390   .     S
C272   H1071   1.079   .     S
C273   H314    1.079   .     S
C273   C1028   1.390   1_554 S
C273   C1020   1.415   1_554 S
C274   N320    1.157   .     T
C274   C288    1.447   .     S
C275   C286    1.414   .     A
C276   N321    1.158   .     T
C277   N322    1.157   .     T
C278   N323    1.447   .     S
C278   H291    1.109   .     S
C278   H290    1.110   .     S
C278   H292    1.109   .     S
C279   H296    1.108   .     S
C279   H295    1.110   .     S
C279   H294    1.111   .     S
C279   N324    1.446   .     S
C280   H299    1.112   .     S
C280   N325    1.452   .     S
C280   H301    1.112   .     S
C280   H382    1.110   .     S
C281   N326    1.449   .     S
C281   H303    1.107   .     S
C281   H305    1.108   .     S
C281   H304    1.112   .     S
C282   H308    1.111   .     S
C282   N318    1.452   .     S
C282   H559    1.112   .     S
C282   H561    1.108   .     S
C283   C287    1.377   .     A
C283   C1020   1.412   1_554 S
C283   C1040   1.414   1_554 S
C284   C285    1.399   .     A
C284   C1025   1.415   .     S
C284   C1039   1.414   .     S
C285   H311    1.078   .     S
C285   C286    1.395   .     A
C286   N326    1.429   .     S
C287   H312    1.079   .     S
H293   N324    1.032   .     S
H297   N325    1.027   .     S
H298   C448    1.110   1_455 S
H302   N326    1.030   .     S
H306   N318    1.031   .     S
H315   C1028   1.079   1_554 S
H316   N323    1.032   .     S
N317   Zn335   2.026   .     S
N319   Zn336   2.026   .     S
N325   C1025   1.431   .     S
O327   Zn335   1.981   .     S
O328   Zn336   2.001   .     S
O329   Zn335   1.980   .     S
O330   Zn336   1.949   .     S
O331   Zn335   2.001   .     S
O332   Zn336   1.981   .     S
O333   Zn335   1.949   .     S
O334   Zn336   1.980   .     S
C337   O411    1.303   .     A
C337   C345    1.445   .     S
C337   O412    1.287   .     A
C338   C340    1.472   .     S
C338   C355    1.398   .     A
C338   C359    1.412   .     A
C339   C345    1.417   .     A
C339   N402    1.442   .     S
C339   C593    1.390   .     S
C340   O414    1.300   .     A
C340   O413    1.302   .     A
C341   C342    1.406   .     A
C341   C360    1.452   .     S
C342   C351    1.430   .     S
C342   C343    1.395   .     A
C343   H373    1.078   .     S
C344   C345    1.405   .     A
C344   C361    1.447   .     S
C344   C595    1.375   .     S
C346   N403    1.363   .     A
C346   H384    1.082   .     S
C346   C431    1.423   .     S
C347   N407    1.415   .     S
C347   N401    1.376   .     A
C348   C359    1.404   .     A
C348   C1113   1.415   .     S
C348   C1123   1.412   .     S
C349   N401    1.379   .     A
C349   N408    1.418   .     S
C350   N403    1.358   .     A
C350   H394    1.075   .     S
C350   C433    1.418   .     S
C351   O415    1.295   .     A
C351   O416    1.288   .     A
C352   O418    1.301   .     A
C352   O417    1.296   .     A
C352   C354    1.459   .     S
C353   C372    1.414   .     A
C353   C1124   1.415   1_554 S
C353   N1165   1.431   1_554 S
C354   C371    1.392   .     A
C354   C372    1.411   .     A
C355   C356    1.389   .     A
C355   H397    1.073   .     S
C356   C1113   1.390   .     S
C356   H1155   1.079   .     S
C357   H398    1.079   .     S
C357   C1112   1.390   1_554 S
C357   C1104   1.415   1_554 S
C358   N404    1.157   .     T
C358   C372    1.447   .     S
C359   C370    1.414   .     A
C360   N405    1.158   .     T
C361   N406    1.157   .     T
C362   N407    1.447   .     S
C362   H375    1.109   .     S
C362   H374    1.110   .     S
C362   H376    1.109   .     S
C363   H380    1.108   .     S
C363   H379    1.110   .     S
C363   H378    1.111   .     S
C363   N408    1.446   .     S
C364   H383    1.112   .     S
C364   N409    1.452   .     S
C364   H385    1.112   .     S
C364   H466    1.110   .     S
C365   N410    1.449   .     S
C365   H387    1.107   .     S
C365   H389    1.108   .     S
C365   H388    1.112   .     S
C366   H392    1.111   .     S
C366   N402    1.452   .     S
C366   H643    1.112   .     S
C366   H645    1.108   .     S
C367   C371    1.377   .     A
C367   C1104   1.412   1_554 S
C367   C1124   1.414   1_554 S
C368   C369    1.399   .     A
C368   C1109   1.415   .     S
C368   C1123   1.414   .     S
C369   H395    1.078   .     S
C369   C370    1.395   .     A
C370   N410    1.429   .     S
C371   H396    1.079   .     S
H377   N408    1.032   .     S
H381   N409    1.027   .     S
H386   N410    1.030   .     S
H390   N402    1.031   .     S
H399   C1112   1.079   1_554 S
H400   N407    1.032   .     S
N401   Zn419   2.026   .     S
N403   Zn420   2.026   .     S
N409   C1109   1.431   .     S
O411   Zn419   1.981   .     S
O412   Zn420   2.001   .     S
O413   Zn419   1.980   .     S
O414   Zn420   1.949   .     S
O415   Zn419   2.001   .     S
O416   Zn420   1.981   .     S
O417   Zn419   1.949   .     S
O418   Zn420   1.980   .     S
C421   O495    1.303   .     A
C421   C429    1.445   .     S
C421   O496    1.287   .     A
C422   C424    1.472   .     S
C422   C439    1.398   .     A
C422   C443    1.412   .     A
C423   C429    1.417   .     A
C423   N486    1.442   .     S
C423   C677    1.390   .     S
C424   O498    1.300   .     A
C424   O497    1.302   .     A
C425   C426    1.406   .     A
C425   C444    1.452   .     S
C426   C435    1.430   .     S
C426   C427    1.395   .     A
C427   H457    1.078   .     S
C428   C429    1.405   .     A
C428   C445    1.447   .     S
C428   C679    1.375   .     S
C430   N487    1.363   .     A
C430   H468    1.082   .     S
C430   C263    1.423   1_655 S
C431   N491    1.415   .     S
C431   N485    1.376   .     A
C432   C443    1.404   .     A
C432   C1197   1.415   .     S
C432   C1207   1.412   .     S
C433   N485    1.379   .     A
C433   N492    1.418   .     S
C434   N487    1.358   .     A
C434   H478    1.075   .     S
C434   C265    1.418   1_655 S
C435   O499    1.295   .     A
C435   O500    1.288   .     A
C436   O502    1.301   .     A
C436   O501    1.296   .     A
C436   C438    1.459   .     S
C437   C456    1.414   .     A
C437   C1208   1.415   1_554 S
C437   N1249   1.431   1_554 S
C438   C455    1.392   .     A
C438   C456    1.411   .     A
C439   C440    1.389   .     A
C439   H481    1.073   .     S
C440   C1197   1.390   .     S
C440   H1239   1.079   .     S
C441   H482    1.079   .     S
C441   C1196   1.390   1_554 S
C441   C1188   1.415   1_554 S
C442   N488    1.157   .     T
C442   C456    1.447   .     S
C443   C454    1.414   .     A
C444   N489    1.158   .     T
C445   N490    1.157   .     T
C446   N491    1.447   .     S
C446   H459    1.109   .     S
C446   H458    1.110   .     S
C446   H460    1.109   .     S
C447   H464    1.108   .     S
C447   H463    1.110   .     S
C447   H462    1.111   .     S
C447   N492    1.446   .     S
C448   H467    1.112   .     S
C448   N493    1.452   .     S
C448   H469    1.112   .     S
C448   H298    1.110   1_655 S
C449   N494    1.449   .     S
C449   H471    1.107   .     S
C449   H473    1.108   .     S
C449   H472    1.112   .     S
C450   H476    1.111   .     S
C450   N486    1.452   .     S
C450   H727    1.112   .     S
C450   H729    1.108   .     S
C451   C455    1.377   .     A
C451   C1188   1.412   1_554 S
C451   C1208   1.414   1_554 S
C452   C453    1.399   .     A
C452   C1193   1.415   .     S
C452   C1207   1.414   .     S
C453   H479    1.078   .     S
C453   C454    1.395   .     A
C454   N494    1.429   .     S
C455   H480    1.079   .     S
H461   N492    1.032   .     S
H465   N493    1.027   .     S
H470   N494    1.030   .     S
H474   N486    1.031   .     S
H483   C1196   1.079   1_554 S
H484   N491    1.032   .     S
N485   Zn503   2.026   .     S
N487   Zn504   2.026   .     S
N493   C1193   1.431   .     S
O495   Zn503   1.981   .     S
O496   Zn504   2.001   .     S
O497   Zn503   1.980   .     S
O498   Zn504   1.949   .     S
O499   Zn503   2.001   .     S
O500   Zn504   1.981   .     S
O501   Zn503   1.949   .     S
O502   Zn504   1.980   .     S
C505   O579    1.303   .     A
C505   C513    1.445   .     S
C505   O580    1.287   .     A
C506   C508    1.472   .     S
C506   C523    1.398   .     A
C506   C527    1.412   .     A
C507   C513    1.417   .     A
C507   N570    1.442   .     S
C507   C5      1.390   1_565 S
C508   O582    1.300   .     A
C508   O581    1.302   .     A
C509   C510    1.406   .     A
C509   C528    1.452   .     S
C510   C519    1.430   .     S
C510   C511    1.395   .     A
C511   H541    1.078   .     S
C512   C513    1.405   .     A
C512   C529    1.447   .     S
C512   C7      1.375   1_565 S
C514   N571    1.363   .     A
C514   H552    1.082   .     S
C514   C599    1.423   .     S
C515   N575    1.415   .     S
C515   N569    1.376   .     A
C515   C682    1.423   1_455 S
C516   C527    1.404   .     A
C516   C1281   1.415   .     S
C516   C1291   1.412   .     S
C517   N569    1.379   .     A
C517   N576    1.418   .     S
C517   C686    1.418   1_455 S
C518   N571    1.358   .     A
C518   H562    1.075   .     S
C518   C601    1.418   .     S
C519   O583    1.295   .     A
C519   O584    1.288   .     A
C520   O586    1.301   .     A
C520   O585    1.296   .     A
C520   C522    1.459   .     S
C521   C540    1.414   .     A
C521   C1292   1.415   1_554 S
C521   N1333   1.431   1_554 S
C522   C539    1.392   .     A
C522   C540    1.411   .     A
C523   C524    1.389   .     A
C523   H565    1.073   .     S
C524   C1281   1.390   .     S
C524   H1323   1.079   .     S
C525   H566    1.079   .     S
C525   C1280   1.390   1_554 S
C525   C1272   1.415   1_554 S
C526   N572    1.157   .     T
C526   C540    1.447   .     S
C527   C538    1.414   .     A
C528   N573    1.158   .     T
C529   N574    1.157   .     T
C530   N575    1.447   .     S
C530   H543    1.109   .     S
C530   H542    1.110   .     S
C530   H544    1.109   .     S
C531   H548    1.108   .     S
C531   H547    1.110   .     S
C531   H546    1.111   .     S
C531   N576    1.446   .     S
C532   H551    1.112   .     S
C532   N577    1.452   .     S
C532   H553    1.112   .     S
C532   H634    1.110   .     S
C533   N578    1.449   .     S
C533   H555    1.107   .     S
C533   H557    1.108   .     S
C533   H556    1.112   .     S
C534   H560    1.111   .     S
C534   N570    1.452   .     S
C534   H55     1.112   1_565 S
C534   H57     1.108   1_565 S
C535   C539    1.377   .     A
C535   C1272   1.412   1_554 S
C535   C1292   1.414   1_554 S
C536   C537    1.399   .     A
C536   C1277   1.415   .     S
C536   C1291   1.414   .     S
C537   H563    1.078   .     S
C537   C538    1.395   .     A
C538   N578    1.429   .     S
C539   H564    1.079   .     S
H545   N576    1.032   .     S
H549   N577    1.027   .     S
H550   C700    1.110   1_455 S
H554   N578    1.030   .     S
H558   N570    1.031   .     S
H567   C1280   1.079   1_554 S
H568   N575    1.032   .     S
N569   Zn587   2.026   .     S
N571   Zn588   2.026   .     S
N577   C1277   1.431   .     S
O579   Zn587   1.981   .     S
O580   Zn588   2.001   .     S
O581   Zn587   1.980   .     S
O582   Zn588   1.949   .     S
O583   Zn587   2.001   .     S
O584   Zn588   1.981   .     S
O585   Zn587   1.949   .     S
O586   Zn588   1.980   .     S
C589   O663    1.303   .     A
C589   C597    1.445   .     S
C589   O664    1.287   .     A
C590   C592    1.472   .     S
C590   C607    1.398   .     A
C590   C611    1.412   .     A
C591   C597    1.417   .     A
C591   N654    1.442   .     S
C591   C89     1.390   1_565 S
C592   O666    1.300   .     A
C592   O665    1.302   .     A
C593   C594    1.406   .     A
C593   C612    1.452   .     S
C594   C603    1.430   .     S
C594   C595    1.395   .     A
C595   H625    1.078   .     S
C596   C597    1.405   .     A
C596   C613    1.447   .     S
C596   C91     1.375   1_565 S
C598   N655    1.363   .     A
C598   H636    1.082   .     S
C598   C683    1.423   .     S
C599   N659    1.415   .     S
C599   N653    1.376   .     A
C600   C611    1.404   .     A
C600   C1365   1.415   .     S
C600   C1375   1.412   .     S
C601   N653    1.379   .     A
C601   N660    1.418   .     S
C602   N655    1.358   .     A
C602   H646    1.075   .     S
C602   C685    1.418   .     S
C603   O667    1.295   .     A
C603   O668    1.288   .     A
C604   O670    1.301   .     A
C604   O669    1.296   .     A
C604   C606    1.459   .     S
C605   C624    1.414   .     A
C605   C1376   1.415   1_554 S
C605   N1417   1.431   1_554 S
C606   C623    1.392   .     A
C606   C624    1.411   .     A
C607   C608    1.389   .     A
C607   H649    1.073   .     S
C608   C1365   1.390   .     S
C608   H1407   1.079   .     S
C609   H650    1.079   .     S
C609   C1364   1.390   1_554 S
C609   C1356   1.415   1_554 S
C610   N656    1.157   .     T
C610   C624    1.447   .     S
C611   C622    1.414   .     A
C612   N657    1.158   .     T
C613   N658    1.157   .     T
C614   N659    1.447   .     S
C614   H627    1.109   .     S
C614   H626    1.110   .     S
C614   H628    1.109   .     S
C615   H632    1.108   .     S
C615   H631    1.110   .     S
C615   H630    1.111   .     S
C615   N660    1.446   .     S
C616   H635    1.112   .     S
C616   N661    1.452   .     S
C616   H637    1.112   .     S
C616   H718    1.110   .     S
C617   N662    1.449   .     S
C617   H639    1.107   .     S
C617   H641    1.108   .     S
C617   H640    1.112   .     S
C618   H644    1.111   .     S
C618   N654    1.452   .     S
C618   H139    1.112   1_565 S
C618   H141    1.108   1_565 S
C619   C623    1.377   .     A
C619   C1356   1.412   1_554 S
C619   C1376   1.414   1_554 S
C620   C621    1.399   .     A
C620   C1361   1.415   .     S
C620   C1375   1.414   .     S
C621   H647    1.078   .     S
C621   C622    1.395   .     A
C622   N662    1.429   .     S
C623   H648    1.079   .     S
H629   N660    1.032   .     S
H633   N661    1.027   .     S
H638   N662    1.030   .     S
H642   N654    1.031   .     S
H651   C1364   1.079   1_554 S
H652   N659    1.032   .     S
N653   Zn671   2.026   .     S
N655   Zn672   2.026   .     S
N661   C1361   1.431   .     S
O663   Zn671   1.981   .     S
O664   Zn672   2.001   .     S
O665   Zn671   1.980   .     S
O666   Zn672   1.949   .     S
O667   Zn671   2.001   .     S
O668   Zn672   1.981   .     S
O669   Zn671   1.949   .     S
O670   Zn672   1.980   .     S
C673   O747    1.303   .     A
C673   C681    1.445   .     S
C673   O748    1.287   .     A
C674   C676    1.472   .     S
C674   C691    1.398   .     A
C674   C695    1.412   .     A
C675   C681    1.417   .     A
C675   N738    1.442   .     S
C675   C173    1.390   1_565 S
C676   O750    1.300   .     A
C676   O749    1.302   .     A
C677   C678    1.406   .     A
C677   C696    1.452   .     S
C678   C687    1.430   .     S
C678   C679    1.395   .     A
C679   H709    1.078   .     S
C680   C681    1.405   .     A
C680   C697    1.447   .     S
C680   C175    1.375   1_565 S
C682   N739    1.363   .     A
C682   H720    1.082   .     S
C682   C515    1.423   1_655 S
C683   N743    1.415   .     S
C683   N737    1.376   .     A
C684   C695    1.404   .     A
C684   C1449   1.415   .     S
C684   C1459   1.412   .     S
C685   N737    1.379   .     A
C685   N744    1.418   .     S
C686   N739    1.358   .     A
C686   H730    1.075   .     S
C686   C517    1.418   1_655 S
C687   O751    1.295   .     A
C687   O752    1.288   .     A
C688   O754    1.301   .     A
C688   O753    1.296   .     A
C688   C690    1.459   .     S
C689   C708    1.414   .     A
C689   C1460   1.415   1_554 S
C689   N1501   1.431   1_554 S
C690   C707    1.392   .     A
C690   C708    1.411   .     A
C691   C692    1.389   .     A
C691   H733    1.073   .     S
C692   C1449   1.390   .     S
C692   H1491   1.079   .     S
C693   H734    1.079   .     S
C693   C1448   1.390   1_554 S
C693   C1440   1.415   1_554 S
C694   N740    1.157   .     T
C694   C708    1.447   .     S
C695   C706    1.414   .     A
C696   N741    1.158   .     T
C697   N742    1.157   .     T
C698   N743    1.447   .     S
C698   H711    1.109   .     S
C698   H710    1.110   .     S
C698   H712    1.109   .     S
C699   H716    1.108   .     S
C699   H715    1.110   .     S
C699   H714    1.111   .     S
C699   N744    1.446   .     S
C700   H719    1.112   .     S
C700   N745    1.452   .     S
C700   H721    1.112   .     S
C700   H550    1.110   1_655 S
C701   N746    1.449   .     S
C701   H723    1.107   .     S
C701   H725    1.108   .     S
C701   H724    1.112   .     S
C702   H728    1.111   .     S
C702   N738    1.452   .     S
C702   H223    1.112   1_565 S
C702   H225    1.108   1_565 S
C703   C707    1.377   .     A
C703   C1440   1.412   1_554 S
C703   C1460   1.414   1_554 S
C704   C705    1.399   .     A
C704   C1445   1.415   .     S
C704   C1459   1.414   .     S
C705   H731    1.078   .     S
C705   C706    1.395   .     A
C706   N746    1.429   .     S
C707   H732    1.079   .     S
H713   N744    1.032   .     S
H717   N745    1.027   .     S
H722   N746    1.030   .     S
H726   N738    1.031   .     S
H735   C1448   1.079   1_554 S
H736   N743    1.032   .     S
N737   Zn755   2.026   .     S
N739   Zn756   2.026   .     S
N745   C1445   1.431   .     S
O747   Zn755   1.981   .     S
O748   Zn756   2.001   .     S
O749   Zn755   1.980   .     S
O750   Zn756   1.949   .     S
O751   Zn755   2.001   .     S
O752   Zn756   1.981   .     S
O753   Zn755   1.949   .     S
O754   Zn756   1.980   .     S
C757   O831    1.303   .     A
C757   C765    1.445   .     S
C757   O832    1.287   .     A
C758   C760    1.472   .     S
C758   C775    1.398   .     A
C758   C779    1.412   .     A
C759   C765    1.417   .     A
C759   N822    1.442   .     S
C759   C1013   1.390   .     S
C760   O834    1.300   .     A
C760   O833    1.302   .     A
C761   C762    1.406   .     A
C761   C780    1.452   .     S
C761   C1263   1.390   1_545 S
C762   C771    1.430   .     S
C762   C763    1.395   .     A
C763   H793    1.078   .     S
C763   C1268   1.375   1_545 S
C764   C765    1.405   .     A
C764   C781    1.447   .     S
C764   C1015   1.375   .     S
C766   N823    1.363   .     A
C766   H804    1.082   .     S
C766   C851    1.423   .     S
C767   N827    1.415   .     S
C767   N821    1.376   .     A
C767   C934    1.423   1_455 S
C768   C779    1.404   .     A
C768   C21     1.415   1_556 S
C768   C31     1.412   1_556 S
C769   N821    1.379   .     A
C769   N828    1.418   .     S
C769   C938    1.418   1_455 S
C770   N823    1.358   .     A
C770   H814    1.075   .     S
C770   C853    1.418   .     S
C771   O835    1.295   .     A
C771   O836    1.288   .     A
C772   O838    1.301   .     A
C772   O837    1.296   .     A
C772   C774    1.459   .     S
C773   C792    1.414   .     A
C774   C791    1.392   .     A
C774   C792    1.411   .     A
C775   C776    1.389   .     A
C775   H817    1.073   .     S
C776   C21     1.390   1_556 S
C776   H63     1.079   1_556 S
C777   H818    1.079   .     S
C778   N824    1.157   .     T
C778   C792    1.447   .     S
C779   C790    1.414   .     A
C780   N825    1.158   .     T
C781   N826    1.157   .     T
C782   N827    1.447   .     S
C782   H795    1.109   .     S
C782   H794    1.110   .     S
C782   H796    1.109   .     S
C783   H800    1.108   .     S
C783   H799    1.110   .     S
C783   H798    1.111   .     S
C783   N828    1.446   .     S
C784   H803    1.112   .     S
C784   N829    1.452   .     S
C784   H805    1.112   .     S
C784   H886    1.110   .     S
C785   N830    1.449   .     S
C785   H807    1.107   .     S
C785   H809    1.108   .     S
C785   H808    1.112   .     S
C786   H812    1.111   .     S
C786   N822    1.452   .     S
C786   H1063   1.112   .     S
C786   H1065   1.108   .     S
C787   C791    1.377   .     A
C788   C789    1.399   .     A
C788   C17     1.415   1_556 S
C788   C31     1.414   1_556 S
C789   H815    1.078   .     S
C789   C790    1.395   .     A
C790   N830    1.429   .     S
C791   H816    1.079   .     S
H797   N828    1.032   .     S
H801   N829    1.027   .     S
H802   C952    1.110   1_455 S
H806   N830    1.030   .     S
H810   N822    1.031   .     S
H811   C1290   1.112   1_545 S
H813   C1290   1.108   1_545 S
H820   N827    1.032   .     S
N821   Zn839   2.026   .     S
N823   Zn840   2.026   .     S
N829   C17     1.431   1_556 S
O831   Zn839   1.981   .     S
O832   Zn840   2.001   .     S
O833   Zn839   1.980   .     S
O834   Zn840   1.949   .     S
O835   Zn839   2.001   .     S
O836   Zn840   1.981   .     S
O837   Zn839   1.949   .     S
O838   Zn840   1.980   .     S
C841   O915    1.303   .     A
C841   C849    1.445   .     S
C841   O916    1.287   .     A
C842   C844    1.472   .     S
C842   C859    1.398   .     A
C842   C863    1.412   .     A
C843   C849    1.417   .     A
C843   N906    1.442   .     S
C843   C1097   1.390   .     S
C844   O918    1.300   .     A
C844   O917    1.302   .     A
C845   C846    1.406   .     A
C845   C864    1.452   .     S
C845   C1347   1.390   1_545 S
C846   C855    1.430   .     S
C846   C847    1.395   .     A
C847   H877    1.078   .     S
C847   C1352   1.375   1_545 S
C848   C849    1.405   .     A
C848   C865    1.447   .     S
C848   C1099   1.375   .     S
C850   N907    1.363   .     A
C850   H888    1.082   .     S
C850   C935    1.423   .     S
C851   N911    1.415   .     S
C851   N905    1.376   .     A
C852   C863    1.404   .     A
C852   C105    1.415   1_556 S
C852   C115    1.412   1_556 S
C853   N905    1.379   .     A
C853   N912    1.418   .     S
C854   N907    1.358   .     A
C854   H898    1.075   .     S
C854   C937    1.418   .     S
C855   O919    1.295   .     A
C855   O920    1.288   .     A
C856   O922    1.301   .     A
C856   O921    1.296   .     A
C856   C858    1.459   .     S
C857   C876    1.414   .     A
C858   C875    1.392   .     A
C858   C876    1.411   .     A
C859   C860    1.389   .     A
C859   H901    1.073   .     S
C860   C105    1.390   1_556 S
C860   H147    1.079   1_556 S
C861   H902    1.079   .     S
C862   N908    1.157   .     T
C862   C876    1.447   .     S
C863   C874    1.414   .     A
C864   N909    1.158   .     T
C865   N910    1.157   .     T
C866   N911    1.447   .     S
C866   H879    1.109   .     S
C866   H878    1.110   .     S
C866   H880    1.109   .     S
C867   H884    1.108   .     S
C867   H883    1.110   .     S
C867   H882    1.111   .     S
C867   N912    1.446   .     S
C868   H887    1.112   .     S
C868   N913    1.452   .     S
C868   H889    1.112   .     S
C868   H970    1.110   .     S
C869   N914    1.449   .     S
C869   H891    1.107   .     S
C869   H893    1.108   .     S
C869   H892    1.112   .     S
C870   H896    1.111   .     S
C870   N906    1.452   .     S
C870   H1147   1.112   .     S
C870   H1149   1.108   .     S
C871   C875    1.377   .     A
C872   C873    1.399   .     A
C872   C101    1.415   1_556 S
C872   C115    1.414   1_556 S
C873   H899    1.078   .     S
C873   C874    1.395   .     A
C874   N914    1.429   .     S
C875   H900    1.079   .     S
H881   N912    1.032   .     S
H885   N913    1.027   .     S
H890   N914    1.030   .     S
H894   N906    1.031   .     S
H895   C1374   1.112   1_545 S
H897   C1374   1.108   1_545 S
H904   N911    1.032   .     S
N905   Zn923   2.026   .     S
N907   Zn924   2.026   .     S
N913   C101    1.431   1_556 S
O915   Zn923   1.981   .     S
O916   Zn924   2.001   .     S
O917   Zn923   1.980   .     S
O918   Zn924   1.949   .     S
O919   Zn923   2.001   .     S
O920   Zn924   1.981   .     S
O921   Zn923   1.949   .     S
O922   Zn924   1.980   .     S
C925   O999    1.303   .     A
C925   C933    1.445   .     S
C925   O1000   1.287   .     A
C926   C928    1.472   .     S
C926   C943    1.398   .     A
C926   C947    1.412   .     A
C927   C933    1.417   .     A
C927   N990    1.442   .     S
C927   C1181   1.390   .     S
C928   O1002   1.300   .     A
C928   O1001   1.302   .     A
C929   C930    1.406   .     A
C929   C948    1.452   .     S
C929   C1431   1.390   1_545 S
C930   C939    1.430   .     S
C930   C931    1.395   .     A
C931   H961    1.078   .     S
C931   C1436   1.375   1_545 S
C932   C933    1.405   .     A
C932   C949    1.447   .     S
C932   C1183   1.375   .     S
C934   N991    1.363   .     A
C934   H972    1.082   .     S
C934   C767    1.423   1_655 S
C935   N995    1.415   .     S
C935   N989    1.376   .     A
C936   C947    1.404   .     A
C936   C189    1.415   1_556 S
C936   C199    1.412   1_556 S
C937   N989    1.379   .     A
C937   N996    1.418   .     S
C938   N991    1.358   .     A
C938   H982    1.075   .     S
C938   C769    1.418   1_655 S
C939   O1003   1.295   .     A
C939   O1004   1.288   .     A
C940   O1006   1.301   .     A
C940   O1005   1.296   .     A
C940   C942    1.459   .     S
C941   C960    1.414   .     A
C942   C959    1.392   .     A
C942   C960    1.411   .     A
C943   C944    1.389   .     A
C943   H985    1.073   .     S
C944   C189    1.390   1_556 S
C944   H231    1.079   1_556 S
C945   H986    1.079   .     S
C946   N992    1.157   .     T
C946   C960    1.447   .     S
C947   C958    1.414   .     A
C948   N993    1.158   .     T
C949   N994    1.157   .     T
C950   N995    1.447   .     S
C950   H963    1.109   .     S
C950   H962    1.110   .     S
C950   H964    1.109   .     S
C951   H968    1.108   .     S
C951   H967    1.110   .     S
C951   H966    1.111   .     S
C951   N996    1.446   .     S
C952   H971    1.112   .     S
C952   N997    1.452   .     S
C952   H973    1.112   .     S
C952   H802    1.110   1_655 S
C953   N998    1.449   .     S
C953   H975    1.107   .     S
C953   H977    1.108   .     S
C953   H976    1.112   .     S
C954   H980    1.111   .     S
C954   N990    1.452   .     S
C954   H1231   1.112   .     S
C954   H1233   1.108   .     S
C955   C959    1.377   .     A
C956   C957    1.399   .     A
C956   C185    1.415   1_556 S
C956   C199    1.414   1_556 S
C957   H983    1.078   .     S
C957   C958    1.395   .     A
C958   N998    1.429   .     S
C959   H984    1.079   .     S
H965   N996    1.032   .     S
H969   N997    1.027   .     S
H974   N998    1.030   .     S
H978   N990    1.031   .     S
H979   C1458   1.112   1_545 S
H981   C1458   1.108   1_545 S
H988   N995    1.032   .     S
N989   Zn1007  2.026   .     S
N991   Zn1008  2.026   .     S
N997   C185    1.431   1_556 S
O999   Zn1007  1.981   .     S
O1000  Zn1008  2.001   .     S
O1001  Zn1007  1.980   .     S
O1002  Zn1008  1.949   .     S
O1003  Zn1007  2.001   .     S
O1004  Zn1008  1.981   .     S
O1005  Zn1007  1.949   .     S
O1006  Zn1008  1.980   .     S
C1009  O1083   1.303   .     A
C1009  C1017   1.445   .     S
C1009  O1084   1.287   .     A
C1010  C1012   1.472   .     S
C1010  C1027   1.398   .     A
C1010  C1031   1.412   .     A
C1011  C1017   1.417   .     A
C1011  N1074   1.442   .     S
C1011  C1265   1.390   .     S
C1012  O1086   1.300   .     A
C1012  O1085   1.302   .     A
C1013  C1014   1.406   .     A
C1013  C1032   1.452   .     S
C1014  C1023   1.430   .     S
C1014  C1015   1.395   .     A
C1015  H1045   1.078   .     S
C1016  C1017   1.405   .     A
C1016  C1033   1.447   .     S
C1016  C1267   1.375   .     S
C1018  N1075   1.363   .     A
C1018  H1056   1.082   .     S
C1018  C1103   1.423   .     S
C1019  N1079   1.415   .     S
C1019  N1073   1.376   .     A
C1019  C1186   1.423   1_455 S
C1020  C1031   1.404   .     A
C1020  C273    1.415   1_556 S
C1020  C283    1.412   1_556 S
C1021  N1073   1.379   .     A
C1021  N1080   1.418   .     S
C1021  C1190   1.418   1_455 S
C1022  N1075   1.358   .     A
C1022  H1066   1.075   .     S
C1022  C1105   1.418   .     S
C1023  O1087   1.295   .     A
C1023  O1088   1.288   .     A
C1024  O1090   1.301   .     A
C1024  O1089   1.296   .     A
C1024  C1026   1.459   .     S
C1025  C1044   1.414   .     A
C1026  C1043   1.392   .     A
C1026  C1044   1.411   .     A
C1027  C1028   1.389   .     A
C1027  H1069   1.073   .     S
C1028  C273    1.390   1_556 S
C1028  H315    1.079   1_556 S
C1029  H1070   1.079   .     S
C1030  N1076   1.157   .     T
C1030  C1044   1.447   .     S
C1031  C1042   1.414   .     A
C1032  N1077   1.158   .     T
C1033  N1078   1.157   .     T
C1034  N1079   1.447   .     S
C1034  H1047   1.109   .     S
C1034  H1046   1.110   .     S
C1034  H1048   1.109   .     S
C1035  H1052   1.108   .     S
C1035  H1051   1.110   .     S
C1035  H1050   1.111   .     S
C1035  N1080   1.446   .     S
C1036  H1055   1.112   .     S
C1036  N1081   1.452   .     S
C1036  H1057   1.112   .     S
C1036  H1138   1.110   .     S
C1037  N1082   1.449   .     S
C1037  H1059   1.107   .     S
C1037  H1061   1.108   .     S
C1037  H1060   1.112   .     S
C1038  H1064   1.111   .     S
C1038  N1074   1.452   .     S
C1038  H1315   1.112   .     S
C1038  H1317   1.108   .     S
C1039  C1043   1.377   .     A
C1040  C1041   1.399   .     A
C1040  C269    1.415   1_556 S
C1040  C283    1.414   1_556 S
C1041  H1067   1.078   .     S
C1041  C1042   1.395   .     A
C1042  N1082   1.429   .     S
C1043  H1068   1.079   .     S
H1049  N1080   1.032   .     S
H1053  N1081   1.027   .     S
H1054  C1204   1.110   1_455 S
H1058  N1082   1.030   .     S
H1062  N1074   1.031   .     S
H1072  N1079   1.032   .     S
N1073  Zn1091  2.026   .     S
N1075  Zn1092  2.026   .     S
N1081  C269    1.431   1_556 S
O1083  Zn1091  1.981   .     S
O1084  Zn1092  2.001   .     S
O1085  Zn1091  1.980   .     S
O1086  Zn1092  1.949   .     S
O1087  Zn1091  2.001   .     S
O1088  Zn1092  1.981   .     S
O1089  Zn1091  1.949   .     S
O1090  Zn1092  1.980   .     S
C1093  O1167   1.303   .     A
C1093  C1101   1.445   .     S
C1093  O1168   1.287   .     A
C1094  C1096   1.472   .     S
C1094  C1111   1.398   .     A
C1094  C1115   1.412   .     A
C1095  C1101   1.417   .     A
C1095  N1158   1.442   .     S
C1095  C1349   1.390   .     S
C1096  O1170   1.300   .     A
C1096  O1169   1.302   .     A
C1097  C1098   1.406   .     A
C1097  C1116   1.452   .     S
C1098  C1107   1.430   .     S
C1098  C1099   1.395   .     A
C1099  H1129   1.078   .     S
C1100  C1101   1.405   .     A
C1100  C1117   1.447   .     S
C1100  C1351   1.375   .     S
C1102  N1159   1.363   .     A
C1102  H1140   1.082   .     S
C1102  C1187   1.423   .     S
C1103  N1163   1.415   .     S
C1103  N1157   1.376   .     A
C1104  C1115   1.404   .     A
C1104  C357    1.415   1_556 S
C1104  C367    1.412   1_556 S
C1105  N1157   1.379   .     A
C1105  N1164   1.418   .     S
C1106  N1159   1.358   .     A
C1106  H1150   1.075   .     S
C1106  C1189   1.418   .     S
C1107  O1171   1.295   .     A
C1107  O1172   1.288   .     A
C1108  O1174   1.301   .     A
C1108  O1173   1.296   .     A
C1108  C1110   1.459   .     S
C1109  C1128   1.414   .     A
C1110  C1127   1.392   .     A
C1110  C1128   1.411   .     A
C1111  C1112   1.389   .     A
C1111  H1153   1.073   .     S
C1112  C357    1.390   1_556 S
C1112  H399    1.079   1_556 S
C1113  H1154   1.079   .     S
C1114  N1160   1.157   .     T
C1114  C1128   1.447   .     S
C1115  C1126   1.414   .     A
C1116  N1161   1.158   .     T
C1117  N1162   1.157   .     T
C1118  N1163   1.447   .     S
C1118  H1131   1.109   .     S
C1118  H1130   1.110   .     S
C1118  H1132   1.109   .     S
C1119  H1136   1.108   .     S
C1119  H1135   1.110   .     S
C1119  H1134   1.111   .     S
C1119  N1164   1.446   .     S
C1120  H1139   1.112   .     S
C1120  N1165   1.452   .     S
C1120  H1141   1.112   .     S
C1120  H1222   1.110   .     S
C1121  N1166   1.449   .     S
C1121  H1143   1.107   .     S
C1121  H1145   1.108   .     S
C1121  H1144   1.112   .     S
C1122  H1148   1.111   .     S
C1122  N1158   1.452   .     S
C1122  H1399   1.112   .     S
C1122  H1401   1.108   .     S
C1123  C1127   1.377   .     A
C1124  C1125   1.399   .     A
C1124  C353    1.415   1_556 S
C1124  C367    1.414   1_556 S
C1125  H1151   1.078   .     S
C1125  C1126   1.395   .     A
C1126  N1166   1.429   .     S
C1127  H1152   1.079   .     S
H1133  N1164   1.032   .     S
H1137  N1165   1.027   .     S
H1142  N1166   1.030   .     S
H1146  N1158   1.031   .     S
H1156  N1163   1.032   .     S
N1157  Zn1175  2.026   .     S
N1159  Zn1176  2.026   .     S
N1165  C353    1.431   1_556 S
O1167  Zn1175  1.981   .     S
O1168  Zn1176  2.001   .     S
O1169  Zn1175  1.980   .     S
O1170  Zn1176  1.949   .     S
O1171  Zn1175  2.001   .     S
O1172  Zn1176  1.981   .     S
O1173  Zn1175  1.949   .     S
O1174  Zn1176  1.980   .     S
C1177  O1251   1.303   .     A
C1177  C1185   1.445   .     S
C1177  O1252   1.287   .     A
C1178  C1180   1.472   .     S
C1178  C1195   1.398   .     A
C1178  C1199   1.412   .     A
C1179  C1185   1.417   .     A
C1179  N1242   1.442   .     S
C1179  C1433   1.390   .     S
C1180  O1254   1.300   .     A
C1180  O1253   1.302   .     A
C1181  C1182   1.406   .     A
C1181  C1200   1.452   .     S
C1182  C1191   1.430   .     S
C1182  C1183   1.395   .     A
C1183  H1213   1.078   .     S
C1184  C1185   1.405   .     A
C1184  C1201   1.447   .     S
C1184  C1435   1.375   .     S
C1186  N1243   1.363   .     A
C1186  H1224   1.082   .     S
C1186  C1019   1.423   1_655 S
C1187  N1247   1.415   .     S
C1187  N1241   1.376   .     A
C1188  C1199   1.404   .     A
C1188  C441    1.415   1_556 S
C1188  C451    1.412   1_556 S
C1189  N1241   1.379   .     A
C1189  N1248   1.418   .     S
C1190  N1243   1.358   .     A
C1190  H1234   1.075   .     S
C1190  C1021   1.418   1_655 S
C1191  O1255   1.295   .     A
C1191  O1256   1.288   .     A
C1192  O1258   1.301   .     A
C1192  O1257   1.296   .     A
C1192  C1194   1.459   .     S
C1193  C1212   1.414   .     A
C1194  C1211   1.392   .     A
C1194  C1212   1.411   .     A
C1195  C1196   1.389   .     A
C1195  H1237   1.073   .     S
C1196  C441    1.390   1_556 S
C1196  H483    1.079   1_556 S
C1197  H1238   1.079   .     S
C1198  N1244   1.157   .     T
C1198  C1212   1.447   .     S
C1199  C1210   1.414   .     A
C1200  N1245   1.158   .     T
C1201  N1246   1.157   .     T
C1202  N1247   1.447   .     S
C1202  H1215   1.109   .     S
C1202  H1214   1.110   .     S
C1202  H1216   1.109   .     S
C1203  H1220   1.108   .     S
C1203  H1219   1.110   .     S
C1203  H1218   1.111   .     S
C1203  N1248   1.446   .     S
C1204  H1223   1.112   .     S
C1204  N1249   1.452   .     S
C1204  H1225   1.112   .     S
C1204  H1054   1.110   1_655 S
C1205  N1250   1.449   .     S
C1205  H1227   1.107   .     S
C1205  H1229   1.108   .     S
C1205  H1228   1.112   .     S
C1206  H1232   1.111   .     S
C1206  N1242   1.452   .     S
C1206  H1483   1.112   .     S
C1206  H1485   1.108   .     S
C1207  C1211   1.377   .     A
C1208  C1209   1.399   .     A
C1208  C437    1.415   1_556 S
C1208  C451    1.414   1_556 S
C1209  H1235   1.078   .     S
C1209  C1210   1.395   .     A
C1210  N1250   1.429   .     S
C1211  H1236   1.079   .     S
H1217  N1248   1.032   .     S
H1221  N1249   1.027   .     S
H1226  N1250   1.030   .     S
H1230  N1242   1.031   .     S
H1240  N1247   1.032   .     S
N1241  Zn1259  2.026   .     S
N1243  Zn1260  2.026   .     S
N1249  C437    1.431   1_556 S
O1251  Zn1259  1.981   .     S
O1252  Zn1260  2.001   .     S
O1253  Zn1259  1.980   .     S
O1254  Zn1260  1.949   .     S
O1255  Zn1259  2.001   .     S
O1256  Zn1260  1.981   .     S
O1257  Zn1259  1.949   .     S
O1258  Zn1260  1.980   .     S
C1261  O1335   1.303   .     A
C1261  C1269   1.445   .     S
C1261  O1336   1.287   .     A
C1262  C1264   1.472   .     S
C1262  C1279   1.398   .     A
C1262  C1283   1.412   .     A
C1263  C1269   1.417   .     A
C1263  N1326   1.442   .     S
C1263  C761    1.390   1_565 S
C1264  O1338   1.300   .     A
C1264  O1337   1.302   .     A
C1265  C1266   1.406   .     A
C1265  C1284   1.452   .     S
C1266  C1275   1.430   .     S
C1266  C1267   1.395   .     A
C1267  H1297   1.078   .     S
C1268  C1269   1.405   .     A
C1268  C1285   1.447   .     S
C1268  C763    1.375   1_565 S
C1270  N1327   1.363   .     A
C1270  H1308   1.082   .     S
C1270  C1355   1.423   .     S
C1271  N1331   1.415   .     S
C1271  N1325   1.376   .     A
C1271  C1438   1.423   1_455 S
C1272  C1283   1.404   .     A
C1272  C525    1.415   1_556 S
C1272  C535    1.412   1_556 S
C1273  N1325   1.379   .     A
C1273  N1332   1.418   .     S
C1273  C1442   1.418   1_455 S
C1274  N1327   1.358   .     A
C1274  H1318   1.075   .     S
C1274  C1357   1.418   .     S
C1275  O1339   1.295   .     A
C1275  O1340   1.288   .     A
C1276  O1342   1.301   .     A
C1276  O1341   1.296   .     A
C1276  C1278   1.459   .     S
C1277  C1296   1.414   .     A
C1278  C1295   1.392   .     A
C1278  C1296   1.411   .     A
C1279  C1280   1.389   .     A
C1279  H1321   1.073   .     S
C1280  C525    1.390   1_556 S
C1280  H567    1.079   1_556 S
C1281  H1322   1.079   .     S
C1282  N1328   1.157   .     T
C1282  C1296   1.447   .     S
C1283  C1294   1.414   .     A
C1284  N1329   1.158   .     T
C1285  N1330   1.157   .     T
C1286  N1331   1.447   .     S
C1286  H1299   1.109   .     S
C1286  H1298   1.110   .     S
C1286  H1300   1.109   .     S
C1287  H1304   1.108   .     S
C1287  H1303   1.110   .     S
C1287  H1302   1.111   .     S
C1287  N1332   1.446   .     S
C1288  H1307   1.112   .     S
C1288  N1333   1.452   .     S
C1288  H1309   1.112   .     S
C1288  H1390   1.110   .     S
C1289  N1334   1.449   .     S
C1289  H1311   1.107   .     S
C1289  H1313   1.108   .     S
C1289  H1312   1.112   .     S
C1290  H1316   1.111   .     S
C1290  N1326   1.452   .     S
C1290  H811    1.112   1_565 S
C1290  H813    1.108   1_565 S
C1291  C1295   1.377   .     A
C1292  C1293   1.399   .     A
C1292  C521    1.415   1_556 S
C1292  C535    1.414   1_556 S
C1293  H1319   1.078   .     S
C1293  C1294   1.395   .     A
C1294  N1334   1.429   .     S
C1295  H1320   1.079   .     S
H1301  N1332   1.032   .     S
H1305  N1333   1.027   .     S
H1306  C1456   1.110   1_455 S
H1310  N1334   1.030   .     S
H1314  N1326   1.031   .     S
H1324  N1331   1.032   .     S
N1325  Zn1343  2.026   .     S
N1327  Zn1344  2.026   .     S
N1333  C521    1.431   1_556 S
O1335  Zn1343  1.981   .     S
O1336  Zn1344  2.001   .     S
O1337  Zn1343  1.980   .     S
O1338  Zn1344  1.949   .     S
O1339  Zn1343  2.001   .     S
O1340  Zn1344  1.981   .     S
O1341  Zn1343  1.949   .     S
O1342  Zn1344  1.980   .     S
C1345  O1419   1.303   .     A
C1345  C1353   1.445   .     S
C1345  O1420   1.287   .     A
C1346  C1348   1.472   .     S
C1346  C1363   1.398   .     A
C1346  C1367   1.412   .     A
C1347  C1353   1.417   .     A
C1347  N1410   1.442   .     S
C1347  C845    1.390   1_565 S
C1348  O1422   1.300   .     A
C1348  O1421   1.302   .     A
C1349  C1350   1.406   .     A
C1349  C1368   1.452   .     S
C1350  C1359   1.430   .     S
C1350  C1351   1.395   .     A
C1351  H1381   1.078   .     S
C1352  C1353   1.405   .     A
C1352  C1369   1.447   .     S
C1352  C847    1.375   1_565 S
C1354  N1411   1.363   .     A
C1354  H1392   1.082   .     S
C1354  C1439   1.423   .     S
C1355  N1415   1.415   .     S
C1355  N1409   1.376   .     A
C1356  C1367   1.404   .     A
C1356  C609    1.415   1_556 S
C1356  C619    1.412   1_556 S
C1357  N1409   1.379   .     A
C1357  N1416   1.418   .     S
C1358  N1411   1.358   .     A
C1358  H1402   1.075   .     S
C1358  C1441   1.418   .     S
C1359  O1423   1.295   .     A
C1359  O1424   1.288   .     A
C1360  O1426   1.301   .     A
C1360  O1425   1.296   .     A
C1360  C1362   1.459   .     S
C1361  C1380   1.414   .     A
C1362  C1379   1.392   .     A
C1362  C1380   1.411   .     A
C1363  C1364   1.389   .     A
C1363  H1405   1.073   .     S
C1364  C609    1.390   1_556 S
C1364  H651    1.079   1_556 S
C1365  H1406   1.079   .     S
C1366  N1412   1.157   .     T
C1366  C1380   1.447   .     S
C1367  C1378   1.414   .     A
C1368  N1413   1.158   .     T
C1369  N1414   1.157   .     T
C1370  N1415   1.447   .     S
C1370  H1383   1.109   .     S
C1370  H1382   1.110   .     S
C1370  H1384   1.109   .     S
C1371  H1388   1.108   .     S
C1371  H1387   1.110   .     S
C1371  H1386   1.111   .     S
C1371  N1416   1.446   .     S
C1372  H1391   1.112   .     S
C1372  N1417   1.452   .     S
C1372  H1393   1.112   .     S
C1372  H1474   1.110   .     S
C1373  N1418   1.449   .     S
C1373  H1395   1.107   .     S
C1373  H1397   1.108   .     S
C1373  H1396   1.112   .     S
C1374  H1400   1.111   .     S
C1374  N1410   1.452   .     S
C1374  H895    1.112   1_565 S
C1374  H897    1.108   1_565 S
C1375  C1379   1.377   .     A
C1376  C1377   1.399   .     A
C1376  C605    1.415   1_556 S
C1376  C619    1.414   1_556 S
C1377  H1403   1.078   .     S
C1377  C1378   1.395   .     A
C1378  N1418   1.429   .     S
C1379  H1404   1.079   .     S
H1385  N1416   1.032   .     S
H1389  N1417   1.027   .     S
H1394  N1418   1.030   .     S
H1398  N1410   1.031   .     S
H1408  N1415   1.032   .     S
N1409  Zn1427  2.026   .     S
N1411  Zn1428  2.026   .     S
N1417  C605    1.431   1_556 S
O1419  Zn1427  1.981   .     S
O1420  Zn1428  2.001   .     S
O1421  Zn1427  1.980   .     S
O1422  Zn1428  1.949   .     S
O1423  Zn1427  2.001   .     S
O1424  Zn1428  1.981   .     S
O1425  Zn1427  1.949   .     S
O1426  Zn1428  1.980   .     S
C1429  O1503   1.303   .     A
C1429  C1437   1.445   .     S
C1429  O1504   1.287   .     A
C1430  C1432   1.472   .     S
C1430  C1447   1.398   .     A
C1430  C1451   1.412   .     A
C1431  C1437   1.417   .     A
C1431  N1494   1.442   .     S
C1431  C929    1.390   1_565 S
C1432  O1506   1.300   .     A
C1432  O1505   1.302   .     A
C1433  C1434   1.406   .     A
C1433  C1452   1.452   .     S
C1434  C1443   1.430   .     S
C1434  C1435   1.395   .     A
C1435  H1465   1.078   .     S
C1436  C1437   1.405   .     A
C1436  C1453   1.447   .     S
C1436  C931    1.375   1_565 S
C1438  N1495   1.363   .     A
C1438  H1476   1.082   .     S
C1438  C1271   1.423   1_655 S
C1439  N1499   1.415   .     S
C1439  N1493   1.376   .     A
C1440  C1451   1.404   .     A
C1440  C693    1.415   1_556 S
C1440  C703    1.412   1_556 S
C1441  N1493   1.379   .     A
C1441  N1500   1.418   .     S
C1442  N1495   1.358   .     A
C1442  H1486   1.075   .     S
C1442  C1273   1.418   1_655 S
C1443  O1507   1.295   .     A
C1443  O1508   1.288   .     A
C1444  O1510   1.301   .     A
C1444  O1509   1.296   .     A
C1444  C1446   1.459   .     S
C1445  C1464   1.414   .     A
C1446  C1463   1.392   .     A
C1446  C1464   1.411   .     A
C1447  C1448   1.389   .     A
C1447  H1489   1.073   .     S
C1448  C693    1.390   1_556 S
C1448  H735    1.079   1_556 S
C1449  H1490   1.079   .     S
C1450  N1496   1.157   .     T
C1450  C1464   1.447   .     S
C1451  C1462   1.414   .     A
C1452  N1497   1.158   .     T
C1453  N1498   1.157   .     T
C1454  N1499   1.447   .     S
C1454  H1467   1.109   .     S
C1454  H1466   1.110   .     S
C1454  H1468   1.109   .     S
C1455  H1472   1.108   .     S
C1455  H1471   1.110   .     S
C1455  H1470   1.111   .     S
C1455  N1500   1.446   .     S
C1456  H1475   1.112   .     S
C1456  N1501   1.452   .     S
C1456  H1477   1.112   .     S
C1456  H1306   1.110   1_655 S
C1457  N1502   1.449   .     S
C1457  H1479   1.107   .     S
C1457  H1481   1.108   .     S
C1457  H1480   1.112   .     S
C1458  H1484   1.111   .     S
C1458  N1494   1.452   .     S
C1458  H979    1.112   1_565 S
C1458  H981    1.108   1_565 S
C1459  C1463   1.377   .     A
C1460  C1461   1.399   .     A
C1460  C689    1.415   1_556 S
C1460  C703    1.414   1_556 S
C1461  H1487   1.078   .     S
C1461  C1462   1.395   .     A
C1462  N1502   1.429   .     S
C1463  H1488   1.079   .     S
H1469  N1500   1.032   .     S
H1473  N1501   1.027   .     S
H1478  N1502   1.030   .     S
H1482  N1494   1.031   .     S
H1492  N1499   1.032   .     S
N1493  Zn1511  2.026   .     S
N1495  Zn1512  2.026   .     S
N1501  C689    1.431   1_556 S
O1503  Zn1511  1.981   .     S
O1504  Zn1512  2.001   .     S
O1505  Zn1511  1.980   .     S
O1506  Zn1512  1.949   .     S
O1507  Zn1511  2.001   .     S
O1508  Zn1512  1.981   .     S
O1509  Zn1511  1.949   .     S
O1510  Zn1512  1.980   .     S
