data_str_m3_o10_o17_pcu_sym.96
_audit_creation_date              2020-01-03
_audit_creation_method            'Materials Studio'
_symmetry_space_group_name_H-M    'P1'
_symmetry_Int_Tables_number       1
_symmetry_cell_setting            triclinic
loop_
_symmetry_equiv_pos_as_xyz
  x,y,z
_cell_length_a                    23.3035
_cell_length_b                    25.6650
_cell_length_c                    29.8626
_cell_angle_alpha                 91.3031
_cell_angle_beta                  85.6695
_cell_angle_gamma                 93.7724
loop_
_atom_site_label
_atom_site_type_symbol
_atom_site_fract_x
_atom_site_fract_y
_atom_site_fract_z
_atom_site_U_iso_or_equiv
_atom_site_adp_type
_atom_site_occupancy
C1     C     0.18195   0.26492   0.24878   0.00000  Uiso   1.00
C2     C     0.19258   0.20961   0.40548   0.00000  Uiso   1.00
C3     C     0.16515   0.16772   0.11621   0.00000  Uiso   1.00
C4     C     0.16818   0.16561   0.38379   0.00000  Uiso   1.00
C5     C     0.19051   0.21127   0.09294   0.00000  Uiso   1.00
C6     C     0.14283   0.12207   0.40706   0.00000  Uiso   1.00
C7     C     0.18968   0.21139   0.04629   0.00000  Uiso   1.00
C8     C     0.14366   0.12194   0.45371   0.00000  Uiso   1.00
C9     C     0.16631   0.16684   0.02351   0.00000  Uiso   1.00
C10    C     0.16703   0.16649   0.47649   0.00000  Uiso   1.00
C11    C     0.14213   0.12270   0.04761   0.00000  Uiso   1.00
C12    C     0.15138   0.06842   0.25122   0.00000  Uiso   1.00
C13    C     0.19121   0.21063   0.45239   0.00000  Uiso   1.00
C14    C     0.21125   0.25546   0.02205   0.00000  Uiso   1.00
C15    C     0.12210   0.07787   0.47795   0.00000  Uiso   1.00
C16    C     0.15363   0.04130   0.12926   0.00000  Uiso   1.00
C17    C     0.17970   0.29203   0.37074   0.00000  Uiso   1.00
C18    C     0.27693   0.25760   0.11789   0.00000  Uiso   1.00
C19    C     0.05639   0.07575   0.38211   0.00000  Uiso   1.00
C20    C     0.21237   0.25499   0.47575   0.00000  Uiso   1.00
C21    C     0.12097   0.07834   0.02425   0.00000  Uiso   1.00
C22    C     0.18998   0.31943   0.24784   0.00000  Uiso   1.00
C23    C     0.14335   0.01390   0.25216   0.00000  Uiso   1.00
C24    C     0.16719   0.16627   0.33626   0.00000  Uiso   1.00
C25    C     0.16614   0.16707   0.16374   0.00000  Uiso   1.00
C26    C     0.14075   0.12372   0.09451   0.00000  Uiso   1.00
H27    H     0.22744   0.29078   0.03864   0.00000  Uiso   1.00
H28    H     0.16907   0.02195   0.09737   0.00000  Uiso   1.00
H29    H     0.13052   0.01142   0.15146   0.00000  Uiso   1.00
H30    H     0.19129   0.05853   0.14637   0.00000  Uiso   1.00
H31    H     0.25799   0.26683   0.38877   0.00000  Uiso   1.00
H32    H     0.16427   0.31138   0.40264   0.00000  Uiso   1.00
H33    H     0.14204   0.27481   0.35363   0.00000  Uiso   1.00
H34    H     0.20282   0.32191   0.34855   0.00000  Uiso   1.00
H35    H     0.19388   0.26407   0.14712   0.00000  Uiso   1.00
H36    H     0.28987   0.22521   0.13816   0.00000  Uiso   1.00
H37    H     0.29196   0.29525   0.13348   0.00000  Uiso   1.00
H38    H     0.10591   0.04255   0.46136   0.00000  Uiso   1.00
H39    H     0.29845   0.25484   0.08353   0.00000  Uiso   1.00
H40    H     0.13945   0.06926   0.35288   0.00000  Uiso   1.00
H41    H     0.04346   0.10816   0.36188   0.00000  Uiso   1.00
H42    H     0.03488   0.07845   0.41648   0.00000  Uiso   1.00
H43    H     0.04136   0.03811   0.36648   0.00000  Uiso   1.00
H44    H     0.22957   0.29002   0.45877   0.00000  Uiso   1.00
H45    H     0.10377   0.04331   0.04123   0.00000  Uiso   1.00
H46    H     0.23399   0.00315   0.24361   0.00000  Uiso   1.00
H47    H     0.09934   0.33018   0.25639   0.00000  Uiso   1.00
H48    H     0.00461   0.12753   0.21596   0.00000  Uiso   1.00
H49    H     0.32872   0.20581   0.28404   0.00000  Uiso   1.00
H50    H     0.07534   0.06651   0.11123   0.00000  Uiso   1.00
N51    N     0.31678   0.15265   0.23783   0.00000  Uiso   1.00
N52    N     0.01656   0.18068   0.26217   0.00000  Uiso   1.00
N53    N     0.11499   0.08118   0.12062   0.00000  Uiso   1.00
N54    N     0.21834   0.25215   0.37938   0.00000  Uiso   1.00
N55    N     0.21485   0.25558   0.11645   0.00000  Uiso   1.00
N56    N     0.11848   0.07776   0.38355   0.00000  Uiso   1.00
O57    O     0.12975   0.24619   0.25299   0.00000  Uiso   1.00
O58    O     0.20358   0.08714   0.24702   0.00000  Uiso   1.00
O59    O     0.22613   0.23721   0.24519   0.00000  Uiso   1.00
O60    O     0.10720   0.09613   0.25482   0.00000  Uiso   1.00
O61    O     0.11847   0.17117   0.31998   0.00000  Uiso   1.00
O62    O     0.21486   0.16216   0.18002   0.00000  Uiso   1.00
O63    O     0.21485   0.16219   0.31218   0.00000  Uiso   1.00
O64    O     0.11848   0.17115   0.18783   0.00000  Uiso   1.00
Zn65   Zn    0.10231   0.17266   0.25521   0.00000  Uiso   1.00
Zn66   Zn    0.23102   0.16067   0.24479   0.00000  Uiso   1.00
C67    C     0.51528   0.26492   0.24878   0.00000  Uiso   1.00
C68    C     0.52592   0.20961   0.40548   0.00000  Uiso   1.00
C69    C     0.49849   0.16772   0.11621   0.00000  Uiso   1.00
C70    C     0.50151   0.16561   0.38379   0.00000  Uiso   1.00
C71    C     0.52384   0.21127   0.09294   0.00000  Uiso   1.00
C72    C     0.47616   0.12207   0.40706   0.00000  Uiso   1.00
C73    C     0.52302   0.21139   0.04629   0.00000  Uiso   1.00
C74    C     0.47699   0.12194   0.45371   0.00000  Uiso   1.00
C75    C     0.49964   0.16684   0.02351   0.00000  Uiso   1.00
C76    C     0.50036   0.16649   0.47649   0.00000  Uiso   1.00
C77    C     0.47546   0.12270   0.04761   0.00000  Uiso   1.00
C78    C     0.48472   0.06842   0.25122   0.00000  Uiso   1.00
C79    C     0.52454   0.21063   0.45239   0.00000  Uiso   1.00
C80    C     0.54458   0.25546   0.02205   0.00000  Uiso   1.00
C81    C     0.45543   0.07787   0.47795   0.00000  Uiso   1.00
C82    C     0.48696   0.04130   0.12926   0.00000  Uiso   1.00
C83    C     0.51304   0.29203   0.37074   0.00000  Uiso   1.00
C84    C     0.61027   0.25760   0.11789   0.00000  Uiso   1.00
C85    C     0.38973   0.07575   0.38211   0.00000  Uiso   1.00
C86    C     0.54570   0.25499   0.47575   0.00000  Uiso   1.00
C87    C     0.45431   0.07834   0.02425   0.00000  Uiso   1.00
C88    C     0.52332   0.31943   0.24784   0.00000  Uiso   1.00
C89    C     0.47668   0.01390   0.25216   0.00000  Uiso   1.00
C90    C     0.50052   0.16627   0.33626   0.00000  Uiso   1.00
C91    C     0.49948   0.16707   0.16374   0.00000  Uiso   1.00
C92    C     0.47409   0.12372   0.09451   0.00000  Uiso   1.00
H93    H     0.56077   0.29078   0.03864   0.00000  Uiso   1.00
H94    H     0.50240   0.02195   0.09737   0.00000  Uiso   1.00
H95    H     0.46385   0.01142   0.15146   0.00000  Uiso   1.00
H96    H     0.52462   0.05853   0.14637   0.00000  Uiso   1.00
H97    H     0.59133   0.26683   0.38877   0.00000  Uiso   1.00
H98    H     0.49760   0.31138   0.40264   0.00000  Uiso   1.00
H99    H     0.47538   0.27481   0.35363   0.00000  Uiso   1.00
H100   H     0.53615   0.32191   0.34855   0.00000  Uiso   1.00
H101   H     0.52721   0.26407   0.14712   0.00000  Uiso   1.00
H102   H     0.62320   0.22521   0.13816   0.00000  Uiso   1.00
H103   H     0.62529   0.29525   0.13348   0.00000  Uiso   1.00
H104   H     0.43924   0.04255   0.46136   0.00000  Uiso   1.00
H105   H     0.63179   0.25484   0.08353   0.00000  Uiso   1.00
H106   H     0.47278   0.06926   0.35288   0.00000  Uiso   1.00
H107   H     0.37679   0.10816   0.36188   0.00000  Uiso   1.00
H108   H     0.36821   0.07845   0.41648   0.00000  Uiso   1.00
H109   H     0.37470   0.03811   0.36648   0.00000  Uiso   1.00
H110   H     0.56290   0.29002   0.45877   0.00000  Uiso   1.00
H111   H     0.43711   0.04331   0.04123   0.00000  Uiso   1.00
H112   H     0.56733   0.00315   0.24361   0.00000  Uiso   1.00
H113   H     0.43267   0.33018   0.25639   0.00000  Uiso   1.00
H114   H     0.33794   0.12753   0.21596   0.00000  Uiso   1.00
H115   H     0.66206   0.20581   0.28404   0.00000  Uiso   1.00
H116   H     0.40867   0.06651   0.11123   0.00000  Uiso   1.00
N117   N     0.65011   0.15265   0.23783   0.00000  Uiso   1.00
N118   N     0.34989   0.18068   0.26217   0.00000  Uiso   1.00
N119   N     0.44832   0.08118   0.12062   0.00000  Uiso   1.00
N120   N     0.55168   0.25215   0.37938   0.00000  Uiso   1.00
N121   N     0.54818   0.25558   0.11645   0.00000  Uiso   1.00
N122   N     0.45181   0.07776   0.38355   0.00000  Uiso   1.00
O123   O     0.46308   0.24619   0.25299   0.00000  Uiso   1.00
O124   O     0.53692   0.08714   0.24702   0.00000  Uiso   1.00
O125   O     0.55946   0.23721   0.24519   0.00000  Uiso   1.00
O126   O     0.44054   0.09613   0.25482   0.00000  Uiso   1.00
O127   O     0.45181   0.17117   0.31998   0.00000  Uiso   1.00
O128   O     0.54819   0.16216   0.18002   0.00000  Uiso   1.00
O129   O     0.54819   0.16219   0.31218   0.00000  Uiso   1.00
O130   O     0.45181   0.17115   0.18783   0.00000  Uiso   1.00
Zn131  Zn    0.43565   0.17266   0.25521   0.00000  Uiso   1.00
Zn132  Zn    0.56435   0.16067   0.24479   0.00000  Uiso   1.00
C133   C     0.84862   0.26492   0.24878   0.00000  Uiso   1.00
C134   C     0.85925   0.20961   0.40548   0.00000  Uiso   1.00
C135   C     0.83182   0.16772   0.11621   0.00000  Uiso   1.00
C136   C     0.83485   0.16561   0.38379   0.00000  Uiso   1.00
C137   C     0.85717   0.21127   0.09294   0.00000  Uiso   1.00
C138   C     0.80949   0.12207   0.40706   0.00000  Uiso   1.00
C139   C     0.85635   0.21139   0.04629   0.00000  Uiso   1.00
C140   C     0.81032   0.12194   0.45371   0.00000  Uiso   1.00
C141   C     0.83298   0.16684   0.02351   0.00000  Uiso   1.00
C142   C     0.83370   0.16649   0.47649   0.00000  Uiso   1.00
C143   C     0.80879   0.12270   0.04761   0.00000  Uiso   1.00
C144   C     0.81805   0.06842   0.25122   0.00000  Uiso   1.00
C145   C     0.85788   0.21063   0.45239   0.00000  Uiso   1.00
C146   C     0.87791   0.25546   0.02205   0.00000  Uiso   1.00
C147   C     0.78876   0.07787   0.47795   0.00000  Uiso   1.00
C148   C     0.82029   0.04130   0.12926   0.00000  Uiso   1.00
C149   C     0.84637   0.29203   0.37074   0.00000  Uiso   1.00
C150   C     0.94360   0.25760   0.11789   0.00000  Uiso   1.00
C151   C     0.72306   0.07575   0.38211   0.00000  Uiso   1.00
C152   C     0.87904   0.25499   0.47575   0.00000  Uiso   1.00
C153   C     0.78764   0.07834   0.02425   0.00000  Uiso   1.00
C154   C     0.85665   0.31943   0.24784   0.00000  Uiso   1.00
C155   C     0.81002   0.01390   0.25216   0.00000  Uiso   1.00
C156   C     0.83386   0.16627   0.33626   0.00000  Uiso   1.00
C157   C     0.83281   0.16707   0.16374   0.00000  Uiso   1.00
C158   C     0.80742   0.12372   0.09451   0.00000  Uiso   1.00
H159   H     0.89410   0.29078   0.03864   0.00000  Uiso   1.00
H160   H     0.83573   0.02195   0.09737   0.00000  Uiso   1.00
H161   H     0.79718   0.01142   0.15146   0.00000  Uiso   1.00
H162   H     0.85795   0.05853   0.14637   0.00000  Uiso   1.00
H163   H     0.92466   0.26683   0.38877   0.00000  Uiso   1.00
H164   H     0.83094   0.31138   0.40264   0.00000  Uiso   1.00
H165   H     0.80871   0.27481   0.35363   0.00000  Uiso   1.00
H166   H     0.86948   0.32191   0.34855   0.00000  Uiso   1.00
H167   H     0.86054   0.26407   0.14712   0.00000  Uiso   1.00
H168   H     0.95653   0.22521   0.13816   0.00000  Uiso   1.00
H169   H     0.95863   0.29525   0.13348   0.00000  Uiso   1.00
H170   H     0.77257   0.04255   0.46136   0.00000  Uiso   1.00
H171   H     0.96512   0.25484   0.08353   0.00000  Uiso   1.00
H172   H     0.80611   0.06926   0.35288   0.00000  Uiso   1.00
H173   H     0.71013   0.10816   0.36188   0.00000  Uiso   1.00
H174   H     0.70155   0.07845   0.41648   0.00000  Uiso   1.00
H175   H     0.70803   0.03811   0.36648   0.00000  Uiso   1.00
H176   H     0.89624   0.29002   0.45877   0.00000  Uiso   1.00
H177   H     0.77044   0.04331   0.04123   0.00000  Uiso   1.00
H178   H     0.90066   0.00315   0.24361   0.00000  Uiso   1.00
H179   H     0.76601   0.33018   0.25639   0.00000  Uiso   1.00
H180   H     0.67128   0.12753   0.21596   0.00000  Uiso   1.00
H181   H     0.99539   0.20581   0.28404   0.00000  Uiso   1.00
H182   H     0.74201   0.06651   0.11123   0.00000  Uiso   1.00
N183   N     0.98344   0.15265   0.23783   0.00000  Uiso   1.00
N184   N     0.68322   0.18068   0.26217   0.00000  Uiso   1.00
N185   N     0.78166   0.08118   0.12062   0.00000  Uiso   1.00
N186   N     0.88501   0.25215   0.37938   0.00000  Uiso   1.00
N187   N     0.88152   0.25558   0.11645   0.00000  Uiso   1.00
N188   N     0.78514   0.07776   0.38355   0.00000  Uiso   1.00
O189   O     0.79642   0.24619   0.25299   0.00000  Uiso   1.00
O190   O     0.87025   0.08714   0.24702   0.00000  Uiso   1.00
O191   O     0.89280   0.23721   0.24519   0.00000  Uiso   1.00
O192   O     0.77387   0.09613   0.25482   0.00000  Uiso   1.00
O193   O     0.78514   0.17117   0.31998   0.00000  Uiso   1.00
O194   O     0.88153   0.16216   0.18002   0.00000  Uiso   1.00
O195   O     0.88152   0.16219   0.31218   0.00000  Uiso   1.00
O196   O     0.78515   0.17115   0.18783   0.00000  Uiso   1.00
Zn197  Zn    0.76898   0.17266   0.25521   0.00000  Uiso   1.00
Zn198  Zn    0.89769   0.16067   0.24479   0.00000  Uiso   1.00
C199   C     0.18195   0.59825   0.24878   0.00000  Uiso   1.00
C200   C     0.19258   0.54295   0.40548   0.00000  Uiso   1.00
C201   C     0.16515   0.50105   0.11621   0.00000  Uiso   1.00
C202   C     0.16818   0.49894   0.38379   0.00000  Uiso   1.00
C203   C     0.19051   0.54460   0.09294   0.00000  Uiso   1.00
C204   C     0.14283   0.45540   0.40706   0.00000  Uiso   1.00
C205   C     0.18968   0.54473   0.04629   0.00000  Uiso   1.00
C206   C     0.14366   0.45527   0.45371   0.00000  Uiso   1.00
C207   C     0.16631   0.50017   0.02351   0.00000  Uiso   1.00
C208   C     0.16703   0.49983   0.47649   0.00000  Uiso   1.00
C209   C     0.14213   0.45603   0.04761   0.00000  Uiso   1.00
C210   C     0.15138   0.40175   0.25122   0.00000  Uiso   1.00
C211   C     0.19121   0.54397   0.45239   0.00000  Uiso   1.00
C212   C     0.21125   0.58880   0.02205   0.00000  Uiso   1.00
C213   C     0.12210   0.41120   0.47795   0.00000  Uiso   1.00
C214   C     0.15363   0.37463   0.12926   0.00000  Uiso   1.00
C215   C     0.17970   0.62537   0.37074   0.00000  Uiso   1.00
C216   C     0.27693   0.59093   0.11789   0.00000  Uiso   1.00
C217   C     0.05639   0.40908   0.38211   0.00000  Uiso   1.00
C218   C     0.21237   0.58832   0.47575   0.00000  Uiso   1.00
C219   C     0.12097   0.41167   0.02425   0.00000  Uiso   1.00
C220   C     0.18998   0.65276   0.24784   0.00000  Uiso   1.00
C221   C     0.14335   0.34724   0.25216   0.00000  Uiso   1.00
C222   C     0.16719   0.49960   0.33626   0.00000  Uiso   1.00
C223   C     0.16614   0.50040   0.16374   0.00000  Uiso   1.00
C224   C     0.14075   0.45705   0.09451   0.00000  Uiso   1.00
H225   H     0.22744   0.62412   0.03864   0.00000  Uiso   1.00
H226   H     0.16907   0.35528   0.09737   0.00000  Uiso   1.00
H227   H     0.13052   0.34476   0.15146   0.00000  Uiso   1.00
H228   H     0.19129   0.39186   0.14637   0.00000  Uiso   1.00
H229   H     0.25799   0.60016   0.38877   0.00000  Uiso   1.00
H230   H     0.16427   0.64471   0.40264   0.00000  Uiso   1.00
H231   H     0.14204   0.60814   0.35363   0.00000  Uiso   1.00
H232   H     0.20282   0.65524   0.34855   0.00000  Uiso   1.00
H233   H     0.19388   0.59741   0.14712   0.00000  Uiso   1.00
H234   H     0.28987   0.55855   0.13816   0.00000  Uiso   1.00
H235   H     0.29196   0.62859   0.13348   0.00000  Uiso   1.00
H236   H     0.10591   0.37588   0.46136   0.00000  Uiso   1.00
H237   H     0.29845   0.58817   0.08353   0.00000  Uiso   1.00
H238   H     0.13945   0.40260   0.35288   0.00000  Uiso   1.00
H239   H     0.04346   0.44150   0.36188   0.00000  Uiso   1.00
H240   H     0.03488   0.41179   0.41648   0.00000  Uiso   1.00
H241   H     0.04136   0.37145   0.36648   0.00000  Uiso   1.00
H242   H     0.22957   0.62335   0.45877   0.00000  Uiso   1.00
H243   H     0.10377   0.37665   0.04123   0.00000  Uiso   1.00
H244   H     0.23399   0.33648   0.24361   0.00000  Uiso   1.00
H245   H     0.09934   0.66352   0.25639   0.00000  Uiso   1.00
H246   H     0.00461   0.46086   0.21596   0.00000  Uiso   1.00
H247   H     0.32872   0.53914   0.28404   0.00000  Uiso   1.00
H248   H     0.07534   0.39984   0.11123   0.00000  Uiso   1.00
N249   N     0.31678   0.48598   0.23783   0.00000  Uiso   1.00
N250   N     0.01656   0.51402   0.26217   0.00000  Uiso   1.00
N251   N     0.11499   0.41452   0.12062   0.00000  Uiso   1.00
N252   N     0.21834   0.58548   0.37938   0.00000  Uiso   1.00
N253   N     0.21485   0.58891   0.11645   0.00000  Uiso   1.00
N254   N     0.11848   0.41109   0.38355   0.00000  Uiso   1.00
O255   O     0.12975   0.57952   0.25299   0.00000  Uiso   1.00
O256   O     0.20358   0.42048   0.24702   0.00000  Uiso   1.00
O257   O     0.22613   0.57054   0.24519   0.00000  Uiso   1.00
O258   O     0.10720   0.42946   0.25482   0.00000  Uiso   1.00
O259   O     0.11847   0.50450   0.31998   0.00000  Uiso   1.00
O260   O     0.21486   0.49550   0.18002   0.00000  Uiso   1.00
O261   O     0.21485   0.49552   0.31218   0.00000  Uiso   1.00
O262   O     0.11848   0.50448   0.18783   0.00000  Uiso   1.00
Zn263  Zn    0.10231   0.50600   0.25521   0.00000  Uiso   1.00
Zn264  Zn    0.23102   0.49400   0.24479   0.00000  Uiso   1.00
C265   C     0.51528   0.59825   0.24878   0.00000  Uiso   1.00
C266   C     0.52592   0.54295   0.40548   0.00000  Uiso   1.00
C267   C     0.49849   0.50105   0.11621   0.00000  Uiso   1.00
C268   C     0.50151   0.49894   0.38379   0.00000  Uiso   1.00
C269   C     0.52384   0.54460   0.09294   0.00000  Uiso   1.00
C270   C     0.47616   0.45540   0.40706   0.00000  Uiso   1.00
C271   C     0.52302   0.54473   0.04629   0.00000  Uiso   1.00
C272   C     0.47699   0.45527   0.45371   0.00000  Uiso   1.00
C273   C     0.49964   0.50017   0.02351   0.00000  Uiso   1.00
C274   C     0.50036   0.49983   0.47649   0.00000  Uiso   1.00
C275   C     0.47546   0.45603   0.04761   0.00000  Uiso   1.00
C276   C     0.48472   0.40175   0.25122   0.00000  Uiso   1.00
C277   C     0.52454   0.54397   0.45239   0.00000  Uiso   1.00
C278   C     0.54458   0.58880   0.02205   0.00000  Uiso   1.00
C279   C     0.45543   0.41120   0.47795   0.00000  Uiso   1.00
C280   C     0.48696   0.37463   0.12926   0.00000  Uiso   1.00
C281   C     0.51304   0.62537   0.37074   0.00000  Uiso   1.00
C282   C     0.61027   0.59093   0.11789   0.00000  Uiso   1.00
C283   C     0.38973   0.40908   0.38211   0.00000  Uiso   1.00
C284   C     0.54570   0.58832   0.47575   0.00000  Uiso   1.00
C285   C     0.45431   0.41167   0.02425   0.00000  Uiso   1.00
C286   C     0.52332   0.65276   0.24784   0.00000  Uiso   1.00
C287   C     0.47668   0.34724   0.25216   0.00000  Uiso   1.00
C288   C     0.50052   0.49960   0.33626   0.00000  Uiso   1.00
C289   C     0.49948   0.50040   0.16374   0.00000  Uiso   1.00
C290   C     0.47409   0.45705   0.09451   0.00000  Uiso   1.00
H291   H     0.56077   0.62412   0.03864   0.00000  Uiso   1.00
H292   H     0.50240   0.35528   0.09737   0.00000  Uiso   1.00
H293   H     0.46385   0.34476   0.15146   0.00000  Uiso   1.00
H294   H     0.52462   0.39186   0.14637   0.00000  Uiso   1.00
H295   H     0.59133   0.60016   0.38877   0.00000  Uiso   1.00
H296   H     0.49760   0.64471   0.40264   0.00000  Uiso   1.00
H297   H     0.47538   0.60814   0.35363   0.00000  Uiso   1.00
H298   H     0.53615   0.65524   0.34855   0.00000  Uiso   1.00
H299   H     0.52721   0.59741   0.14712   0.00000  Uiso   1.00
H300   H     0.62320   0.55855   0.13816   0.00000  Uiso   1.00
H301   H     0.62529   0.62859   0.13348   0.00000  Uiso   1.00
H302   H     0.43924   0.37588   0.46136   0.00000  Uiso   1.00
H303   H     0.63179   0.58817   0.08353   0.00000  Uiso   1.00
H304   H     0.47278   0.40260   0.35288   0.00000  Uiso   1.00
H305   H     0.37679   0.44150   0.36188   0.00000  Uiso   1.00
H306   H     0.36821   0.41179   0.41648   0.00000  Uiso   1.00
H307   H     0.37470   0.37145   0.36648   0.00000  Uiso   1.00
H308   H     0.56290   0.62335   0.45877   0.00000  Uiso   1.00
H309   H     0.43711   0.37665   0.04123   0.00000  Uiso   1.00
H310   H     0.56733   0.33648   0.24361   0.00000  Uiso   1.00
H311   H     0.43267   0.66352   0.25639   0.00000  Uiso   1.00
H312   H     0.33794   0.46086   0.21596   0.00000  Uiso   1.00
H313   H     0.66206   0.53914   0.28404   0.00000  Uiso   1.00
H314   H     0.40867   0.39984   0.11123   0.00000  Uiso   1.00
N315   N     0.65011   0.48598   0.23783   0.00000  Uiso   1.00
N316   N     0.34989   0.51402   0.26217   0.00000  Uiso   1.00
N317   N     0.44832   0.41452   0.12062   0.00000  Uiso   1.00
N318   N     0.55168   0.58548   0.37938   0.00000  Uiso   1.00
N319   N     0.54818   0.58891   0.11645   0.00000  Uiso   1.00
N320   N     0.45181   0.41109   0.38355   0.00000  Uiso   1.00
O321   O     0.46308   0.57952   0.25299   0.00000  Uiso   1.00
O322   O     0.53692   0.42048   0.24702   0.00000  Uiso   1.00
O323   O     0.55946   0.57054   0.24519   0.00000  Uiso   1.00
O324   O     0.44054   0.42946   0.25482   0.00000  Uiso   1.00
O325   O     0.45181   0.50450   0.31998   0.00000  Uiso   1.00
O326   O     0.54819   0.49550   0.18002   0.00000  Uiso   1.00
O327   O     0.54819   0.49552   0.31218   0.00000  Uiso   1.00
O328   O     0.45181   0.50448   0.18783   0.00000  Uiso   1.00
Zn329  Zn    0.43565   0.50600   0.25521   0.00000  Uiso   1.00
Zn330  Zn    0.56435   0.49400   0.24479   0.00000  Uiso   1.00
C331   C     0.84862   0.59825   0.24878   0.00000  Uiso   1.00
C332   C     0.85925   0.54295   0.40548   0.00000  Uiso   1.00
C333   C     0.83182   0.50105   0.11621   0.00000  Uiso   1.00
C334   C     0.83485   0.49894   0.38379   0.00000  Uiso   1.00
C335   C     0.85717   0.54460   0.09294   0.00000  Uiso   1.00
C336   C     0.80949   0.45540   0.40706   0.00000  Uiso   1.00
C337   C     0.85635   0.54473   0.04629   0.00000  Uiso   1.00
C338   C     0.81032   0.45527   0.45371   0.00000  Uiso   1.00
C339   C     0.83298   0.50017   0.02351   0.00000  Uiso   1.00
C340   C     0.83370   0.49983   0.47649   0.00000  Uiso   1.00
C341   C     0.80879   0.45603   0.04761   0.00000  Uiso   1.00
C342   C     0.81805   0.40175   0.25122   0.00000  Uiso   1.00
C343   C     0.85788   0.54397   0.45239   0.00000  Uiso   1.00
C344   C     0.87791   0.58880   0.02205   0.00000  Uiso   1.00
C345   C     0.78876   0.41120   0.47795   0.00000  Uiso   1.00
C346   C     0.82029   0.37463   0.12926   0.00000  Uiso   1.00
C347   C     0.84637   0.62537   0.37074   0.00000  Uiso   1.00
C348   C     0.94360   0.59093   0.11789   0.00000  Uiso   1.00
C349   C     0.72306   0.40908   0.38211   0.00000  Uiso   1.00
C350   C     0.87904   0.58832   0.47575   0.00000  Uiso   1.00
C351   C     0.78764   0.41167   0.02425   0.00000  Uiso   1.00
C352   C     0.85665   0.65276   0.24784   0.00000  Uiso   1.00
C353   C     0.81002   0.34724   0.25216   0.00000  Uiso   1.00
C354   C     0.83386   0.49960   0.33626   0.00000  Uiso   1.00
C355   C     0.83281   0.50040   0.16374   0.00000  Uiso   1.00
C356   C     0.80742   0.45705   0.09451   0.00000  Uiso   1.00
H357   H     0.89410   0.62412   0.03864   0.00000  Uiso   1.00
H358   H     0.83573   0.35528   0.09737   0.00000  Uiso   1.00
H359   H     0.79718   0.34476   0.15146   0.00000  Uiso   1.00
H360   H     0.85795   0.39186   0.14637   0.00000  Uiso   1.00
H361   H     0.92466   0.60016   0.38877   0.00000  Uiso   1.00
H362   H     0.83094   0.64471   0.40264   0.00000  Uiso   1.00
H363   H     0.80871   0.60814   0.35363   0.00000  Uiso   1.00
H364   H     0.86948   0.65524   0.34855   0.00000  Uiso   1.00
H365   H     0.86054   0.59741   0.14712   0.00000  Uiso   1.00
H366   H     0.95653   0.55855   0.13816   0.00000  Uiso   1.00
H367   H     0.95863   0.62859   0.13348   0.00000  Uiso   1.00
H368   H     0.77257   0.37588   0.46136   0.00000  Uiso   1.00
H369   H     0.96512   0.58817   0.08353   0.00000  Uiso   1.00
H370   H     0.80611   0.40260   0.35288   0.00000  Uiso   1.00
H371   H     0.71013   0.44150   0.36188   0.00000  Uiso   1.00
H372   H     0.70155   0.41179   0.41648   0.00000  Uiso   1.00
H373   H     0.70803   0.37145   0.36648   0.00000  Uiso   1.00
H374   H     0.89624   0.62335   0.45877   0.00000  Uiso   1.00
H375   H     0.77044   0.37665   0.04123   0.00000  Uiso   1.00
H376   H     0.90066   0.33648   0.24361   0.00000  Uiso   1.00
H377   H     0.76601   0.66352   0.25639   0.00000  Uiso   1.00
H378   H     0.67128   0.46086   0.21596   0.00000  Uiso   1.00
H379   H     0.99539   0.53914   0.28404   0.00000  Uiso   1.00
H380   H     0.74201   0.39984   0.11123   0.00000  Uiso   1.00
N381   N     0.98344   0.48598   0.23783   0.00000  Uiso   1.00
N382   N     0.68322   0.51402   0.26217   0.00000  Uiso   1.00
N383   N     0.78166   0.41452   0.12062   0.00000  Uiso   1.00
N384   N     0.88501   0.58548   0.37938   0.00000  Uiso   1.00
N385   N     0.88152   0.58891   0.11645   0.00000  Uiso   1.00
N386   N     0.78514   0.41109   0.38355   0.00000  Uiso   1.00
O387   O     0.79642   0.57952   0.25299   0.00000  Uiso   1.00
O388   O     0.87025   0.42048   0.24702   0.00000  Uiso   1.00
O389   O     0.89280   0.57054   0.24519   0.00000  Uiso   1.00
O390   O     0.77387   0.42946   0.25482   0.00000  Uiso   1.00
O391   O     0.78514   0.50450   0.31998   0.00000  Uiso   1.00
O392   O     0.88153   0.49550   0.18002   0.00000  Uiso   1.00
O393   O     0.88152   0.49552   0.31218   0.00000  Uiso   1.00
O394   O     0.78515   0.50448   0.18783   0.00000  Uiso   1.00
Zn395  Zn    0.76898   0.50600   0.25521   0.00000  Uiso   1.00
Zn396  Zn    0.89769   0.49400   0.24479   0.00000  Uiso   1.00
C397   C     0.18195   0.93158   0.24878   0.00000  Uiso   1.00
C398   C     0.19258   0.87628   0.40548   0.00000  Uiso   1.00
C399   C     0.16515   0.83439   0.11621   0.00000  Uiso   1.00
C400   C     0.16818   0.83228   0.38379   0.00000  Uiso   1.00
C401   C     0.19051   0.87793   0.09294   0.00000  Uiso   1.00
C402   C     0.14283   0.78873   0.40706   0.00000  Uiso   1.00
C403   C     0.18968   0.87806   0.04629   0.00000  Uiso   1.00
C404   C     0.14366   0.78860   0.45371   0.00000  Uiso   1.00
C405   C     0.16631   0.83350   0.02351   0.00000  Uiso   1.00
C406   C     0.16703   0.83316   0.47649   0.00000  Uiso   1.00
C407   C     0.14213   0.78937   0.04761   0.00000  Uiso   1.00
C408   C     0.15138   0.73508   0.25122   0.00000  Uiso   1.00
C409   C     0.19121   0.87730   0.45239   0.00000  Uiso   1.00
C410   C     0.21125   0.92213   0.02205   0.00000  Uiso   1.00
C411   C     0.12210   0.74453   0.47795   0.00000  Uiso   1.00
C412   C     0.15363   0.70797   0.12926   0.00000  Uiso   1.00
C413   C     0.17970   0.95870   0.37074   0.00000  Uiso   1.00
C414   C     0.27693   0.92426   0.11789   0.00000  Uiso   1.00
C415   C     0.05639   0.74241   0.38211   0.00000  Uiso   1.00
C416   C     0.21237   0.92166   0.47575   0.00000  Uiso   1.00
C417   C     0.12097   0.74501   0.02425   0.00000  Uiso   1.00
C418   C     0.18998   0.98610   0.24784   0.00000  Uiso   1.00
C419   C     0.14335   0.68057   0.25216   0.00000  Uiso   1.00
C420   C     0.16719   0.83294   0.33626   0.00000  Uiso   1.00
C421   C     0.16614   0.83373   0.16374   0.00000  Uiso   1.00
C422   C     0.14075   0.79038   0.09451   0.00000  Uiso   1.00
H423   H     0.22744   0.95745   0.03864   0.00000  Uiso   1.00
H424   H     0.16907   0.68862   0.09737   0.00000  Uiso   1.00
H425   H     0.13052   0.67809   0.15146   0.00000  Uiso   1.00
H426   H     0.19129   0.72520   0.14637   0.00000  Uiso   1.00
H427   H     0.25799   0.93349   0.38877   0.00000  Uiso   1.00
H428   H     0.16427   0.97805   0.40264   0.00000  Uiso   1.00
H429   H     0.14204   0.94147   0.35363   0.00000  Uiso   1.00
H430   H     0.20282   0.98858   0.34855   0.00000  Uiso   1.00
H431   H     0.19388   0.93074   0.14712   0.00000  Uiso   1.00
H432   H     0.28987   0.89188   0.13816   0.00000  Uiso   1.00
H433   H     0.29196   0.96192   0.13348   0.00000  Uiso   1.00
H434   H     0.10591   0.70921   0.46136   0.00000  Uiso   1.00
H435   H     0.29845   0.92151   0.08353   0.00000  Uiso   1.00
H436   H     0.13945   0.73593   0.35288   0.00000  Uiso   1.00
H437   H     0.04346   0.77483   0.36188   0.00000  Uiso   1.00
H438   H     0.03488   0.74512   0.41648   0.00000  Uiso   1.00
H439   H     0.04136   0.70478   0.36648   0.00000  Uiso   1.00
H440   H     0.22957   0.95668   0.45877   0.00000  Uiso   1.00
H441   H     0.10377   0.70998   0.04123   0.00000  Uiso   1.00
H442   H     0.23399   0.66982   0.24361   0.00000  Uiso   1.00
H443   H     0.09934   0.99685   0.25639   0.00000  Uiso   1.00
H444   H     0.00461   0.79419   0.21596   0.00000  Uiso   1.00
H445   H     0.32872   0.87247   0.28404   0.00000  Uiso   1.00
H446   H     0.07534   0.73317   0.11123   0.00000  Uiso   1.00
N447   N     0.31678   0.81932   0.23783   0.00000  Uiso   1.00
N448   N     0.01656   0.84735   0.26217   0.00000  Uiso   1.00
N449   N     0.11499   0.74785   0.12062   0.00000  Uiso   1.00
N450   N     0.21834   0.91882   0.37938   0.00000  Uiso   1.00
N451   N     0.21485   0.92224   0.11645   0.00000  Uiso   1.00
N452   N     0.11848   0.74442   0.38355   0.00000  Uiso   1.00
O453   O     0.12975   0.91286   0.25299   0.00000  Uiso   1.00
O454   O     0.20358   0.75381   0.24702   0.00000  Uiso   1.00
O455   O     0.22613   0.90387   0.24519   0.00000  Uiso   1.00
O456   O     0.10720   0.76279   0.25482   0.00000  Uiso   1.00
O457   O     0.11847   0.83784   0.31998   0.00000  Uiso   1.00
O458   O     0.21486   0.82883   0.18002   0.00000  Uiso   1.00
O459   O     0.21485   0.82885   0.31218   0.00000  Uiso   1.00
O460   O     0.11848   0.83781   0.18783   0.00000  Uiso   1.00
Zn461  Zn    0.10231   0.83933   0.25521   0.00000  Uiso   1.00
Zn462  Zn    0.23102   0.82734   0.24479   0.00000  Uiso   1.00
C463   C     0.51528   0.93158   0.24878   0.00000  Uiso   1.00
C464   C     0.52592   0.87628   0.40548   0.00000  Uiso   1.00
C465   C     0.49849   0.83439   0.11621   0.00000  Uiso   1.00
C466   C     0.50151   0.83228   0.38379   0.00000  Uiso   1.00
C467   C     0.52384   0.87793   0.09294   0.00000  Uiso   1.00
C468   C     0.47616   0.78873   0.40706   0.00000  Uiso   1.00
C469   C     0.52302   0.87806   0.04629   0.00000  Uiso   1.00
C470   C     0.47699   0.78860   0.45371   0.00000  Uiso   1.00
C471   C     0.49964   0.83350   0.02351   0.00000  Uiso   1.00
C472   C     0.50036   0.83316   0.47649   0.00000  Uiso   1.00
C473   C     0.47546   0.78937   0.04761   0.00000  Uiso   1.00
C474   C     0.48472   0.73508   0.25122   0.00000  Uiso   1.00
C475   C     0.52454   0.87730   0.45239   0.00000  Uiso   1.00
C476   C     0.54458   0.92213   0.02205   0.00000  Uiso   1.00
C477   C     0.45543   0.74453   0.47795   0.00000  Uiso   1.00
C478   C     0.48696   0.70797   0.12926   0.00000  Uiso   1.00
C479   C     0.51304   0.95870   0.37074   0.00000  Uiso   1.00
C480   C     0.61027   0.92426   0.11789   0.00000  Uiso   1.00
C481   C     0.38973   0.74241   0.38211   0.00000  Uiso   1.00
C482   C     0.54570   0.92166   0.47575   0.00000  Uiso   1.00
C483   C     0.45431   0.74501   0.02425   0.00000  Uiso   1.00
C484   C     0.52332   0.98610   0.24784   0.00000  Uiso   1.00
C485   C     0.47668   0.68057   0.25216   0.00000  Uiso   1.00
C486   C     0.50052   0.83294   0.33626   0.00000  Uiso   1.00
C487   C     0.49948   0.83373   0.16374   0.00000  Uiso   1.00
C488   C     0.47409   0.79038   0.09451   0.00000  Uiso   1.00
H489   H     0.56077   0.95745   0.03864   0.00000  Uiso   1.00
H490   H     0.50240   0.68862   0.09737   0.00000  Uiso   1.00
H491   H     0.46385   0.67809   0.15146   0.00000  Uiso   1.00
H492   H     0.52462   0.72520   0.14637   0.00000  Uiso   1.00
H493   H     0.59133   0.93349   0.38877   0.00000  Uiso   1.00
H494   H     0.49760   0.97805   0.40264   0.00000  Uiso   1.00
H495   H     0.47538   0.94147   0.35363   0.00000  Uiso   1.00
H496   H     0.53615   0.98858   0.34855   0.00000  Uiso   1.00
H497   H     0.52721   0.93074   0.14712   0.00000  Uiso   1.00
H498   H     0.62320   0.89188   0.13816   0.00000  Uiso   1.00
H499   H     0.62529   0.96192   0.13348   0.00000  Uiso   1.00
H500   H     0.43924   0.70921   0.46136   0.00000  Uiso   1.00
H501   H     0.63179   0.92151   0.08353   0.00000  Uiso   1.00
H502   H     0.47278   0.73593   0.35288   0.00000  Uiso   1.00
H503   H     0.37679   0.77483   0.36188   0.00000  Uiso   1.00
H504   H     0.36821   0.74512   0.41648   0.00000  Uiso   1.00
H505   H     0.37470   0.70478   0.36648   0.00000  Uiso   1.00
H506   H     0.56290   0.95668   0.45877   0.00000  Uiso   1.00
H507   H     0.43711   0.70998   0.04123   0.00000  Uiso   1.00
H508   H     0.56733   0.66982   0.24361   0.00000  Uiso   1.00
H509   H     0.43267   0.99685   0.25639   0.00000  Uiso   1.00
H510   H     0.33794   0.79419   0.21596   0.00000  Uiso   1.00
H511   H     0.66206   0.87247   0.28404   0.00000  Uiso   1.00
H512   H     0.40867   0.73317   0.11123   0.00000  Uiso   1.00
N513   N     0.65011   0.81932   0.23783   0.00000  Uiso   1.00
N514   N     0.34989   0.84735   0.26217   0.00000  Uiso   1.00
N515   N     0.44832   0.74785   0.12062   0.00000  Uiso   1.00
N516   N     0.55168   0.91882   0.37938   0.00000  Uiso   1.00
N517   N     0.54818   0.92224   0.11645   0.00000  Uiso   1.00
N518   N     0.45181   0.74442   0.38355   0.00000  Uiso   1.00
O519   O     0.46308   0.91286   0.25299   0.00000  Uiso   1.00
O520   O     0.53692   0.75381   0.24702   0.00000  Uiso   1.00
O521   O     0.55946   0.90387   0.24519   0.00000  Uiso   1.00
O522   O     0.44054   0.76279   0.25482   0.00000  Uiso   1.00
O523   O     0.45181   0.83784   0.31998   0.00000  Uiso   1.00
O524   O     0.54819   0.82883   0.18002   0.00000  Uiso   1.00
O525   O     0.54819   0.82885   0.31218   0.00000  Uiso   1.00
O526   O     0.45181   0.83781   0.18783   0.00000  Uiso   1.00
Zn527  Zn    0.43565   0.83933   0.25521   0.00000  Uiso   1.00
Zn528  Zn    0.56435   0.82734   0.24479   0.00000  Uiso   1.00
C529   C     0.84862   0.93158   0.24878   0.00000  Uiso   1.00
C530   C     0.85925   0.87628   0.40548   0.00000  Uiso   1.00
C531   C     0.83182   0.83439   0.11621   0.00000  Uiso   1.00
C532   C     0.83485   0.83228   0.38379   0.00000  Uiso   1.00
C533   C     0.85717   0.87793   0.09294   0.00000  Uiso   1.00
C534   C     0.80949   0.78873   0.40706   0.00000  Uiso   1.00
C535   C     0.85635   0.87806   0.04629   0.00000  Uiso   1.00
C536   C     0.81032   0.78860   0.45371   0.00000  Uiso   1.00
C537   C     0.83298   0.83350   0.02351   0.00000  Uiso   1.00
C538   C     0.83370   0.83316   0.47649   0.00000  Uiso   1.00
C539   C     0.80879   0.78937   0.04761   0.00000  Uiso   1.00
C540   C     0.81805   0.73508   0.25122   0.00000  Uiso   1.00
C541   C     0.85788   0.87730   0.45239   0.00000  Uiso   1.00
C542   C     0.87791   0.92213   0.02205   0.00000  Uiso   1.00
C543   C     0.78876   0.74453   0.47795   0.00000  Uiso   1.00
C544   C     0.82029   0.70797   0.12926   0.00000  Uiso   1.00
C545   C     0.84637   0.95870   0.37074   0.00000  Uiso   1.00
C546   C     0.94360   0.92426   0.11789   0.00000  Uiso   1.00
C547   C     0.72306   0.74241   0.38211   0.00000  Uiso   1.00
C548   C     0.87904   0.92166   0.47575   0.00000  Uiso   1.00
C549   C     0.78764   0.74501   0.02425   0.00000  Uiso   1.00
C550   C     0.85665   0.98610   0.24784   0.00000  Uiso   1.00
C551   C     0.81002   0.68057   0.25216   0.00000  Uiso   1.00
C552   C     0.83386   0.83294   0.33626   0.00000  Uiso   1.00
C553   C     0.83281   0.83373   0.16374   0.00000  Uiso   1.00
C554   C     0.80742   0.79038   0.09451   0.00000  Uiso   1.00
H555   H     0.89410   0.95745   0.03864   0.00000  Uiso   1.00
H556   H     0.83573   0.68862   0.09737   0.00000  Uiso   1.00
H557   H     0.79718   0.67809   0.15146   0.00000  Uiso   1.00
H558   H     0.85795   0.72520   0.14637   0.00000  Uiso   1.00
H559   H     0.92466   0.93349   0.38877   0.00000  Uiso   1.00
H560   H     0.83094   0.97805   0.40264   0.00000  Uiso   1.00
H561   H     0.80871   0.94147   0.35363   0.00000  Uiso   1.00
H562   H     0.86948   0.98858   0.34855   0.00000  Uiso   1.00
H563   H     0.86054   0.93074   0.14712   0.00000  Uiso   1.00
H564   H     0.95653   0.89188   0.13816   0.00000  Uiso   1.00
H565   H     0.95863   0.96192   0.13348   0.00000  Uiso   1.00
H566   H     0.77257   0.70921   0.46136   0.00000  Uiso   1.00
H567   H     0.96512   0.92151   0.08353   0.00000  Uiso   1.00
H568   H     0.80611   0.73593   0.35288   0.00000  Uiso   1.00
H569   H     0.71013   0.77483   0.36188   0.00000  Uiso   1.00
H570   H     0.70155   0.74512   0.41648   0.00000  Uiso   1.00
H571   H     0.70803   0.70478   0.36648   0.00000  Uiso   1.00
H572   H     0.89624   0.95668   0.45877   0.00000  Uiso   1.00
H573   H     0.77044   0.70998   0.04123   0.00000  Uiso   1.00
H574   H     0.90066   0.66982   0.24361   0.00000  Uiso   1.00
H575   H     0.76601   0.99685   0.25639   0.00000  Uiso   1.00
H576   H     0.67128   0.79419   0.21596   0.00000  Uiso   1.00
H577   H     0.99539   0.87247   0.28404   0.00000  Uiso   1.00
H578   H     0.74201   0.73317   0.11123   0.00000  Uiso   1.00
N579   N     0.98344   0.81932   0.23783   0.00000  Uiso   1.00
N580   N     0.68322   0.84735   0.26217   0.00000  Uiso   1.00
N581   N     0.78166   0.74785   0.12062   0.00000  Uiso   1.00
N582   N     0.88501   0.91882   0.37938   0.00000  Uiso   1.00
N583   N     0.88152   0.92224   0.11645   0.00000  Uiso   1.00
N584   N     0.78514   0.74442   0.38355   0.00000  Uiso   1.00
O585   O     0.79642   0.91286   0.25299   0.00000  Uiso   1.00
O586   O     0.87025   0.75381   0.24702   0.00000  Uiso   1.00
O587   O     0.89280   0.90387   0.24519   0.00000  Uiso   1.00
O588   O     0.77387   0.76279   0.25482   0.00000  Uiso   1.00
O589   O     0.78514   0.83784   0.31998   0.00000  Uiso   1.00
O590   O     0.88153   0.82883   0.18002   0.00000  Uiso   1.00
O591   O     0.88152   0.82885   0.31218   0.00000  Uiso   1.00
O592   O     0.78515   0.83781   0.18783   0.00000  Uiso   1.00
Zn593  Zn    0.76898   0.83933   0.25521   0.00000  Uiso   1.00
Zn594  Zn    0.89769   0.82734   0.24479   0.00000  Uiso   1.00
C595   C     0.18195   0.26492   0.74878   0.00000  Uiso   1.00
C596   C     0.19258   0.20961   0.90548   0.00000  Uiso   1.00
C597   C     0.16515   0.16772   0.61621   0.00000  Uiso   1.00
C598   C     0.16818   0.16561   0.88379   0.00000  Uiso   1.00
C599   C     0.19051   0.21127   0.59294   0.00000  Uiso   1.00
C600   C     0.14283   0.12207   0.90706   0.00000  Uiso   1.00
C601   C     0.18968   0.21139   0.54629   0.00000  Uiso   1.00
C602   C     0.14366   0.12194   0.95371   0.00000  Uiso   1.00
C603   C     0.16631   0.16684   0.52351   0.00000  Uiso   1.00
C604   C     0.16703   0.16649   0.97649   0.00000  Uiso   1.00
C605   C     0.14213   0.12270   0.54761   0.00000  Uiso   1.00
C606   C     0.15138   0.06842   0.75122   0.00000  Uiso   1.00
C607   C     0.19121   0.21063   0.95239   0.00000  Uiso   1.00
C608   C     0.21125   0.25546   0.52205   0.00000  Uiso   1.00
C609   C     0.12210   0.07787   0.97795   0.00000  Uiso   1.00
C610   C     0.15363   0.04130   0.62926   0.00000  Uiso   1.00
C611   C     0.17970   0.29203   0.87074   0.00000  Uiso   1.00
C612   C     0.27693   0.25760   0.61789   0.00000  Uiso   1.00
C613   C     0.05639   0.07575   0.88211   0.00000  Uiso   1.00
C614   C     0.21237   0.25499   0.97575   0.00000  Uiso   1.00
C615   C     0.12097   0.07834   0.52425   0.00000  Uiso   1.00
C616   C     0.18998   0.31943   0.74784   0.00000  Uiso   1.00
C617   C     0.14335   0.01390   0.75216   0.00000  Uiso   1.00
C618   C     0.16719   0.16627   0.83626   0.00000  Uiso   1.00
C619   C     0.16614   0.16707   0.66374   0.00000  Uiso   1.00
C620   C     0.14075   0.12372   0.59451   0.00000  Uiso   1.00
H621   H     0.22744   0.29078   0.53864   0.00000  Uiso   1.00
H622   H     0.16907   0.02195   0.59737   0.00000  Uiso   1.00
H623   H     0.13052   0.01142   0.65146   0.00000  Uiso   1.00
H624   H     0.19129   0.05853   0.64637   0.00000  Uiso   1.00
H625   H     0.25799   0.26683   0.88877   0.00000  Uiso   1.00
H626   H     0.16427   0.31138   0.90264   0.00000  Uiso   1.00
H627   H     0.14204   0.27481   0.85363   0.00000  Uiso   1.00
H628   H     0.20282   0.32191   0.84855   0.00000  Uiso   1.00
H629   H     0.19388   0.26407   0.64712   0.00000  Uiso   1.00
H630   H     0.28987   0.22521   0.63816   0.00000  Uiso   1.00
H631   H     0.29196   0.29525   0.63348   0.00000  Uiso   1.00
H632   H     0.10591   0.04255   0.96136   0.00000  Uiso   1.00
H633   H     0.29845   0.25484   0.58353   0.00000  Uiso   1.00
H634   H     0.13945   0.06926   0.85288   0.00000  Uiso   1.00
H635   H     0.04346   0.10816   0.86188   0.00000  Uiso   1.00
H636   H     0.03488   0.07845   0.91648   0.00000  Uiso   1.00
H637   H     0.04136   0.03811   0.86648   0.00000  Uiso   1.00
H638   H     0.22957   0.29002   0.95877   0.00000  Uiso   1.00
H639   H     0.10377   0.04331   0.54123   0.00000  Uiso   1.00
H640   H     0.23399   0.00315   0.74361   0.00000  Uiso   1.00
H641   H     0.09934   0.33018   0.75639   0.00000  Uiso   1.00
H642   H     0.00461   0.12753   0.71596   0.00000  Uiso   1.00
H643   H     0.32872   0.20581   0.78404   0.00000  Uiso   1.00
H644   H     0.07534   0.06651   0.61123   0.00000  Uiso   1.00
N645   N     0.31678   0.15265   0.73783   0.00000  Uiso   1.00
N646   N     0.01656   0.18068   0.76217   0.00000  Uiso   1.00
N647   N     0.11499   0.08118   0.62062   0.00000  Uiso   1.00
N648   N     0.21834   0.25215   0.87938   0.00000  Uiso   1.00
N649   N     0.21485   0.25558   0.61645   0.00000  Uiso   1.00
N650   N     0.11848   0.07776   0.88355   0.00000  Uiso   1.00
O651   O     0.12975   0.24619   0.75299   0.00000  Uiso   1.00
O652   O     0.20358   0.08714   0.74702   0.00000  Uiso   1.00
O653   O     0.22613   0.23721   0.74519   0.00000  Uiso   1.00
O654   O     0.10720   0.09613   0.75482   0.00000  Uiso   1.00
O655   O     0.11847   0.17117   0.81998   0.00000  Uiso   1.00
O656   O     0.21486   0.16216   0.68002   0.00000  Uiso   1.00
O657   O     0.21485   0.16219   0.81218   0.00000  Uiso   1.00
O658   O     0.11848   0.17115   0.68783   0.00000  Uiso   1.00
Zn659  Zn    0.10231   0.17266   0.75521   0.00000  Uiso   1.00
Zn660  Zn    0.23102   0.16067   0.74479   0.00000  Uiso   1.00
C661   C     0.51528   0.26492   0.74878   0.00000  Uiso   1.00
C662   C     0.52592   0.20961   0.90548   0.00000  Uiso   1.00
C663   C     0.49849   0.16772   0.61621   0.00000  Uiso   1.00
C664   C     0.50151   0.16561   0.88379   0.00000  Uiso   1.00
C665   C     0.52384   0.21127   0.59294   0.00000  Uiso   1.00
C666   C     0.47616   0.12207   0.90706   0.00000  Uiso   1.00
C667   C     0.52302   0.21139   0.54629   0.00000  Uiso   1.00
C668   C     0.47699   0.12194   0.95371   0.00000  Uiso   1.00
C669   C     0.49964   0.16684   0.52351   0.00000  Uiso   1.00
C670   C     0.50036   0.16649   0.97649   0.00000  Uiso   1.00
C671   C     0.47546   0.12270   0.54761   0.00000  Uiso   1.00
C672   C     0.48472   0.06842   0.75122   0.00000  Uiso   1.00
C673   C     0.52454   0.21063   0.95239   0.00000  Uiso   1.00
C674   C     0.54458   0.25546   0.52205   0.00000  Uiso   1.00
C675   C     0.45543   0.07787   0.97795   0.00000  Uiso   1.00
C676   C     0.48696   0.04130   0.62926   0.00000  Uiso   1.00
C677   C     0.51304   0.29203   0.87074   0.00000  Uiso   1.00
C678   C     0.61027   0.25760   0.61789   0.00000  Uiso   1.00
C679   C     0.38973   0.07575   0.88211   0.00000  Uiso   1.00
C680   C     0.54570   0.25499   0.97575   0.00000  Uiso   1.00
C681   C     0.45431   0.07834   0.52425   0.00000  Uiso   1.00
C682   C     0.52332   0.31943   0.74784   0.00000  Uiso   1.00
C683   C     0.47668   0.01390   0.75216   0.00000  Uiso   1.00
C684   C     0.50052   0.16627   0.83626   0.00000  Uiso   1.00
C685   C     0.49948   0.16707   0.66374   0.00000  Uiso   1.00
C686   C     0.47409   0.12372   0.59451   0.00000  Uiso   1.00
H687   H     0.56077   0.29078   0.53864   0.00000  Uiso   1.00
H688   H     0.50240   0.02195   0.59737   0.00000  Uiso   1.00
H689   H     0.46385   0.01142   0.65146   0.00000  Uiso   1.00
H690   H     0.52462   0.05853   0.64637   0.00000  Uiso   1.00
H691   H     0.59133   0.26683   0.88877   0.00000  Uiso   1.00
H692   H     0.49760   0.31138   0.90264   0.00000  Uiso   1.00
H693   H     0.47538   0.27481   0.85363   0.00000  Uiso   1.00
H694   H     0.53615   0.32191   0.84855   0.00000  Uiso   1.00
H695   H     0.52721   0.26407   0.64712   0.00000  Uiso   1.00
H696   H     0.62320   0.22521   0.63816   0.00000  Uiso   1.00
H697   H     0.62529   0.29525   0.63348   0.00000  Uiso   1.00
H698   H     0.43924   0.04255   0.96136   0.00000  Uiso   1.00
H699   H     0.63179   0.25484   0.58353   0.00000  Uiso   1.00
H700   H     0.47278   0.06926   0.85288   0.00000  Uiso   1.00
H701   H     0.37679   0.10816   0.86188   0.00000  Uiso   1.00
H702   H     0.36821   0.07845   0.91648   0.00000  Uiso   1.00
H703   H     0.37470   0.03811   0.86648   0.00000  Uiso   1.00
H704   H     0.56290   0.29002   0.95877   0.00000  Uiso   1.00
H705   H     0.43711   0.04331   0.54123   0.00000  Uiso   1.00
H706   H     0.56733   0.00315   0.74361   0.00000  Uiso   1.00
H707   H     0.43267   0.33018   0.75639   0.00000  Uiso   1.00
H708   H     0.33794   0.12753   0.71596   0.00000  Uiso   1.00
H709   H     0.66206   0.20581   0.78404   0.00000  Uiso   1.00
H710   H     0.40867   0.06651   0.61123   0.00000  Uiso   1.00
N711   N     0.65011   0.15265   0.73783   0.00000  Uiso   1.00
N712   N     0.34989   0.18068   0.76217   0.00000  Uiso   1.00
N713   N     0.44832   0.08118   0.62062   0.00000  Uiso   1.00
N714   N     0.55168   0.25215   0.87938   0.00000  Uiso   1.00
N715   N     0.54818   0.25558   0.61645   0.00000  Uiso   1.00
N716   N     0.45181   0.07776   0.88355   0.00000  Uiso   1.00
O717   O     0.46308   0.24619   0.75299   0.00000  Uiso   1.00
O718   O     0.53692   0.08714   0.74702   0.00000  Uiso   1.00
O719   O     0.55946   0.23721   0.74519   0.00000  Uiso   1.00
O720   O     0.44054   0.09613   0.75482   0.00000  Uiso   1.00
O721   O     0.45181   0.17117   0.81998   0.00000  Uiso   1.00
O722   O     0.54819   0.16216   0.68002   0.00000  Uiso   1.00
O723   O     0.54819   0.16219   0.81218   0.00000  Uiso   1.00
O724   O     0.45181   0.17115   0.68783   0.00000  Uiso   1.00
Zn725  Zn    0.43565   0.17266   0.75521   0.00000  Uiso   1.00
Zn726  Zn    0.56435   0.16067   0.74479   0.00000  Uiso   1.00
C727   C     0.84862   0.26492   0.74878   0.00000  Uiso   1.00
C728   C     0.85925   0.20961   0.90548   0.00000  Uiso   1.00
C729   C     0.83182   0.16772   0.61621   0.00000  Uiso   1.00
C730   C     0.83485   0.16561   0.88379   0.00000  Uiso   1.00
C731   C     0.85717   0.21127   0.59294   0.00000  Uiso   1.00
C732   C     0.80949   0.12207   0.90706   0.00000  Uiso   1.00
C733   C     0.85635   0.21139   0.54629   0.00000  Uiso   1.00
C734   C     0.81032   0.12194   0.95371   0.00000  Uiso   1.00
C735   C     0.83298   0.16684   0.52351   0.00000  Uiso   1.00
C736   C     0.83370   0.16649   0.97649   0.00000  Uiso   1.00
C737   C     0.80879   0.12270   0.54761   0.00000  Uiso   1.00
C738   C     0.81805   0.06842   0.75122   0.00000  Uiso   1.00
C739   C     0.85788   0.21063   0.95239   0.00000  Uiso   1.00
C740   C     0.87791   0.25546   0.52205   0.00000  Uiso   1.00
C741   C     0.78876   0.07787   0.97795   0.00000  Uiso   1.00
C742   C     0.82029   0.04130   0.62926   0.00000  Uiso   1.00
C743   C     0.84637   0.29203   0.87074   0.00000  Uiso   1.00
C744   C     0.94360   0.25760   0.61789   0.00000  Uiso   1.00
C745   C     0.72306   0.07575   0.88211   0.00000  Uiso   1.00
C746   C     0.87904   0.25499   0.97575   0.00000  Uiso   1.00
C747   C     0.78764   0.07834   0.52425   0.00000  Uiso   1.00
C748   C     0.85665   0.31943   0.74784   0.00000  Uiso   1.00
C749   C     0.81002   0.01390   0.75216   0.00000  Uiso   1.00
C750   C     0.83386   0.16627   0.83626   0.00000  Uiso   1.00
C751   C     0.83281   0.16707   0.66374   0.00000  Uiso   1.00
C752   C     0.80742   0.12372   0.59451   0.00000  Uiso   1.00
H753   H     0.89410   0.29078   0.53864   0.00000  Uiso   1.00
H754   H     0.83573   0.02195   0.59737   0.00000  Uiso   1.00
H755   H     0.79718   0.01142   0.65146   0.00000  Uiso   1.00
H756   H     0.85795   0.05853   0.64637   0.00000  Uiso   1.00
H757   H     0.92466   0.26683   0.88877   0.00000  Uiso   1.00
H758   H     0.83094   0.31138   0.90264   0.00000  Uiso   1.00
H759   H     0.80871   0.27481   0.85363   0.00000  Uiso   1.00
H760   H     0.86948   0.32191   0.84855   0.00000  Uiso   1.00
H761   H     0.86054   0.26407   0.64712   0.00000  Uiso   1.00
H762   H     0.95653   0.22521   0.63816   0.00000  Uiso   1.00
H763   H     0.95863   0.29525   0.63348   0.00000  Uiso   1.00
H764   H     0.77257   0.04255   0.96136   0.00000  Uiso   1.00
H765   H     0.96512   0.25484   0.58353   0.00000  Uiso   1.00
H766   H     0.80611   0.06926   0.85288   0.00000  Uiso   1.00
H767   H     0.71013   0.10816   0.86188   0.00000  Uiso   1.00
H768   H     0.70155   0.07845   0.91648   0.00000  Uiso   1.00
H769   H     0.70803   0.03811   0.86648   0.00000  Uiso   1.00
H770   H     0.89624   0.29002   0.95877   0.00000  Uiso   1.00
H771   H     0.77044   0.04331   0.54123   0.00000  Uiso   1.00
H772   H     0.90066   0.00315   0.74361   0.00000  Uiso   1.00
H773   H     0.76601   0.33018   0.75639   0.00000  Uiso   1.00
H774   H     0.67128   0.12753   0.71596   0.00000  Uiso   1.00
H775   H     0.99539   0.20581   0.78404   0.00000  Uiso   1.00
H776   H     0.74201   0.06651   0.61123   0.00000  Uiso   1.00
N777   N     0.98344   0.15265   0.73783   0.00000  Uiso   1.00
N778   N     0.68322   0.18068   0.76217   0.00000  Uiso   1.00
N779   N     0.78166   0.08118   0.62062   0.00000  Uiso   1.00
N780   N     0.88501   0.25215   0.87938   0.00000  Uiso   1.00
N781   N     0.88152   0.25558   0.61645   0.00000  Uiso   1.00
N782   N     0.78514   0.07776   0.88355   0.00000  Uiso   1.00
O783   O     0.79642   0.24619   0.75299   0.00000  Uiso   1.00
O784   O     0.87025   0.08714   0.74702   0.00000  Uiso   1.00
O785   O     0.89280   0.23721   0.74519   0.00000  Uiso   1.00
O786   O     0.77387   0.09613   0.75482   0.00000  Uiso   1.00
O787   O     0.78514   0.17117   0.81998   0.00000  Uiso   1.00
O788   O     0.88153   0.16216   0.68002   0.00000  Uiso   1.00
O789   O     0.88152   0.16219   0.81218   0.00000  Uiso   1.00
O790   O     0.78515   0.17115   0.68783   0.00000  Uiso   1.00
Zn791  Zn    0.76898   0.17266   0.75521   0.00000  Uiso   1.00
Zn792  Zn    0.89769   0.16067   0.74479   0.00000  Uiso   1.00
C793   C     0.18195   0.59825   0.74878   0.00000  Uiso   1.00
C794   C     0.19258   0.54295   0.90548   0.00000  Uiso   1.00
C795   C     0.16515   0.50105   0.61621   0.00000  Uiso   1.00
C796   C     0.16818   0.49894   0.88379   0.00000  Uiso   1.00
C797   C     0.19051   0.54460   0.59294   0.00000  Uiso   1.00
C798   C     0.14283   0.45540   0.90706   0.00000  Uiso   1.00
C799   C     0.18968   0.54473   0.54629   0.00000  Uiso   1.00
C800   C     0.14366   0.45527   0.95371   0.00000  Uiso   1.00
C801   C     0.16631   0.50017   0.52351   0.00000  Uiso   1.00
C802   C     0.16703   0.49983   0.97649   0.00000  Uiso   1.00
C803   C     0.14213   0.45603   0.54761   0.00000  Uiso   1.00
C804   C     0.15138   0.40175   0.75122   0.00000  Uiso   1.00
C805   C     0.19121   0.54397   0.95239   0.00000  Uiso   1.00
C806   C     0.21125   0.58880   0.52205   0.00000  Uiso   1.00
C807   C     0.12210   0.41120   0.97795   0.00000  Uiso   1.00
C808   C     0.15363   0.37463   0.62926   0.00000  Uiso   1.00
C809   C     0.17970   0.62537   0.87074   0.00000  Uiso   1.00
C810   C     0.27693   0.59093   0.61789   0.00000  Uiso   1.00
C811   C     0.05639   0.40908   0.88211   0.00000  Uiso   1.00
C812   C     0.21237   0.58832   0.97575   0.00000  Uiso   1.00
C813   C     0.12097   0.41167   0.52425   0.00000  Uiso   1.00
C814   C     0.18998   0.65276   0.74784   0.00000  Uiso   1.00
C815   C     0.14335   0.34724   0.75216   0.00000  Uiso   1.00
C816   C     0.16719   0.49960   0.83626   0.00000  Uiso   1.00
C817   C     0.16614   0.50040   0.66374   0.00000  Uiso   1.00
C818   C     0.14075   0.45705   0.59451   0.00000  Uiso   1.00
H819   H     0.22744   0.62412   0.53864   0.00000  Uiso   1.00
H820   H     0.16907   0.35528   0.59737   0.00000  Uiso   1.00
H821   H     0.13052   0.34476   0.65146   0.00000  Uiso   1.00
H822   H     0.19129   0.39186   0.64637   0.00000  Uiso   1.00
H823   H     0.25799   0.60016   0.88877   0.00000  Uiso   1.00
H824   H     0.16427   0.64471   0.90264   0.00000  Uiso   1.00
H825   H     0.14204   0.60814   0.85363   0.00000  Uiso   1.00
H826   H     0.20282   0.65524   0.84855   0.00000  Uiso   1.00
H827   H     0.19388   0.59741   0.64712   0.00000  Uiso   1.00
H828   H     0.28987   0.55855   0.63816   0.00000  Uiso   1.00
H829   H     0.29196   0.62859   0.63348   0.00000  Uiso   1.00
H830   H     0.10591   0.37588   0.96136   0.00000  Uiso   1.00
H831   H     0.29845   0.58817   0.58353   0.00000  Uiso   1.00
H832   H     0.13945   0.40260   0.85288   0.00000  Uiso   1.00
H833   H     0.04346   0.44150   0.86188   0.00000  Uiso   1.00
H834   H     0.03488   0.41179   0.91648   0.00000  Uiso   1.00
H835   H     0.04136   0.37145   0.86648   0.00000  Uiso   1.00
H836   H     0.22957   0.62335   0.95877   0.00000  Uiso   1.00
H837   H     0.10377   0.37665   0.54123   0.00000  Uiso   1.00
H838   H     0.23399   0.33648   0.74361   0.00000  Uiso   1.00
H839   H     0.09934   0.66352   0.75639   0.00000  Uiso   1.00
H840   H     0.00461   0.46086   0.71596   0.00000  Uiso   1.00
H841   H     0.32872   0.53914   0.78404   0.00000  Uiso   1.00
H842   H     0.07534   0.39984   0.61123   0.00000  Uiso   1.00
N843   N     0.31678   0.48598   0.73783   0.00000  Uiso   1.00
N844   N     0.01656   0.51402   0.76217   0.00000  Uiso   1.00
N845   N     0.11499   0.41452   0.62062   0.00000  Uiso   1.00
N846   N     0.21834   0.58548   0.87938   0.00000  Uiso   1.00
N847   N     0.21485   0.58891   0.61645   0.00000  Uiso   1.00
N848   N     0.11848   0.41109   0.88355   0.00000  Uiso   1.00
O849   O     0.12975   0.57952   0.75299   0.00000  Uiso   1.00
O850   O     0.20358   0.42048   0.74702   0.00000  Uiso   1.00
O851   O     0.22613   0.57054   0.74519   0.00000  Uiso   1.00
O852   O     0.10720   0.42946   0.75482   0.00000  Uiso   1.00
O853   O     0.11847   0.50450   0.81998   0.00000  Uiso   1.00
O854   O     0.21486   0.49550   0.68002   0.00000  Uiso   1.00
O855   O     0.21485   0.49552   0.81218   0.00000  Uiso   1.00
O856   O     0.11848   0.50448   0.68783   0.00000  Uiso   1.00
Zn857  Zn    0.10231   0.50600   0.75521   0.00000  Uiso   1.00
Zn858  Zn    0.23102   0.49400   0.74479   0.00000  Uiso   1.00
C859   C     0.51528   0.59825   0.74878   0.00000  Uiso   1.00
C860   C     0.52592   0.54295   0.90548   0.00000  Uiso   1.00
C861   C     0.49849   0.50105   0.61621   0.00000  Uiso   1.00
C862   C     0.50151   0.49894   0.88379   0.00000  Uiso   1.00
C863   C     0.52384   0.54460   0.59294   0.00000  Uiso   1.00
C864   C     0.47616   0.45540   0.90706   0.00000  Uiso   1.00
C865   C     0.52302   0.54473   0.54629   0.00000  Uiso   1.00
C866   C     0.47699   0.45527   0.95371   0.00000  Uiso   1.00
C867   C     0.49964   0.50017   0.52351   0.00000  Uiso   1.00
C868   C     0.50036   0.49983   0.97649   0.00000  Uiso   1.00
C869   C     0.47546   0.45603   0.54761   0.00000  Uiso   1.00
C870   C     0.48472   0.40175   0.75122   0.00000  Uiso   1.00
C871   C     0.52454   0.54397   0.95239   0.00000  Uiso   1.00
C872   C     0.54458   0.58880   0.52205   0.00000  Uiso   1.00
C873   C     0.45543   0.41120   0.97795   0.00000  Uiso   1.00
C874   C     0.48696   0.37463   0.62926   0.00000  Uiso   1.00
C875   C     0.51304   0.62537   0.87074   0.00000  Uiso   1.00
C876   C     0.61027   0.59093   0.61789   0.00000  Uiso   1.00
C877   C     0.38973   0.40908   0.88211   0.00000  Uiso   1.00
C878   C     0.54570   0.58832   0.97575   0.00000  Uiso   1.00
C879   C     0.45431   0.41167   0.52425   0.00000  Uiso   1.00
C880   C     0.52332   0.65276   0.74784   0.00000  Uiso   1.00
C881   C     0.47668   0.34724   0.75216   0.00000  Uiso   1.00
C882   C     0.50052   0.49960   0.83626   0.00000  Uiso   1.00
C883   C     0.49948   0.50040   0.66374   0.00000  Uiso   1.00
C884   C     0.47409   0.45705   0.59451   0.00000  Uiso   1.00
H885   H     0.56077   0.62412   0.53864   0.00000  Uiso   1.00
H886   H     0.50240   0.35528   0.59737   0.00000  Uiso   1.00
H887   H     0.46385   0.34476   0.65146   0.00000  Uiso   1.00
H888   H     0.52462   0.39186   0.64637   0.00000  Uiso   1.00
H889   H     0.59133   0.60016   0.88877   0.00000  Uiso   1.00
H890   H     0.49760   0.64471   0.90264   0.00000  Uiso   1.00
H891   H     0.47538   0.60814   0.85363   0.00000  Uiso   1.00
H892   H     0.53615   0.65524   0.84855   0.00000  Uiso   1.00
H893   H     0.52721   0.59741   0.64712   0.00000  Uiso   1.00
H894   H     0.62320   0.55855   0.63816   0.00000  Uiso   1.00
H895   H     0.62529   0.62859   0.63348   0.00000  Uiso   1.00
H896   H     0.43924   0.37588   0.96136   0.00000  Uiso   1.00
H897   H     0.63179   0.58817   0.58353   0.00000  Uiso   1.00
H898   H     0.47278   0.40260   0.85288   0.00000  Uiso   1.00
H899   H     0.37679   0.44150   0.86188   0.00000  Uiso   1.00
H900   H     0.36821   0.41179   0.91648   0.00000  Uiso   1.00
H901   H     0.37470   0.37145   0.86648   0.00000  Uiso   1.00
H902   H     0.56290   0.62335   0.95877   0.00000  Uiso   1.00
H903   H     0.43711   0.37665   0.54123   0.00000  Uiso   1.00
H904   H     0.56733   0.33648   0.74361   0.00000  Uiso   1.00
H905   H     0.43267   0.66352   0.75639   0.00000  Uiso   1.00
H906   H     0.33794   0.46086   0.71596   0.00000  Uiso   1.00
H907   H     0.66206   0.53914   0.78404   0.00000  Uiso   1.00
H908   H     0.40867   0.39984   0.61123   0.00000  Uiso   1.00
N909   N     0.65011   0.48598   0.73783   0.00000  Uiso   1.00
N910   N     0.34989   0.51402   0.76217   0.00000  Uiso   1.00
N911   N     0.44832   0.41452   0.62062   0.00000  Uiso   1.00
N912   N     0.55168   0.58548   0.87938   0.00000  Uiso   1.00
N913   N     0.54818   0.58891   0.61645   0.00000  Uiso   1.00
N914   N     0.45181   0.41109   0.88355   0.00000  Uiso   1.00
O915   O     0.46308   0.57952   0.75299   0.00000  Uiso   1.00
O916   O     0.53692   0.42048   0.74702   0.00000  Uiso   1.00
O917   O     0.55946   0.57054   0.74519   0.00000  Uiso   1.00
O918   O     0.44054   0.42946   0.75482   0.00000  Uiso   1.00
O919   O     0.45181   0.50450   0.81998   0.00000  Uiso   1.00
O920   O     0.54819   0.49550   0.68002   0.00000  Uiso   1.00
O921   O     0.54819   0.49552   0.81218   0.00000  Uiso   1.00
O922   O     0.45181   0.50448   0.68783   0.00000  Uiso   1.00
Zn923  Zn    0.43565   0.50600   0.75521   0.00000  Uiso   1.00
Zn924  Zn    0.56435   0.49400   0.74479   0.00000  Uiso   1.00
C925   C     0.84862   0.59825   0.74878   0.00000  Uiso   1.00
C926   C     0.85925   0.54295   0.90548   0.00000  Uiso   1.00
C927   C     0.83182   0.50105   0.61621   0.00000  Uiso   1.00
C928   C     0.83485   0.49894   0.88379   0.00000  Uiso   1.00
C929   C     0.85717   0.54460   0.59294   0.00000  Uiso   1.00
C930   C     0.80949   0.45540   0.90706   0.00000  Uiso   1.00
C931   C     0.85635   0.54473   0.54629   0.00000  Uiso   1.00
C932   C     0.81032   0.45527   0.95371   0.00000  Uiso   1.00
C933   C     0.83298   0.50017   0.52351   0.00000  Uiso   1.00
C934   C     0.83370   0.49983   0.97649   0.00000  Uiso   1.00
C935   C     0.80879   0.45603   0.54761   0.00000  Uiso   1.00
C936   C     0.81805   0.40175   0.75122   0.00000  Uiso   1.00
C937   C     0.85788   0.54397   0.95239   0.00000  Uiso   1.00
C938   C     0.87791   0.58880   0.52205   0.00000  Uiso   1.00
C939   C     0.78876   0.41120   0.97795   0.00000  Uiso   1.00
C940   C     0.82029   0.37463   0.62926   0.00000  Uiso   1.00
C941   C     0.84637   0.62537   0.87074   0.00000  Uiso   1.00
C942   C     0.94360   0.59093   0.61789   0.00000  Uiso   1.00
C943   C     0.72306   0.40908   0.88211   0.00000  Uiso   1.00
C944   C     0.87904   0.58832   0.97575   0.00000  Uiso   1.00
C945   C     0.78764   0.41167   0.52425   0.00000  Uiso   1.00
C946   C     0.85665   0.65276   0.74784   0.00000  Uiso   1.00
C947   C     0.81002   0.34724   0.75216   0.00000  Uiso   1.00
C948   C     0.83386   0.49960   0.83626   0.00000  Uiso   1.00
C949   C     0.83281   0.50040   0.66374   0.00000  Uiso   1.00
C950   C     0.80742   0.45705   0.59451   0.00000  Uiso   1.00
H951   H     0.89410   0.62412   0.53864   0.00000  Uiso   1.00
H952   H     0.83573   0.35528   0.59737   0.00000  Uiso   1.00
H953   H     0.79718   0.34476   0.65146   0.00000  Uiso   1.00
H954   H     0.85795   0.39186   0.64637   0.00000  Uiso   1.00
H955   H     0.92466   0.60016   0.88877   0.00000  Uiso   1.00
H956   H     0.83094   0.64471   0.90264   0.00000  Uiso   1.00
H957   H     0.80871   0.60814   0.85363   0.00000  Uiso   1.00
H958   H     0.86948   0.65524   0.84855   0.00000  Uiso   1.00
H959   H     0.86054   0.59741   0.64712   0.00000  Uiso   1.00
H960   H     0.95653   0.55855   0.63816   0.00000  Uiso   1.00
H961   H     0.95863   0.62859   0.63348   0.00000  Uiso   1.00
H962   H     0.77257   0.37588   0.96136   0.00000  Uiso   1.00
H963   H     0.96512   0.58817   0.58353   0.00000  Uiso   1.00
H964   H     0.80611   0.40260   0.85288   0.00000  Uiso   1.00
H965   H     0.71013   0.44150   0.86188   0.00000  Uiso   1.00
H966   H     0.70155   0.41179   0.91648   0.00000  Uiso   1.00
H967   H     0.70803   0.37145   0.86648   0.00000  Uiso   1.00
H968   H     0.89624   0.62335   0.95877   0.00000  Uiso   1.00
H969   H     0.77044   0.37665   0.54123   0.00000  Uiso   1.00
H970   H     0.90066   0.33648   0.74361   0.00000  Uiso   1.00
H971   H     0.76601   0.66352   0.75639   0.00000  Uiso   1.00
H972   H     0.67128   0.46086   0.71596   0.00000  Uiso   1.00
H973   H     0.99539   0.53914   0.78404   0.00000  Uiso   1.00
H974   H     0.74201   0.39984   0.61123   0.00000  Uiso   1.00
N975   N     0.98344   0.48598   0.73783   0.00000  Uiso   1.00
N976   N     0.68322   0.51402   0.76217   0.00000  Uiso   1.00
N977   N     0.78166   0.41452   0.62062   0.00000  Uiso   1.00
N978   N     0.88501   0.58548   0.87938   0.00000  Uiso   1.00
N979   N     0.88152   0.58891   0.61645   0.00000  Uiso   1.00
N980   N     0.78514   0.41109   0.88355   0.00000  Uiso   1.00
O981   O     0.79642   0.57952   0.75299   0.00000  Uiso   1.00
O982   O     0.87025   0.42048   0.74702   0.00000  Uiso   1.00
O983   O     0.89280   0.57054   0.74519   0.00000  Uiso   1.00
O984   O     0.77387   0.42946   0.75482   0.00000  Uiso   1.00
O985   O     0.78514   0.50450   0.81998   0.00000  Uiso   1.00
O986   O     0.88153   0.49550   0.68002   0.00000  Uiso   1.00
O987   O     0.88152   0.49552   0.81218   0.00000  Uiso   1.00
O988   O     0.78515   0.50448   0.68783   0.00000  Uiso   1.00
Zn989  Zn    0.76898   0.50600   0.75521   0.00000  Uiso   1.00
Zn990  Zn    0.89769   0.49400   0.74479   0.00000  Uiso   1.00
C991   C     0.18195   0.93158   0.74878   0.00000  Uiso   1.00
C992   C     0.19258   0.87628   0.90548   0.00000  Uiso   1.00
C993   C     0.16515   0.83439   0.61621   0.00000  Uiso   1.00
C994   C     0.16818   0.83228   0.88379   0.00000  Uiso   1.00
C995   C     0.19051   0.87793   0.59294   0.00000  Uiso   1.00
C996   C     0.14283   0.78873   0.90706   0.00000  Uiso   1.00
C997   C     0.18968   0.87806   0.54629   0.00000  Uiso   1.00
C998   C     0.14366   0.78860   0.95371   0.00000  Uiso   1.00
C999   C     0.16631   0.83350   0.52351   0.00000  Uiso   1.00
C1000  C     0.16703   0.83316   0.97649   0.00000  Uiso   1.00
C1001  C     0.14213   0.78937   0.54761   0.00000  Uiso   1.00
C1002  C     0.15138   0.73508   0.75122   0.00000  Uiso   1.00
C1003  C     0.19121   0.87730   0.95239   0.00000  Uiso   1.00
C1004  C     0.21125   0.92213   0.52205   0.00000  Uiso   1.00
C1005  C     0.12210   0.74453   0.97795   0.00000  Uiso   1.00
C1006  C     0.15363   0.70797   0.62926   0.00000  Uiso   1.00
C1007  C     0.17970   0.95870   0.87074   0.00000  Uiso   1.00
C1008  C     0.27693   0.92426   0.61789   0.00000  Uiso   1.00
C1009  C     0.05639   0.74241   0.88211   0.00000  Uiso   1.00
C1010  C     0.21237   0.92166   0.97575   0.00000  Uiso   1.00
C1011  C     0.12097   0.74501   0.52425   0.00000  Uiso   1.00
C1012  C     0.18998   0.98610   0.74784   0.00000  Uiso   1.00
C1013  C     0.14335   0.68057   0.75216   0.00000  Uiso   1.00
C1014  C     0.16719   0.83294   0.83626   0.00000  Uiso   1.00
C1015  C     0.16614   0.83373   0.66374   0.00000  Uiso   1.00
C1016  C     0.14075   0.79038   0.59451   0.00000  Uiso   1.00
H1017  H     0.22744   0.95745   0.53864   0.00000  Uiso   1.00
H1018  H     0.16907   0.68862   0.59737   0.00000  Uiso   1.00
H1019  H     0.13052   0.67809   0.65146   0.00000  Uiso   1.00
H1020  H     0.19129   0.72520   0.64637   0.00000  Uiso   1.00
H1021  H     0.25799   0.93349   0.88877   0.00000  Uiso   1.00
H1022  H     0.16427   0.97805   0.90264   0.00000  Uiso   1.00
H1023  H     0.14204   0.94147   0.85363   0.00000  Uiso   1.00
H1024  H     0.20282   0.98858   0.84855   0.00000  Uiso   1.00
H1025  H     0.19388   0.93074   0.64712   0.00000  Uiso   1.00
H1026  H     0.28987   0.89188   0.63816   0.00000  Uiso   1.00
H1027  H     0.29196   0.96192   0.63348   0.00000  Uiso   1.00
H1028  H     0.10591   0.70921   0.96136   0.00000  Uiso   1.00
H1029  H     0.29845   0.92151   0.58353   0.00000  Uiso   1.00
H1030  H     0.13945   0.73593   0.85288   0.00000  Uiso   1.00
H1031  H     0.04346   0.77483   0.86188   0.00000  Uiso   1.00
H1032  H     0.03488   0.74512   0.91648   0.00000  Uiso   1.00
H1033  H     0.04136   0.70478   0.86648   0.00000  Uiso   1.00
H1034  H     0.22957   0.95668   0.95877   0.00000  Uiso   1.00
H1035  H     0.10377   0.70998   0.54123   0.00000  Uiso   1.00
H1036  H     0.23399   0.66982   0.74361   0.00000  Uiso   1.00
H1037  H     0.09934   0.99685   0.75639   0.00000  Uiso   1.00
H1038  H     0.00461   0.79419   0.71596   0.00000  Uiso   1.00
H1039  H     0.32872   0.87247   0.78404   0.00000  Uiso   1.00
H1040  H     0.07534   0.73317   0.61123   0.00000  Uiso   1.00
N1041  N     0.31678   0.81932   0.73783   0.00000  Uiso   1.00
N1042  N     0.01656   0.84735   0.76217   0.00000  Uiso   1.00
N1043  N     0.11499   0.74785   0.62062   0.00000  Uiso   1.00
N1044  N     0.21834   0.91882   0.87938   0.00000  Uiso   1.00
N1045  N     0.21485   0.92224   0.61645   0.00000  Uiso   1.00
N1046  N     0.11848   0.74442   0.88355   0.00000  Uiso   1.00
O1047  O     0.12975   0.91286   0.75299   0.00000  Uiso   1.00
O1048  O     0.20358   0.75381   0.74702   0.00000  Uiso   1.00
O1049  O     0.22613   0.90387   0.74519   0.00000  Uiso   1.00
O1050  O     0.10720   0.76279   0.75482   0.00000  Uiso   1.00
O1051  O     0.11847   0.83784   0.81998   0.00000  Uiso   1.00
O1052  O     0.21486   0.82883   0.68002   0.00000  Uiso   1.00
O1053  O     0.21485   0.82885   0.81218   0.00000  Uiso   1.00
O1054  O     0.11848   0.83781   0.68783   0.00000  Uiso   1.00
Zn1055 Zn    0.10231   0.83933   0.75521   0.00000  Uiso   1.00
Zn1056 Zn    0.23102   0.82734   0.74479   0.00000  Uiso   1.00
C1057  C     0.51528   0.93158   0.74878   0.00000  Uiso   1.00
C1058  C     0.52592   0.87628   0.90548   0.00000  Uiso   1.00
C1059  C     0.49849   0.83439   0.61621   0.00000  Uiso   1.00
C1060  C     0.50151   0.83228   0.88379   0.00000  Uiso   1.00
C1061  C     0.52384   0.87793   0.59294   0.00000  Uiso   1.00
C1062  C     0.47616   0.78873   0.90706   0.00000  Uiso   1.00
C1063  C     0.52302   0.87806   0.54629   0.00000  Uiso   1.00
C1064  C     0.47699   0.78860   0.95371   0.00000  Uiso   1.00
C1065  C     0.49964   0.83350   0.52351   0.00000  Uiso   1.00
C1066  C     0.50036   0.83316   0.97649   0.00000  Uiso   1.00
C1067  C     0.47546   0.78937   0.54761   0.00000  Uiso   1.00
C1068  C     0.48472   0.73508   0.75122   0.00000  Uiso   1.00
C1069  C     0.52454   0.87730   0.95239   0.00000  Uiso   1.00
C1070  C     0.54458   0.92213   0.52205   0.00000  Uiso   1.00
C1071  C     0.45543   0.74453   0.97795   0.00000  Uiso   1.00
C1072  C     0.48696   0.70797   0.62926   0.00000  Uiso   1.00
C1073  C     0.51304   0.95870   0.87074   0.00000  Uiso   1.00
C1074  C     0.61027   0.92426   0.61789   0.00000  Uiso   1.00
C1075  C     0.38973   0.74241   0.88211   0.00000  Uiso   1.00
C1076  C     0.54570   0.92166   0.97575   0.00000  Uiso   1.00
C1077  C     0.45431   0.74501   0.52425   0.00000  Uiso   1.00
C1078  C     0.52332   0.98610   0.74784   0.00000  Uiso   1.00
C1079  C     0.47668   0.68057   0.75216   0.00000  Uiso   1.00
C1080  C     0.50052   0.83294   0.83626   0.00000  Uiso   1.00
C1081  C     0.49948   0.83373   0.66374   0.00000  Uiso   1.00
C1082  C     0.47409   0.79038   0.59451   0.00000  Uiso   1.00
H1083  H     0.56077   0.95745   0.53864   0.00000  Uiso   1.00
H1084  H     0.50240   0.68862   0.59737   0.00000  Uiso   1.00
H1085  H     0.46385   0.67809   0.65146   0.00000  Uiso   1.00
H1086  H     0.52462   0.72520   0.64637   0.00000  Uiso   1.00
H1087  H     0.59133   0.93349   0.88877   0.00000  Uiso   1.00
H1088  H     0.49760   0.97805   0.90264   0.00000  Uiso   1.00
H1089  H     0.47538   0.94147   0.85363   0.00000  Uiso   1.00
H1090  H     0.53615   0.98858   0.84855   0.00000  Uiso   1.00
H1091  H     0.52721   0.93074   0.64712   0.00000  Uiso   1.00
H1092  H     0.62320   0.89188   0.63816   0.00000  Uiso   1.00
H1093  H     0.62529   0.96192   0.63348   0.00000  Uiso   1.00
H1094  H     0.43924   0.70921   0.96136   0.00000  Uiso   1.00
H1095  H     0.63179   0.92151   0.58353   0.00000  Uiso   1.00
H1096  H     0.47278   0.73593   0.85288   0.00000  Uiso   1.00
H1097  H     0.37679   0.77483   0.86188   0.00000  Uiso   1.00
H1098  H     0.36821   0.74512   0.91648   0.00000  Uiso   1.00
H1099  H     0.37470   0.70478   0.86648   0.00000  Uiso   1.00
H1100  H     0.56290   0.95668   0.95877   0.00000  Uiso   1.00
H1101  H     0.43711   0.70998   0.54123   0.00000  Uiso   1.00
H1102  H     0.56733   0.66982   0.74361   0.00000  Uiso   1.00
H1103  H     0.43267   0.99685   0.75639   0.00000  Uiso   1.00
H1104  H     0.33794   0.79419   0.71596   0.00000  Uiso   1.00
H1105  H     0.66206   0.87247   0.78404   0.00000  Uiso   1.00
H1106  H     0.40867   0.73317   0.61123   0.00000  Uiso   1.00
N1107  N     0.65011   0.81932   0.73783   0.00000  Uiso   1.00
N1108  N     0.34989   0.84735   0.76217   0.00000  Uiso   1.00
N1109  N     0.44832   0.74785   0.62062   0.00000  Uiso   1.00
N1110  N     0.55168   0.91882   0.87938   0.00000  Uiso   1.00
N1111  N     0.54818   0.92224   0.61645   0.00000  Uiso   1.00
N1112  N     0.45181   0.74442   0.88355   0.00000  Uiso   1.00
O1113  O     0.46308   0.91286   0.75299   0.00000  Uiso   1.00
O1114  O     0.53692   0.75381   0.74702   0.00000  Uiso   1.00
O1115  O     0.55946   0.90387   0.74519   0.00000  Uiso   1.00
O1116  O     0.44054   0.76279   0.75482   0.00000  Uiso   1.00
O1117  O     0.45181   0.83784   0.81998   0.00000  Uiso   1.00
O1118  O     0.54819   0.82883   0.68002   0.00000  Uiso   1.00
O1119  O     0.54819   0.82885   0.81218   0.00000  Uiso   1.00
O1120  O     0.45181   0.83781   0.68783   0.00000  Uiso   1.00
Zn1121 Zn    0.43565   0.83933   0.75521   0.00000  Uiso   1.00
Zn1122 Zn    0.56435   0.82734   0.74479   0.00000  Uiso   1.00
C1123  C     0.84862   0.93158   0.74878   0.00000  Uiso   1.00
C1124  C     0.85925   0.87628   0.90548   0.00000  Uiso   1.00
C1125  C     0.83182   0.83439   0.61621   0.00000  Uiso   1.00
C1126  C     0.83485   0.83228   0.88379   0.00000  Uiso   1.00
C1127  C     0.85717   0.87793   0.59294   0.00000  Uiso   1.00
C1128  C     0.80949   0.78873   0.90706   0.00000  Uiso   1.00
C1129  C     0.85635   0.87806   0.54629   0.00000  Uiso   1.00
C1130  C     0.81032   0.78860   0.95371   0.00000  Uiso   1.00
C1131  C     0.83298   0.83350   0.52351   0.00000  Uiso   1.00
C1132  C     0.83370   0.83316   0.97649   0.00000  Uiso   1.00
C1133  C     0.80879   0.78937   0.54761   0.00000  Uiso   1.00
C1134  C     0.81805   0.73508   0.75122   0.00000  Uiso   1.00
C1135  C     0.85788   0.87730   0.95239   0.00000  Uiso   1.00
C1136  C     0.87791   0.92213   0.52205   0.00000  Uiso   1.00
C1137  C     0.78876   0.74453   0.97795   0.00000  Uiso   1.00
C1138  C     0.82029   0.70797   0.62926   0.00000  Uiso   1.00
C1139  C     0.84637   0.95870   0.87074   0.00000  Uiso   1.00
C1140  C     0.94360   0.92426   0.61789   0.00000  Uiso   1.00
C1141  C     0.72306   0.74241   0.88211   0.00000  Uiso   1.00
C1142  C     0.87904   0.92166   0.97575   0.00000  Uiso   1.00
C1143  C     0.78764   0.74501   0.52425   0.00000  Uiso   1.00
C1144  C     0.85665   0.98610   0.74784   0.00000  Uiso   1.00
C1145  C     0.81002   0.68057   0.75216   0.00000  Uiso   1.00
C1146  C     0.83386   0.83294   0.83626   0.00000  Uiso   1.00
C1147  C     0.83281   0.83373   0.66374   0.00000  Uiso   1.00
C1148  C     0.80742   0.79038   0.59451   0.00000  Uiso   1.00
H1149  H     0.89410   0.95745   0.53864   0.00000  Uiso   1.00
H1150  H     0.83573   0.68862   0.59737   0.00000  Uiso   1.00
H1151  H     0.79718   0.67809   0.65146   0.00000  Uiso   1.00
H1152  H     0.85795   0.72520   0.64637   0.00000  Uiso   1.00
H1153  H     0.92466   0.93349   0.88877   0.00000  Uiso   1.00
H1154  H     0.83094   0.97805   0.90264   0.00000  Uiso   1.00
H1155  H     0.80871   0.94147   0.85363   0.00000  Uiso   1.00
H1156  H     0.86948   0.98858   0.84855   0.00000  Uiso   1.00
H1157  H     0.86054   0.93074   0.64712   0.00000  Uiso   1.00
H1158  H     0.95653   0.89188   0.63816   0.00000  Uiso   1.00
H1159  H     0.95863   0.96192   0.63348   0.00000  Uiso   1.00
H1160  H     0.77257   0.70921   0.96136   0.00000  Uiso   1.00
H1161  H     0.96512   0.92151   0.58353   0.00000  Uiso   1.00
H1162  H     0.80611   0.73593   0.85288   0.00000  Uiso   1.00
H1163  H     0.71013   0.77483   0.86188   0.00000  Uiso   1.00
H1164  H     0.70155   0.74512   0.91648   0.00000  Uiso   1.00
H1165  H     0.70803   0.70478   0.86648   0.00000  Uiso   1.00
H1166  H     0.89624   0.95668   0.95877   0.00000  Uiso   1.00
H1167  H     0.77044   0.70998   0.54123   0.00000  Uiso   1.00
H1168  H     0.90066   0.66982   0.74361   0.00000  Uiso   1.00
H1169  H     0.76601   0.99685   0.75639   0.00000  Uiso   1.00
H1170  H     0.67128   0.79419   0.71596   0.00000  Uiso   1.00
H1171  H     0.99539   0.87247   0.78404   0.00000  Uiso   1.00
H1172  H     0.74201   0.73317   0.61123   0.00000  Uiso   1.00
N1173  N     0.98344   0.81932   0.73783   0.00000  Uiso   1.00
N1174  N     0.68322   0.84735   0.76217   0.00000  Uiso   1.00
N1175  N     0.78166   0.74785   0.62062   0.00000  Uiso   1.00
N1176  N     0.88501   0.91882   0.87938   0.00000  Uiso   1.00
N1177  N     0.88152   0.92224   0.61645   0.00000  Uiso   1.00
N1178  N     0.78514   0.74442   0.88355   0.00000  Uiso   1.00
O1179  O     0.79642   0.91286   0.75299   0.00000  Uiso   1.00
O1180  O     0.87025   0.75381   0.74702   0.00000  Uiso   1.00
O1181  O     0.89280   0.90387   0.74519   0.00000  Uiso   1.00
O1182  O     0.77387   0.76279   0.75482   0.00000  Uiso   1.00
O1183  O     0.78514   0.83784   0.81998   0.00000  Uiso   1.00
O1184  O     0.88153   0.82883   0.68002   0.00000  Uiso   1.00
O1185  O     0.88152   0.82885   0.81218   0.00000  Uiso   1.00
O1186  O     0.78515   0.83781   0.68783   0.00000  Uiso   1.00
Zn1187 Zn    0.76898   0.83933   0.75521   0.00000  Uiso   1.00
Zn1188 Zn    0.89769   0.82734   0.74479   0.00000  Uiso   1.00
loop_
_geom_bond_atom_site_label_1
_geom_bond_atom_site_label_2
_geom_bond_distance
_geom_bond_site_symmetry_2
_ccdc_geom_bond_type
C1     O59     1.286   .     A
C1     C22     1.400   .     S
C1     O57     1.276   .     A
C2     C4      1.399   .     A
C2     C13     1.398   .     A
C2     N54     1.429   .     S
C3     C5      1.403   .     A
C3     C25     1.422   .     S
C3     C26     1.399   .     A
C4     C24     1.422   .     S
C4     C6      1.403   .     A
C5     C7      1.395   .     A
C5     N55     1.431   .     S
C6     N56     1.431   .     S
C6     C8      1.395   .     A
C7     C14     1.401   .     A
C7     C9      1.416   .     A
C8     C10     1.416   .     A
C8     C15     1.401   .     A
C9     C11     1.418   .     A
C9     C604    1.403   1_554 S
C10    C13     1.418   .     A
C10    C603    1.403   .     S
C11    C21     1.403   .     A
C11    C26     1.398   .     A
C12    O58     1.276   .     A
C12    C23     1.400   .     S
C12    O60     1.286   .     A
C13    C20     1.403   .     A
C14    H27     1.083   .     S
C14    C614    1.381   1_554 S
C15    H38     1.083   .     S
C15    C615    1.381   .     S
C16    H28     1.111   .     S
C16    H30     1.110   .     S
C16    H29     1.110   .     S
C16    N53     1.447   .     S
C17    H33     1.111   .     S
C17    H34     1.110   .     S
C17    H32     1.111   .     S
C17    N54     1.447   .     S
C18    H39     1.110   .     S
C18    N55     1.448   .     S
C18    H37     1.110   .     S
C18    H36     1.110   .     S
C19    N56     1.448   .     S
C19    H42     1.110   .     S
C19    H41     1.110   .     S
C19    H43     1.110   .     S
C20    H44     1.081   .     S
C20    C608    1.381   .     S
C21    H45     1.081   .     S
C21    C609    1.381   1_554 S
C22    C221    1.335   .     S
C22    H244    1.088   .     S
C23    C418    1.335   1_545 S
C23    H443    1.088   1_545 S
C24    O61     1.283   .     A
C24    O63     1.286   .     A
C25    O64     1.286   .     A
C25    O62     1.283   .     A
C26    N53     1.429   .     S
H31    N54     1.031   .     S
H35    N55     1.031   .     S
H40    N56     1.031   .     S
H46    C418    1.088   1_545 S
H47    C221    1.088   .     S
H48    N183    1.029   1_455 S
H49    N118    1.029   .     S
H50    N53     1.031   .     S
N51    Zn66    2.017   .     S
N51    H114    1.029   .     S
N51    N118    1.276   .     S
N52    Zn65    2.017   .     S
N52    N183    1.276   1_455 S
N52    H181    1.029   1_455 S
O57    Zn65    1.953   .     S
O58    Zn66    1.953   .     S
O59    Zn66    1.975   .     S
O60    Zn65    1.975   .     S
O61    Zn65    2.000   .     S
O62    Zn66    2.000   .     S
O63    Zn66    2.019   .     S
O64    Zn65    2.019   .     S
C67    O125    1.286   .     A
C67    C88     1.400   .     S
C67    O123    1.276   .     A
C68    C70     1.399   .     A
C68    C79     1.398   .     A
C68    N120    1.429   .     S
C69    C71     1.403   .     A
C69    C91     1.422   .     S
C69    C92     1.399   .     A
C70    C90     1.422   .     S
C70    C72     1.403   .     A
C71    C73     1.395   .     A
C71    N121    1.431   .     S
C72    N122    1.431   .     S
C72    C74     1.395   .     A
C73    C80     1.401   .     A
C73    C75     1.416   .     A
C74    C76     1.416   .     A
C74    C81     1.401   .     A
C75    C77     1.418   .     A
C75    C670    1.403   1_554 S
C76    C79     1.418   .     A
C76    C669    1.403   .     S
C77    C87     1.403   .     A
C77    C92     1.398   .     A
C78    O124    1.276   .     A
C78    C89     1.400   .     S
C78    O126    1.286   .     A
C79    C86     1.403   .     A
C80    H93     1.083   .     S
C80    C680    1.381   1_554 S
C81    H104    1.083   .     S
C81    C681    1.381   .     S
C82    H94     1.111   .     S
C82    H96     1.110   .     S
C82    H95     1.110   .     S
C82    N119    1.447   .     S
C83    H99     1.111   .     S
C83    H100    1.110   .     S
C83    H98     1.111   .     S
C83    N120    1.447   .     S
C84    H105    1.110   .     S
C84    N121    1.448   .     S
C84    H103    1.110   .     S
C84    H102    1.110   .     S
C85    N122    1.448   .     S
C85    H108    1.110   .     S
C85    H107    1.110   .     S
C85    H109    1.110   .     S
C86    H110    1.081   .     S
C86    C674    1.381   .     S
C87    H111    1.081   .     S
C87    C675    1.381   1_554 S
C88    C287    1.335   .     S
C88    H310    1.088   .     S
C89    C484    1.335   1_545 S
C89    H509    1.088   1_545 S
C90    O127    1.283   .     A
C90    O129    1.286   .     A
C91    O130    1.286   .     A
C91    O128    1.283   .     A
C92    N119    1.429   .     S
H97    N120    1.031   .     S
H101   N121    1.031   .     S
H106   N122    1.031   .     S
H112   C484    1.088   1_545 S
H113   C287    1.088   .     S
H115   N184    1.029   .     S
H116   N119    1.031   .     S
N117   Zn132   2.017   .     S
N117   H180    1.029   .     S
N117   N184    1.276   .     S
N118   Zn131   2.017   .     S
O123   Zn131   1.953   .     S
O124   Zn132   1.953   .     S
O125   Zn132   1.975   .     S
O126   Zn131   1.975   .     S
O127   Zn131   2.000   .     S
O128   Zn132   2.000   .     S
O129   Zn132   2.019   .     S
O130   Zn131   2.019   .     S
C133   O191    1.286   .     A
C133   C154    1.400   .     S
C133   O189    1.276   .     A
C134   C136    1.399   .     A
C134   C145    1.398   .     A
C134   N186    1.429   .     S
C135   C137    1.403   .     A
C135   C157    1.422   .     S
C135   C158    1.399   .     A
C136   C156    1.422   .     S
C136   C138    1.403   .     A
C137   C139    1.395   .     A
C137   N187    1.431   .     S
C138   N188    1.431   .     S
C138   C140    1.395   .     A
C139   C146    1.401   .     A
C139   C141    1.416   .     A
C140   C142    1.416   .     A
C140   C147    1.401   .     A
C141   C143    1.418   .     A
C141   C736    1.403   1_554 S
C142   C145    1.418   .     A
C142   C735    1.403   .     S
C143   C153    1.403   .     A
C143   C158    1.398   .     A
C144   O190    1.276   .     A
C144   C155    1.400   .     S
C144   O192    1.286   .     A
C145   C152    1.403   .     A
C146   H159    1.083   .     S
C146   C746    1.381   1_554 S
C147   H170    1.083   .     S
C147   C747    1.381   .     S
C148   H160    1.111   .     S
C148   H162    1.110   .     S
C148   H161    1.110   .     S
C148   N185    1.447   .     S
C149   H165    1.111   .     S
C149   H166    1.110   .     S
C149   H164    1.111   .     S
C149   N186    1.447   .     S
C150   H171    1.110   .     S
C150   N187    1.448   .     S
C150   H169    1.110   .     S
C150   H168    1.110   .     S
C151   N188    1.448   .     S
C151   H174    1.110   .     S
C151   H173    1.110   .     S
C151   H175    1.110   .     S
C152   H176    1.081   .     S
C152   C740    1.381   .     S
C153   H177    1.081   .     S
C153   C741    1.381   1_554 S
C154   C353    1.335   .     S
C154   H376    1.088   .     S
C155   C550    1.335   1_545 S
C155   H575    1.088   1_545 S
C156   O193    1.283   .     A
C156   O195    1.286   .     A
C157   O196    1.286   .     A
C157   O194    1.283   .     A
C158   N185    1.429   .     S
H163   N186    1.031   .     S
H167   N187    1.031   .     S
H172   N188    1.031   .     S
H178   C550    1.088   1_545 S
H179   C353    1.088   .     S
H181   N52     1.029   1_655 S
H182   N185    1.031   .     S
N183   Zn198   2.017   .     S
N183   H48     1.029   1_655 S
N183   N52     1.276   1_655 S
N184   Zn197   2.017   .     S
O189   Zn197   1.953   .     S
O190   Zn198   1.953   .     S
O191   Zn198   1.975   .     S
O192   Zn197   1.975   .     S
O193   Zn197   2.000   .     S
O194   Zn198   2.000   .     S
O195   Zn198   2.019   .     S
O196   Zn197   2.019   .     S
C199   O257    1.286   .     A
C199   C220    1.400   .     S
C199   O255    1.276   .     A
C200   C202    1.399   .     A
C200   C211    1.398   .     A
C200   N252    1.429   .     S
C201   C203    1.403   .     A
C201   C223    1.422   .     S
C201   C224    1.399   .     A
C202   C222    1.422   .     S
C202   C204    1.403   .     A
C203   C205    1.395   .     A
C203   N253    1.431   .     S
C204   N254    1.431   .     S
C204   C206    1.395   .     A
C205   C212    1.401   .     A
C205   C207    1.416   .     A
C206   C208    1.416   .     A
C206   C213    1.401   .     A
C207   C209    1.418   .     A
C207   C802    1.403   1_554 S
C208   C211    1.418   .     A
C208   C801    1.403   .     S
C209   C219    1.403   .     A
C209   C224    1.398   .     A
C210   O256    1.276   .     A
C210   C221    1.400   .     S
C210   O258    1.286   .     A
C211   C218    1.403   .     A
C212   H225    1.083   .     S
C212   C812    1.381   1_554 S
C213   H236    1.083   .     S
C213   C813    1.381   .     S
C214   H226    1.111   .     S
C214   H228    1.110   .     S
C214   H227    1.110   .     S
C214   N251    1.447   .     S
C215   H231    1.111   .     S
C215   H232    1.110   .     S
C215   H230    1.111   .     S
C215   N252    1.447   .     S
C216   H237    1.110   .     S
C216   N253    1.448   .     S
C216   H235    1.110   .     S
C216   H234    1.110   .     S
C217   N254    1.448   .     S
C217   H240    1.110   .     S
C217   H239    1.110   .     S
C217   H241    1.110   .     S
C218   H242    1.081   .     S
C218   C806    1.381   .     S
C219   H243    1.081   .     S
C219   C807    1.381   1_554 S
C220   C419    1.335   .     S
C220   H442    1.088   .     S
C222   O259    1.283   .     A
C222   O261    1.286   .     A
C223   O262    1.286   .     A
C223   O260    1.283   .     A
C224   N251    1.429   .     S
H229   N252    1.031   .     S
H233   N253    1.031   .     S
H238   N254    1.031   .     S
H245   C419    1.088   .     S
H246   N381    1.029   1_455 S
H247   N316    1.029   .     S
H248   N251    1.031   .     S
N249   Zn264   2.017   .     S
N249   H312    1.029   .     S
N249   N316    1.276   .     S
N250   Zn263   2.017   .     S
N250   N381    1.276   1_455 S
N250   H379    1.029   1_455 S
O255   Zn263   1.953   .     S
O256   Zn264   1.953   .     S
O257   Zn264   1.975   .     S
O258   Zn263   1.975   .     S
O259   Zn263   2.000   .     S
O260   Zn264   2.000   .     S
O261   Zn264   2.019   .     S
O262   Zn263   2.019   .     S
C265   O323    1.286   .     A
C265   C286    1.400   .     S
C265   O321    1.276   .     A
C266   C268    1.399   .     A
C266   C277    1.398   .     A
C266   N318    1.429   .     S
C267   C269    1.403   .     A
C267   C289    1.422   .     S
C267   C290    1.399   .     A
C268   C288    1.422   .     S
C268   C270    1.403   .     A
C269   C271    1.395   .     A
C269   N319    1.431   .     S
C270   N320    1.431   .     S
C270   C272    1.395   .     A
C271   C278    1.401   .     A
C271   C273    1.416   .     A
C272   C274    1.416   .     A
C272   C279    1.401   .     A
C273   C275    1.418   .     A
C273   C868    1.403   1_554 S
C274   C277    1.418   .     A
C274   C867    1.403   .     S
C275   C285    1.403   .     A
C275   C290    1.398   .     A
C276   O322    1.276   .     A
C276   C287    1.400   .     S
C276   O324    1.286   .     A
C277   C284    1.403   .     A
C278   H291    1.083   .     S
C278   C878    1.381   1_554 S
C279   H302    1.083   .     S
C279   C879    1.381   .     S
C280   H292    1.111   .     S
C280   H294    1.110   .     S
C280   H293    1.110   .     S
C280   N317    1.447   .     S
C281   H297    1.111   .     S
C281   H298    1.110   .     S
C281   H296    1.111   .     S
C281   N318    1.447   .     S
C282   H303    1.110   .     S
C282   N319    1.448   .     S
C282   H301    1.110   .     S
C282   H300    1.110   .     S
C283   N320    1.448   .     S
C283   H306    1.110   .     S
C283   H305    1.110   .     S
C283   H307    1.110   .     S
C284   H308    1.081   .     S
C284   C872    1.381   .     S
C285   H309    1.081   .     S
C285   C873    1.381   1_554 S
C286   C485    1.335   .     S
C286   H508    1.088   .     S
C288   O325    1.283   .     A
C288   O327    1.286   .     A
C289   O328    1.286   .     A
C289   O326    1.283   .     A
C290   N317    1.429   .     S
H295   N318    1.031   .     S
H299   N319    1.031   .     S
H304   N320    1.031   .     S
H311   C485    1.088   .     S
H313   N382    1.029   .     S
H314   N317    1.031   .     S
N315   Zn330   2.017   .     S
N315   H378    1.029   .     S
N315   N382    1.276   .     S
N316   Zn329   2.017   .     S
O321   Zn329   1.953   .     S
O322   Zn330   1.953   .     S
O323   Zn330   1.975   .     S
O324   Zn329   1.975   .     S
O325   Zn329   2.000   .     S
O326   Zn330   2.000   .     S
O327   Zn330   2.019   .     S
O328   Zn329   2.019   .     S
C331   O389    1.286   .     A
C331   C352    1.400   .     S
C331   O387    1.276   .     A
C332   C334    1.399   .     A
C332   C343    1.398   .     A
C332   N384    1.429   .     S
C333   C335    1.403   .     A
C333   C355    1.422   .     S
C333   C356    1.399   .     A
C334   C354    1.422   .     S
C334   C336    1.403   .     A
C335   C337    1.395   .     A
C335   N385    1.431   .     S
C336   N386    1.431   .     S
C336   C338    1.395   .     A
C337   C344    1.401   .     A
C337   C339    1.416   .     A
C338   C340    1.416   .     A
C338   C345    1.401   .     A
C339   C341    1.418   .     A
C339   C934    1.403   1_554 S
C340   C343    1.418   .     A
C340   C933    1.403   .     S
C341   C351    1.403   .     A
C341   C356    1.398   .     A
C342   O388    1.276   .     A
C342   C353    1.400   .     S
C342   O390    1.286   .     A
C343   C350    1.403   .     A
C344   H357    1.083   .     S
C344   C944    1.381   1_554 S
C345   H368    1.083   .     S
C345   C945    1.381   .     S
C346   H358    1.111   .     S
C346   H360    1.110   .     S
C346   H359    1.110   .     S
C346   N383    1.447   .     S
C347   H363    1.111   .     S
C347   H364    1.110   .     S
C347   H362    1.111   .     S
C347   N384    1.447   .     S
C348   H369    1.110   .     S
C348   N385    1.448   .     S
C348   H367    1.110   .     S
C348   H366    1.110   .     S
C349   N386    1.448   .     S
C349   H372    1.110   .     S
C349   H371    1.110   .     S
C349   H373    1.110   .     S
C350   H374    1.081   .     S
C350   C938    1.381   .     S
C351   H375    1.081   .     S
C351   C939    1.381   1_554 S
C352   C551    1.335   .     S
C352   H574    1.088   .     S
C354   O391    1.283   .     A
C354   O393    1.286   .     A
C355   O394    1.286   .     A
C355   O392    1.283   .     A
C356   N383    1.429   .     S
H361   N384    1.031   .     S
H365   N385    1.031   .     S
H370   N386    1.031   .     S
H377   C551    1.088   .     S
H379   N250    1.029   1_655 S
H380   N383    1.031   .     S
N381   Zn396   2.017   .     S
N381   H246    1.029   1_655 S
N381   N250    1.276   1_655 S
N382   Zn395   2.017   .     S
O387   Zn395   1.953   .     S
O388   Zn396   1.953   .     S
O389   Zn396   1.975   .     S
O390   Zn395   1.975   .     S
O391   Zn395   2.000   .     S
O392   Zn396   2.000   .     S
O393   Zn396   2.019   .     S
O394   Zn395   2.019   .     S
C397   O455    1.286   .     A
C397   C418    1.400   .     S
C397   O453    1.276   .     A
C398   C400    1.399   .     A
C398   C409    1.398   .     A
C398   N450    1.429   .     S
C399   C401    1.403   .     A
C399   C421    1.422   .     S
C399   C422    1.399   .     A
C400   C420    1.422   .     S
C400   C402    1.403   .     A
C401   C403    1.395   .     A
C401   N451    1.431   .     S
C402   N452    1.431   .     S
C402   C404    1.395   .     A
C403   C410    1.401   .     A
C403   C405    1.416   .     A
C404   C406    1.416   .     A
C404   C411    1.401   .     A
C405   C407    1.418   .     A
C405   C1000   1.403   1_554 S
C406   C409    1.418   .     A
C406   C999    1.403   .     S
C407   C417    1.403   .     A
C407   C422    1.398   .     A
C408   O454    1.276   .     A
C408   C419    1.400   .     S
C408   O456    1.286   .     A
C409   C416    1.403   .     A
C410   H423    1.083   .     S
C410   C1010   1.381   1_554 S
C411   H434    1.083   .     S
C411   C1011   1.381   .     S
C412   H424    1.111   .     S
C412   H426    1.110   .     S
C412   H425    1.110   .     S
C412   N449    1.447   .     S
C413   H429    1.111   .     S
C413   H430    1.110   .     S
C413   H428    1.111   .     S
C413   N450    1.447   .     S
C414   H435    1.110   .     S
C414   N451    1.448   .     S
C414   H433    1.110   .     S
C414   H432    1.110   .     S
C415   N452    1.448   .     S
C415   H438    1.110   .     S
C415   H437    1.110   .     S
C415   H439    1.110   .     S
C416   H440    1.081   .     S
C416   C1004   1.381   .     S
C417   H441    1.081   .     S
C417   C1005   1.381   1_554 S
C418   C23     1.335   1_565 S
C418   H46     1.088   1_565 S
C420   O457    1.283   .     A
C420   O459    1.286   .     A
C421   O460    1.286   .     A
C421   O458    1.283   .     A
C422   N449    1.429   .     S
H427   N450    1.031   .     S
H431   N451    1.031   .     S
H436   N452    1.031   .     S
H443   C23     1.088   1_565 S
H444   N579    1.029   1_455 S
H445   N514    1.029   .     S
H446   N449    1.031   .     S
N447   Zn462   2.017   .     S
N447   H510    1.029   .     S
N447   N514    1.276   .     S
N448   Zn461   2.017   .     S
N448   N579    1.276   1_455 S
N448   H577    1.029   1_455 S
O453   Zn461   1.953   .     S
O454   Zn462   1.953   .     S
O455   Zn462   1.975   .     S
O456   Zn461   1.975   .     S
O457   Zn461   2.000   .     S
O458   Zn462   2.000   .     S
O459   Zn462   2.019   .     S
O460   Zn461   2.019   .     S
C463   O521    1.286   .     A
C463   C484    1.400   .     S
C463   O519    1.276   .     A
C464   C466    1.399   .     A
C464   C475    1.398   .     A
C464   N516    1.429   .     S
C465   C467    1.403   .     A
C465   C487    1.422   .     S
C465   C488    1.399   .     A
C466   C486    1.422   .     S
C466   C468    1.403   .     A
C467   C469    1.395   .     A
C467   N517    1.431   .     S
C468   N518    1.431   .     S
C468   C470    1.395   .     A
C469   C476    1.401   .     A
C469   C471    1.416   .     A
C470   C472    1.416   .     A
C470   C477    1.401   .     A
C471   C473    1.418   .     A
C471   C1066   1.403   1_554 S
C472   C475    1.418   .     A
C472   C1065   1.403   .     S
C473   C483    1.403   .     A
C473   C488    1.398   .     A
C474   O520    1.276   .     A
C474   C485    1.400   .     S
C474   O522    1.286   .     A
C475   C482    1.403   .     A
C476   H489    1.083   .     S
C476   C1076   1.381   1_554 S
C477   H500    1.083   .     S
C477   C1077   1.381   .     S
C478   H490    1.111   .     S
C478   H492    1.110   .     S
C478   H491    1.110   .     S
C478   N515    1.447   .     S
C479   H495    1.111   .     S
C479   H496    1.110   .     S
C479   H494    1.111   .     S
C479   N516    1.447   .     S
C480   H501    1.110   .     S
C480   N517    1.448   .     S
C480   H499    1.110   .     S
C480   H498    1.110   .     S
C481   N518    1.448   .     S
C481   H504    1.110   .     S
C481   H503    1.110   .     S
C481   H505    1.110   .     S
C482   H506    1.081   .     S
C482   C1070   1.381   .     S
C483   H507    1.081   .     S
C483   C1071   1.381   1_554 S
C484   C89     1.335   1_565 S
C484   H112    1.088   1_565 S
C486   O523    1.283   .     A
C486   O525    1.286   .     A
C487   O526    1.286   .     A
C487   O524    1.283   .     A
C488   N515    1.429   .     S
H493   N516    1.031   .     S
H497   N517    1.031   .     S
H502   N518    1.031   .     S
H509   C89     1.088   1_565 S
H511   N580    1.029   .     S
H512   N515    1.031   .     S
N513   Zn528   2.017   .     S
N513   H576    1.029   .     S
N513   N580    1.276   .     S
N514   Zn527   2.017   .     S
O519   Zn527   1.953   .     S
O520   Zn528   1.953   .     S
O521   Zn528   1.975   .     S
O522   Zn527   1.975   .     S
O523   Zn527   2.000   .     S
O524   Zn528   2.000   .     S
O525   Zn528   2.019   .     S
O526   Zn527   2.019   .     S
C529   O587    1.286   .     A
C529   C550    1.400   .     S
C529   O585    1.276   .     A
C530   C532    1.399   .     A
C530   C541    1.398   .     A
C530   N582    1.429   .     S
C531   C533    1.403   .     A
C531   C553    1.422   .     S
C531   C554    1.399   .     A
C532   C552    1.422   .     S
C532   C534    1.403   .     A
C533   C535    1.395   .     A
C533   N583    1.431   .     S
C534   N584    1.431   .     S
C534   C536    1.395   .     A
C535   C542    1.401   .     A
C535   C537    1.416   .     A
C536   C538    1.416   .     A
C536   C543    1.401   .     A
C537   C539    1.418   .     A
C537   C1132   1.403   1_554 S
C538   C541    1.418   .     A
C538   C1131   1.403   .     S
C539   C549    1.403   .     A
C539   C554    1.398   .     A
C540   O586    1.276   .     A
C540   C551    1.400   .     S
C540   O588    1.286   .     A
C541   C548    1.403   .     A
C542   H555    1.083   .     S
C542   C1142   1.381   1_554 S
C543   H566    1.083   .     S
C543   C1143   1.381   .     S
C544   H556    1.111   .     S
C544   H558    1.110   .     S
C544   H557    1.110   .     S
C544   N581    1.447   .     S
C545   H561    1.111   .     S
C545   H562    1.110   .     S
C545   H560    1.111   .     S
C545   N582    1.447   .     S
C546   H567    1.110   .     S
C546   N583    1.448   .     S
C546   H565    1.110   .     S
C546   H564    1.110   .     S
C547   N584    1.448   .     S
C547   H570    1.110   .     S
C547   H569    1.110   .     S
C547   H571    1.110   .     S
C548   H572    1.081   .     S
C548   C1136   1.381   .     S
C549   H573    1.081   .     S
C549   C1137   1.381   1_554 S
C550   C155    1.335   1_565 S
C550   H178    1.088   1_565 S
C552   O589    1.283   .     A
C552   O591    1.286   .     A
C553   O592    1.286   .     A
C553   O590    1.283   .     A
C554   N581    1.429   .     S
H559   N582    1.031   .     S
H563   N583    1.031   .     S
H568   N584    1.031   .     S
H575   C155    1.088   1_565 S
H577   N448    1.029   1_655 S
H578   N581    1.031   .     S
N579   Zn594   2.017   .     S
N579   H444    1.029   1_655 S
N579   N448    1.276   1_655 S
N580   Zn593   2.017   .     S
O585   Zn593   1.953   .     S
O586   Zn594   1.953   .     S
O587   Zn594   1.975   .     S
O588   Zn593   1.975   .     S
O589   Zn593   2.000   .     S
O590   Zn594   2.000   .     S
O591   Zn594   2.019   .     S
O592   Zn593   2.019   .     S
C595   O653    1.286   .     A
C595   C616    1.400   .     S
C595   O651    1.276   .     A
C596   C598    1.399   .     A
C596   C607    1.398   .     A
C596   N648    1.429   .     S
C597   C599    1.403   .     A
C597   C619    1.422   .     S
C597   C620    1.399   .     A
C598   C618    1.422   .     S
C598   C600    1.403   .     A
C599   C601    1.395   .     A
C599   N649    1.431   .     S
C600   N650    1.431   .     S
C600   C602    1.395   .     A
C601   C608    1.401   .     A
C601   C603    1.416   .     A
C602   C604    1.416   .     A
C602   C609    1.401   .     A
C603   C605    1.418   .     A
C604   C607    1.418   .     A
C604   C9      1.403   1_556 S
C605   C615    1.403   .     A
C605   C620    1.398   .     A
C606   O652    1.276   .     A
C606   C617    1.400   .     S
C606   O654    1.286   .     A
C607   C614    1.403   .     A
C608   H621    1.083   .     S
C609   H632    1.083   .     S
C609   C21     1.381   1_556 S
C610   H622    1.111   .     S
C610   H624    1.110   .     S
C610   H623    1.110   .     S
C610   N647    1.447   .     S
C611   H627    1.111   .     S
C611   H628    1.110   .     S
C611   H626    1.111   .     S
C611   N648    1.447   .     S
C612   H633    1.110   .     S
C612   N649    1.448   .     S
C612   H631    1.110   .     S
C612   H630    1.110   .     S
C613   N650    1.448   .     S
C613   H636    1.110   .     S
C613   H635    1.110   .     S
C613   H637    1.110   .     S
C614   H638    1.081   .     S
C614   C14     1.381   1_556 S
C615   H639    1.081   .     S
C616   C815    1.335   .     S
C616   H838    1.088   .     S
C617   C1012   1.335   1_545 S
C617   H1037   1.088   1_545 S
C618   O655    1.283   .     A
C618   O657    1.286   .     A
C619   O658    1.286   .     A
C619   O656    1.283   .     A
C620   N647    1.429   .     S
H625   N648    1.031   .     S
H629   N649    1.031   .     S
H634   N650    1.031   .     S
H640   C1012   1.088   1_545 S
H641   C815    1.088   .     S
H642   N777    1.029   1_455 S
H643   N712    1.029   .     S
H644   N647    1.031   .     S
N645   Zn660   2.017   .     S
N645   H708    1.029   .     S
N645   N712    1.276   .     S
N646   Zn659   2.017   .     S
N646   N777    1.276   1_455 S
N646   H775    1.029   1_455 S
O651   Zn659   1.953   .     S
O652   Zn660   1.953   .     S
O653   Zn660   1.975   .     S
O654   Zn659   1.975   .     S
O655   Zn659   2.000   .     S
O656   Zn660   2.000   .     S
O657   Zn660   2.019   .     S
O658   Zn659   2.019   .     S
C661   O719    1.286   .     A
C661   C682    1.400   .     S
C661   O717    1.276   .     A
C662   C664    1.399   .     A
C662   C673    1.398   .     A
C662   N714    1.429   .     S
C663   C665    1.403   .     A
C663   C685    1.422   .     S
C663   C686    1.399   .     A
C664   C684    1.422   .     S
C664   C666    1.403   .     A
C665   C667    1.395   .     A
C665   N715    1.431   .     S
C666   N716    1.431   .     S
C666   C668    1.395   .     A
C667   C674    1.401   .     A
C667   C669    1.416   .     A
C668   C670    1.416   .     A
C668   C675    1.401   .     A
C669   C671    1.418   .     A
C670   C673    1.418   .     A
C670   C75     1.403   1_556 S
C671   C681    1.403   .     A
C671   C686    1.398   .     A
C672   O718    1.276   .     A
C672   C683    1.400   .     S
C672   O720    1.286   .     A
C673   C680    1.403   .     A
C674   H687    1.083   .     S
C675   H698    1.083   .     S
C675   C87     1.381   1_556 S
C676   H688    1.111   .     S
C676   H690    1.110   .     S
C676   H689    1.110   .     S
C676   N713    1.447   .     S
C677   H693    1.111   .     S
C677   H694    1.110   .     S
C677   H692    1.111   .     S
C677   N714    1.447   .     S
C678   H699    1.110   .     S
C678   N715    1.448   .     S
C678   H697    1.110   .     S
C678   H696    1.110   .     S
C679   N716    1.448   .     S
C679   H702    1.110   .     S
C679   H701    1.110   .     S
C679   H703    1.110   .     S
C680   H704    1.081   .     S
C680   C80     1.381   1_556 S
C681   H705    1.081   .     S
C682   C881    1.335   .     S
C682   H904    1.088   .     S
C683   C1078   1.335   1_545 S
C683   H1103   1.088   1_545 S
C684   O721    1.283   .     A
C684   O723    1.286   .     A
C685   O724    1.286   .     A
C685   O722    1.283   .     A
C686   N713    1.429   .     S
H691   N714    1.031   .     S
H695   N715    1.031   .     S
H700   N716    1.031   .     S
H706   C1078   1.088   1_545 S
H707   C881    1.088   .     S
H709   N778    1.029   .     S
H710   N713    1.031   .     S
N711   Zn726   2.017   .     S
N711   H774    1.029   .     S
N711   N778    1.276   .     S
N712   Zn725   2.017   .     S
O717   Zn725   1.953   .     S
O718   Zn726   1.953   .     S
O719   Zn726   1.975   .     S
O720   Zn725   1.975   .     S
O721   Zn725   2.000   .     S
O722   Zn726   2.000   .     S
O723   Zn726   2.019   .     S
O724   Zn725   2.019   .     S
C727   O785    1.286   .     A
C727   C748    1.400   .     S
C727   O783    1.276   .     A
C728   C730    1.399   .     A
C728   C739    1.398   .     A
C728   N780    1.429   .     S
C729   C731    1.403   .     A
C729   C751    1.422   .     S
C729   C752    1.399   .     A
C730   C750    1.422   .     S
C730   C732    1.403   .     A
C731   C733    1.395   .     A
C731   N781    1.431   .     S
C732   N782    1.431   .     S
C732   C734    1.395   .     A
C733   C740    1.401   .     A
C733   C735    1.416   .     A
C734   C736    1.416   .     A
C734   C741    1.401   .     A
C735   C737    1.418   .     A
C736   C739    1.418   .     A
C736   C141    1.403   1_556 S
C737   C747    1.403   .     A
C737   C752    1.398   .     A
C738   O784    1.276   .     A
C738   C749    1.400   .     S
C738   O786    1.286   .     A
C739   C746    1.403   .     A
C740   H753    1.083   .     S
C741   H764    1.083   .     S
C741   C153    1.381   1_556 S
C742   H754    1.111   .     S
C742   H756    1.110   .     S
C742   H755    1.110   .     S
C742   N779    1.447   .     S
C743   H759    1.111   .     S
C743   H760    1.110   .     S
C743   H758    1.111   .     S
C743   N780    1.447   .     S
C744   H765    1.110   .     S
C744   N781    1.448   .     S
C744   H763    1.110   .     S
C744   H762    1.110   .     S
C745   N782    1.448   .     S
C745   H768    1.110   .     S
C745   H767    1.110   .     S
C745   H769    1.110   .     S
C746   H770    1.081   .     S
C746   C146    1.381   1_556 S
C747   H771    1.081   .     S
C748   C947    1.335   .     S
C748   H970    1.088   .     S
C749   C1144   1.335   1_545 S
C749   H1169   1.088   1_545 S
C750   O787    1.283   .     A
C750   O789    1.286   .     A
C751   O790    1.286   .     A
C751   O788    1.283   .     A
C752   N779    1.429   .     S
H757   N780    1.031   .     S
H761   N781    1.031   .     S
H766   N782    1.031   .     S
H772   C1144   1.088   1_545 S
H773   C947    1.088   .     S
H775   N646    1.029   1_655 S
H776   N779    1.031   .     S
N777   Zn792   2.017   .     S
N777   H642    1.029   1_655 S
N777   N646    1.276   1_655 S
N778   Zn791   2.017   .     S
O783   Zn791   1.953   .     S
O784   Zn792   1.953   .     S
O785   Zn792   1.975   .     S
O786   Zn791   1.975   .     S
O787   Zn791   2.000   .     S
O788   Zn792   2.000   .     S
O789   Zn792   2.019   .     S
O790   Zn791   2.019   .     S
C793   O851    1.286   .     A
C793   C814    1.400   .     S
C793   O849    1.276   .     A
C794   C796    1.399   .     A
C794   C805    1.398   .     A
C794   N846    1.429   .     S
C795   C797    1.403   .     A
C795   C817    1.422   .     S
C795   C818    1.399   .     A
C796   C816    1.422   .     S
C796   C798    1.403   .     A
C797   C799    1.395   .     A
C797   N847    1.431   .     S
C798   N848    1.431   .     S
C798   C800    1.395   .     A
C799   C806    1.401   .     A
C799   C801    1.416   .     A
C800   C802    1.416   .     A
C800   C807    1.401   .     A
C801   C803    1.418   .     A
C802   C805    1.418   .     A
C802   C207    1.403   1_556 S
C803   C813    1.403   .     A
C803   C818    1.398   .     A
C804   O850    1.276   .     A
C804   C815    1.400   .     S
C804   O852    1.286   .     A
C805   C812    1.403   .     A
C806   H819    1.083   .     S
C807   H830    1.083   .     S
C807   C219    1.381   1_556 S
C808   H820    1.111   .     S
C808   H822    1.110   .     S
C808   H821    1.110   .     S
C808   N845    1.447   .     S
C809   H825    1.111   .     S
C809   H826    1.110   .     S
C809   H824    1.111   .     S
C809   N846    1.447   .     S
C810   H831    1.110   .     S
C810   N847    1.448   .     S
C810   H829    1.110   .     S
C810   H828    1.110   .     S
C811   N848    1.448   .     S
C811   H834    1.110   .     S
C811   H833    1.110   .     S
C811   H835    1.110   .     S
C812   H836    1.081   .     S
C812   C212    1.381   1_556 S
C813   H837    1.081   .     S
C814   C1013   1.335   .     S
C814   H1036   1.088   .     S
C816   O853    1.283   .     A
C816   O855    1.286   .     A
C817   O856    1.286   .     A
C817   O854    1.283   .     A
C818   N845    1.429   .     S
H823   N846    1.031   .     S
H827   N847    1.031   .     S
H832   N848    1.031   .     S
H839   C1013   1.088   .     S
H840   N975    1.029   1_455 S
H841   N910    1.029   .     S
H842   N845    1.031   .     S
N843   Zn858   2.017   .     S
N843   H906    1.029   .     S
N843   N910    1.276   .     S
N844   Zn857   2.017   .     S
N844   N975    1.276   1_455 S
N844   H973    1.029   1_455 S
O849   Zn857   1.953   .     S
O850   Zn858   1.953   .     S
O851   Zn858   1.975   .     S
O852   Zn857   1.975   .     S
O853   Zn857   2.000   .     S
O854   Zn858   2.000   .     S
O855   Zn858   2.019   .     S
O856   Zn857   2.019   .     S
C859   O917    1.286   .     A
C859   C880    1.400   .     S
C859   O915    1.276   .     A
C860   C862    1.399   .     A
C860   C871    1.398   .     A
C860   N912    1.429   .     S
C861   C863    1.403   .     A
C861   C883    1.422   .     S
C861   C884    1.399   .     A
C862   C882    1.422   .     S
C862   C864    1.403   .     A
C863   C865    1.395   .     A
C863   N913    1.431   .     S
C864   N914    1.431   .     S
C864   C866    1.395   .     A
C865   C872    1.401   .     A
C865   C867    1.416   .     A
C866   C868    1.416   .     A
C866   C873    1.401   .     A
C867   C869    1.418   .     A
C868   C871    1.418   .     A
C868   C273    1.403   1_556 S
C869   C879    1.403   .     A
C869   C884    1.398   .     A
C870   O916    1.276   .     A
C870   C881    1.400   .     S
C870   O918    1.286   .     A
C871   C878    1.403   .     A
C872   H885    1.083   .     S
C873   H896    1.083   .     S
C873   C285    1.381   1_556 S
C874   H886    1.111   .     S
C874   H888    1.110   .     S
C874   H887    1.110   .     S
C874   N911    1.447   .     S
C875   H891    1.111   .     S
C875   H892    1.110   .     S
C875   H890    1.111   .     S
C875   N912    1.447   .     S
C876   H897    1.110   .     S
C876   N913    1.448   .     S
C876   H895    1.110   .     S
C876   H894    1.110   .     S
C877   N914    1.448   .     S
C877   H900    1.110   .     S
C877   H899    1.110   .     S
C877   H901    1.110   .     S
C878   H902    1.081   .     S
C878   C278    1.381   1_556 S
C879   H903    1.081   .     S
C880   C1079   1.335   .     S
C880   H1102   1.088   .     S
C882   O919    1.283   .     A
C882   O921    1.286   .     A
C883   O922    1.286   .     A
C883   O920    1.283   .     A
C884   N911    1.429   .     S
H889   N912    1.031   .     S
H893   N913    1.031   .     S
H898   N914    1.031   .     S
H905   C1079   1.088   .     S
H907   N976    1.029   .     S
H908   N911    1.031   .     S
N909   Zn924   2.017   .     S
N909   H972    1.029   .     S
N909   N976    1.276   .     S
N910   Zn923   2.017   .     S
O915   Zn923   1.953   .     S
O916   Zn924   1.953   .     S
O917   Zn924   1.975   .     S
O918   Zn923   1.975   .     S
O919   Zn923   2.000   .     S
O920   Zn924   2.000   .     S
O921   Zn924   2.019   .     S
O922   Zn923   2.019   .     S
C925   O983    1.286   .     A
C925   C946    1.400   .     S
C925   O981    1.276   .     A
C926   C928    1.399   .     A
C926   C937    1.398   .     A
C926   N978    1.429   .     S
C927   C929    1.403   .     A
C927   C949    1.422   .     S
C927   C950    1.399   .     A
C928   C948    1.422   .     S
C928   C930    1.403   .     A
C929   C931    1.395   .     A
C929   N979    1.431   .     S
C930   N980    1.431   .     S
C930   C932    1.395   .     A
C931   C938    1.401   .     A
C931   C933    1.416   .     A
C932   C934    1.416   .     A
C932   C939    1.401   .     A
C933   C935    1.418   .     A
C934   C937    1.418   .     A
C934   C339    1.403   1_556 S
C935   C945    1.403   .     A
C935   C950    1.398   .     A
C936   O982    1.276   .     A
C936   C947    1.400   .     S
C936   O984    1.286   .     A
C937   C944    1.403   .     A
C938   H951    1.083   .     S
C939   H962    1.083   .     S
C939   C351    1.381   1_556 S
C940   H952    1.111   .     S
C940   H954    1.110   .     S
C940   H953    1.110   .     S
C940   N977    1.447   .     S
C941   H957    1.111   .     S
C941   H958    1.110   .     S
C941   H956    1.111   .     S
C941   N978    1.447   .     S
C942   H963    1.110   .     S
C942   N979    1.448   .     S
C942   H961    1.110   .     S
C942   H960    1.110   .     S
C943   N980    1.448   .     S
C943   H966    1.110   .     S
C943   H965    1.110   .     S
C943   H967    1.110   .     S
C944   H968    1.081   .     S
C944   C344    1.381   1_556 S
C945   H969    1.081   .     S
C946   C1145   1.335   .     S
C946   H1168   1.088   .     S
C948   O985    1.283   .     A
C948   O987    1.286   .     A
C949   O988    1.286   .     A
C949   O986    1.283   .     A
C950   N977    1.429   .     S
H955   N978    1.031   .     S
H959   N979    1.031   .     S
H964   N980    1.031   .     S
H971   C1145   1.088   .     S
H973   N844    1.029   1_655 S
H974   N977    1.031   .     S
N975   Zn990   2.017   .     S
N975   H840    1.029   1_655 S
N975   N844    1.276   1_655 S
N976   Zn989   2.017   .     S
O981   Zn989   1.953   .     S
O982   Zn990   1.953   .     S
O983   Zn990   1.975   .     S
O984   Zn989   1.975   .     S
O985   Zn989   2.000   .     S
O986   Zn990   2.000   .     S
O987   Zn990   2.019   .     S
O988   Zn989   2.019   .     S
C991   O1049   1.286   .     A
C991   C1012   1.400   .     S
C991   O1047   1.276   .     A
C992   C994    1.399   .     A
C992   C1003   1.398   .     A
C992   N1044   1.429   .     S
C993   C995    1.403   .     A
C993   C1015   1.422   .     S
C993   C1016   1.399   .     A
C994   C1014   1.422   .     S
C994   C996    1.403   .     A
C995   C997    1.395   .     A
C995   N1045   1.431   .     S
C996   N1046   1.431   .     S
C996   C998    1.395   .     A
C997   C1004   1.401   .     A
C997   C999    1.416   .     A
C998   C1000   1.416   .     A
C998   C1005   1.401   .     A
C999   C1001   1.418   .     A
C1000  C1003   1.418   .     A
C1000  C405    1.403   1_556 S
C1001  C1011   1.403   .     A
C1001  C1016   1.398   .     A
C1002  O1048   1.276   .     A
C1002  C1013   1.400   .     S
C1002  O1050   1.286   .     A
C1003  C1010   1.403   .     A
C1004  H1017   1.083   .     S
C1005  H1028   1.083   .     S
C1005  C417    1.381   1_556 S
C1006  H1018   1.111   .     S
C1006  H1020   1.110   .     S
C1006  H1019   1.110   .     S
C1006  N1043   1.447   .     S
C1007  H1023   1.111   .     S
C1007  H1024   1.110   .     S
C1007  H1022   1.111   .     S
C1007  N1044   1.447   .     S
C1008  H1029   1.110   .     S
C1008  N1045   1.448   .     S
C1008  H1027   1.110   .     S
C1008  H1026   1.110   .     S
C1009  N1046   1.448   .     S
C1009  H1032   1.110   .     S
C1009  H1031   1.110   .     S
C1009  H1033   1.110   .     S
C1010  H1034   1.081   .     S
C1010  C410    1.381   1_556 S
C1011  H1035   1.081   .     S
C1012  C617    1.335   1_565 S
C1012  H640    1.088   1_565 S
C1014  O1051   1.283   .     A
C1014  O1053   1.286   .     A
C1015  O1054   1.286   .     A
C1015  O1052   1.283   .     A
C1016  N1043   1.429   .     S
H1021  N1044   1.031   .     S
H1025  N1045   1.031   .     S
H1030  N1046   1.031   .     S
H1037  C617    1.088   1_565 S
H1038  N1173   1.029   1_455 S
H1039  N1108   1.029   .     S
H1040  N1043   1.031   .     S
N1041  Zn1056  2.017   .     S
N1041  H1104   1.029   .     S
N1041  N1108   1.276   .     S
N1042  Zn1055  2.017   .     S
N1042  N1173   1.276   1_455 S
N1042  H1171   1.029   1_455 S
O1047  Zn1055  1.953   .     S
O1048  Zn1056  1.953   .     S
O1049  Zn1056  1.975   .     S
O1050  Zn1055  1.975   .     S
O1051  Zn1055  2.000   .     S
O1052  Zn1056  2.000   .     S
O1053  Zn1056  2.019   .     S
O1054  Zn1055  2.019   .     S
C1057  O1115   1.286   .     A
C1057  C1078   1.400   .     S
C1057  O1113   1.276   .     A
C1058  C1060   1.399   .     A
C1058  C1069   1.398   .     A
C1058  N1110   1.429   .     S
C1059  C1061   1.403   .     A
C1059  C1081   1.422   .     S
C1059  C1082   1.399   .     A
C1060  C1080   1.422   .     S
C1060  C1062   1.403   .     A
C1061  C1063   1.395   .     A
C1061  N1111   1.431   .     S
C1062  N1112   1.431   .     S
C1062  C1064   1.395   .     A
C1063  C1070   1.401   .     A
C1063  C1065   1.416   .     A
C1064  C1066   1.416   .     A
C1064  C1071   1.401   .     A
C1065  C1067   1.418   .     A
C1066  C1069   1.418   .     A
C1066  C471    1.403   1_556 S
C1067  C1077   1.403   .     A
C1067  C1082   1.398   .     A
C1068  O1114   1.276   .     A
C1068  C1079   1.400   .     S
C1068  O1116   1.286   .     A
C1069  C1076   1.403   .     A
C1070  H1083   1.083   .     S
C1071  H1094   1.083   .     S
C1071  C483    1.381   1_556 S
C1072  H1084   1.111   .     S
C1072  H1086   1.110   .     S
C1072  H1085   1.110   .     S
C1072  N1109   1.447   .     S
C1073  H1089   1.111   .     S
C1073  H1090   1.110   .     S
C1073  H1088   1.111   .     S
C1073  N1110   1.447   .     S
C1074  H1095   1.110   .     S
C1074  N1111   1.448   .     S
C1074  H1093   1.110   .     S
C1074  H1092   1.110   .     S
C1075  N1112   1.448   .     S
C1075  H1098   1.110   .     S
C1075  H1097   1.110   .     S
C1075  H1099   1.110   .     S
C1076  H1100   1.081   .     S
C1076  C476    1.381   1_556 S
C1077  H1101   1.081   .     S
C1078  C683    1.335   1_565 S
C1078  H706    1.088   1_565 S
C1080  O1117   1.283   .     A
C1080  O1119   1.286   .     A
C1081  O1120   1.286   .     A
C1081  O1118   1.283   .     A
C1082  N1109   1.429   .     S
H1087  N1110   1.031   .     S
H1091  N1111   1.031   .     S
H1096  N1112   1.031   .     S
H1103  C683    1.088   1_565 S
H1105  N1174   1.029   .     S
H1106  N1109   1.031   .     S
N1107  Zn1122  2.017   .     S
N1107  H1170   1.029   .     S
N1107  N1174   1.276   .     S
N1108  Zn1121  2.017   .     S
O1113  Zn1121  1.953   .     S
O1114  Zn1122  1.953   .     S
O1115  Zn1122  1.975   .     S
O1116  Zn1121  1.975   .     S
O1117  Zn1121  2.000   .     S
O1118  Zn1122  2.000   .     S
O1119  Zn1122  2.019   .     S
O1120  Zn1121  2.019   .     S
C1123  O1181   1.286   .     A
C1123  C1144   1.400   .     S
C1123  O1179   1.276   .     A
C1124  C1126   1.399   .     A
C1124  C1135   1.398   .     A
C1124  N1176   1.429   .     S
C1125  C1127   1.403   .     A
C1125  C1147   1.422   .     S
C1125  C1148   1.399   .     A
C1126  C1146   1.422   .     S
C1126  C1128   1.403   .     A
C1127  C1129   1.395   .     A
C1127  N1177   1.431   .     S
C1128  N1178   1.431   .     S
C1128  C1130   1.395   .     A
C1129  C1136   1.401   .     A
C1129  C1131   1.416   .     A
C1130  C1132   1.416   .     A
C1130  C1137   1.401   .     A
C1131  C1133   1.418   .     A
C1132  C1135   1.418   .     A
C1132  C537    1.403   1_556 S
C1133  C1143   1.403   .     A
C1133  C1148   1.398   .     A
C1134  O1180   1.276   .     A
C1134  C1145   1.400   .     S
C1134  O1182   1.286   .     A
C1135  C1142   1.403   .     A
C1136  H1149   1.083   .     S
C1137  H1160   1.083   .     S
C1137  C549    1.381   1_556 S
C1138  H1150   1.111   .     S
C1138  H1152   1.110   .     S
C1138  H1151   1.110   .     S
C1138  N1175   1.447   .     S
C1139  H1155   1.111   .     S
C1139  H1156   1.110   .     S
C1139  H1154   1.111   .     S
C1139  N1176   1.447   .     S
C1140  H1161   1.110   .     S
C1140  N1177   1.448   .     S
C1140  H1159   1.110   .     S
C1140  H1158   1.110   .     S
C1141  N1178   1.448   .     S
C1141  H1164   1.110   .     S
C1141  H1163   1.110   .     S
C1141  H1165   1.110   .     S
C1142  H1166   1.081   .     S
C1142  C542    1.381   1_556 S
C1143  H1167   1.081   .     S
C1144  C749    1.335   1_565 S
C1144  H772    1.088   1_565 S
C1146  O1183   1.283   .     A
C1146  O1185   1.286   .     A
C1147  O1186   1.286   .     A
C1147  O1184   1.283   .     A
C1148  N1175   1.429   .     S
H1153  N1176   1.031   .     S
H1157  N1177   1.031   .     S
H1162  N1178   1.031   .     S
H1169  C749    1.088   1_565 S
H1171  N1042   1.029   1_655 S
H1172  N1175   1.031   .     S
N1173  Zn1188  2.017   .     S
N1173  H1038   1.029   1_655 S
N1173  N1042   1.276   1_655 S
N1174  Zn1187  2.017   .     S
O1179  Zn1187  1.953   .     S
O1180  Zn1188  1.953   .     S
O1181  Zn1188  1.975   .     S
O1182  Zn1187  1.975   .     S
O1183  Zn1187  2.000   .     S
O1184  Zn1188  2.000   .     S
O1185  Zn1188  2.019   .     S
O1186  Zn1187  2.019   .     S
