data_str_m3_o10_o17_pcu_sym.27
_audit_creation_date              2020-01-03
_audit_creation_method            'Materials Studio'
_symmetry_space_group_name_H-M    'P1'
_symmetry_Int_Tables_number       1
_symmetry_cell_setting            triclinic
loop_
_symmetry_equiv_pos_as_xyz
  x,y,z
_cell_length_a                    23.4815
_cell_length_b                    25.6562
_cell_length_c                    29.7598
_cell_angle_alpha                 91.4102
_cell_angle_beta                  86.0392
_cell_angle_gamma                 93.2723
loop_
_atom_site_label
_atom_site_type_symbol
_atom_site_fract_x
_atom_site_fract_y
_atom_site_fract_z
_atom_site_U_iso_or_equiv
_atom_site_adp_type
_atom_site_occupancy
O1     O     0.12975   0.24619   0.25298   0.00000  Uiso   1.00
O2     O     0.20358   0.08714   0.24701   0.00000  Uiso   1.00
O3     O     0.22613   0.23721   0.24518   0.00000  Uiso   1.00
O4     O     0.10720   0.09613   0.25481   0.00000  Uiso   1.00
C5     C     0.18175   0.26478   0.24883   0.00000  Uiso   1.00
C6     C     0.15158   0.06855   0.25117   0.00000  Uiso   1.00
O7     O     0.11847   0.17117   0.31997   0.00000  Uiso   1.00
O8     O     0.21486   0.16216   0.18002   0.00000  Uiso   1.00
O9     O     0.21485   0.16219   0.31217   0.00000  Uiso   1.00
O10    O     0.11848   0.17115   0.18782   0.00000  Uiso   1.00
C11    C     0.16752   0.16723   0.33620   0.00000  Uiso   1.00
C12    C     0.16581   0.16611   0.16380   0.00000  Uiso   1.00
Zn13   Zn    0.10231   0.17266   0.25521   0.00000  Uiso   1.00
Zn14   Zn    0.23102   0.16067   0.24479   0.00000  Uiso   1.00
C15    C     0.14650   0.11810   0.09326   0.00000  Uiso   1.00
C16    C     0.18683   0.21524   0.40674   0.00000  Uiso   1.00
C17    C     0.16388   0.16431   0.11630   0.00000  Uiso   1.00
C18    C     0.16945   0.16902   0.38369   0.00000  Uiso   1.00
C19    C     0.18156   0.20984   0.09422   0.00000  Uiso   1.00
C20    C     0.15177   0.12349   0.40578   0.00000  Uiso   1.00
C21    C     0.18268   0.21101   0.04796   0.00000  Uiso   1.00
C22    C     0.15066   0.12232   0.45204   0.00000  Uiso   1.00
C23    C     0.16573   0.16573   0.02348   0.00000  Uiso   1.00
C24    C     0.16760   0.16760   0.47652   0.00000  Uiso   1.00
C25    C     0.14715   0.11871   0.04600   0.00000  Uiso   1.00
C26    C     0.18618   0.21463   0.45400   0.00000  Uiso   1.00
C27    C     0.20094   0.25712   0.02626   0.00000  Uiso   1.00
C28    C     0.13239   0.07622   0.47374   0.00000  Uiso   1.00
C29    C     0.20298   0.25967   0.47938   0.00000  Uiso   1.00
C30    C     0.13035   0.07366   0.02062   0.00000  Uiso   1.00
H31    H     0.19478   0.24450   0.11341   0.00000  Uiso   1.00
H32    H     0.13855   0.08883   0.38659   0.00000  Uiso   1.00
H33    H     0.21373   0.29141   0.04597   0.00000  Uiso   1.00
H34    H     0.11961   0.04193   0.45402   0.00000  Uiso   1.00
C35    C     0.18972   0.31926   0.24821   0.00000  Uiso   1.00
C36    C     0.14361   0.01408   0.25179   0.00000  Uiso   1.00
H37    H     0.23339   0.00268   0.24482   0.00000  Uiso   1.00
H38    H     0.09995   0.33065   0.25518   0.00000  Uiso   1.00
N39    N     0.31678   0.15265   0.23783   0.00000  Uiso   1.00
N40    N     0.01656   0.18068   0.26217   0.00000  Uiso   1.00
O41    O     0.12975   0.07234   0.11558   0.00000  Uiso   1.00
H42    H     0.13476   0.07618   0.14821   0.00000  Uiso   1.00
O43    O     0.20359   0.26099   0.38442   0.00000  Uiso   1.00
H44    H     0.19857   0.25716   0.35179   0.00000  Uiso   1.00
O45    O     0.22128   0.30564   0.45822   0.00000  Uiso   1.00
H46    H     0.23114   0.33285   0.48108   0.00000  Uiso   1.00
O47    O     0.11205   0.02770   0.04178   0.00000  Uiso   1.00
H48    H     0.10220   0.00048   0.01892   0.00000  Uiso   1.00
N49    N     0.00748   0.13980   0.19553   0.00000  Uiso   1.00
O50    O     0.00393   0.17142   0.16246   0.00000  Uiso   1.00
O51    O     0.01982   0.09174   0.18651   0.00000  Uiso   1.00
N52    N     0.32585   0.19353   0.30447   0.00000  Uiso   1.00
O53    O     0.32941   0.16191   0.33754   0.00000  Uiso   1.00
O54    O     0.31351   0.24159   0.31349   0.00000  Uiso   1.00
O55    O     0.46308   0.24619   0.25298   0.00000  Uiso   1.00
O56    O     0.53692   0.08714   0.24701   0.00000  Uiso   1.00
O57    O     0.55946   0.23721   0.24518   0.00000  Uiso   1.00
O58    O     0.44054   0.09613   0.25481   0.00000  Uiso   1.00
C59    C     0.51509   0.26478   0.24883   0.00000  Uiso   1.00
C60    C     0.48491   0.06855   0.25117   0.00000  Uiso   1.00
O61    O     0.45181   0.17117   0.31997   0.00000  Uiso   1.00
O62    O     0.54819   0.16216   0.18002   0.00000  Uiso   1.00
O63    O     0.54819   0.16219   0.31217   0.00000  Uiso   1.00
O64    O     0.45181   0.17115   0.18782   0.00000  Uiso   1.00
C65    C     0.50086   0.16723   0.33620   0.00000  Uiso   1.00
C66    C     0.49914   0.16611   0.16380   0.00000  Uiso   1.00
Zn67   Zn    0.43565   0.17266   0.25521   0.00000  Uiso   1.00
Zn68   Zn    0.56435   0.16067   0.24479   0.00000  Uiso   1.00
C69    C     0.47983   0.11810   0.09326   0.00000  Uiso   1.00
C70    C     0.52017   0.21524   0.40674   0.00000  Uiso   1.00
C71    C     0.49722   0.16431   0.11630   0.00000  Uiso   1.00
C72    C     0.50278   0.16902   0.38369   0.00000  Uiso   1.00
C73    C     0.51490   0.20984   0.09422   0.00000  Uiso   1.00
C74    C     0.48510   0.12349   0.40578   0.00000  Uiso   1.00
C75    C     0.51601   0.21101   0.04796   0.00000  Uiso   1.00
C76    C     0.48399   0.12232   0.45204   0.00000  Uiso   1.00
C77    C     0.49907   0.16573   0.02348   0.00000  Uiso   1.00
C78    C     0.50093   0.16760   0.47652   0.00000  Uiso   1.00
C79    C     0.48049   0.11871   0.04600   0.00000  Uiso   1.00
C80    C     0.51951   0.21463   0.45400   0.00000  Uiso   1.00
C81    C     0.53427   0.25712   0.02626   0.00000  Uiso   1.00
C82    C     0.46573   0.07622   0.47374   0.00000  Uiso   1.00
C83    C     0.53631   0.25967   0.47938   0.00000  Uiso   1.00
C84    C     0.46369   0.07366   0.02062   0.00000  Uiso   1.00
H85    H     0.52812   0.24450   0.11341   0.00000  Uiso   1.00
H86    H     0.47188   0.08883   0.38659   0.00000  Uiso   1.00
H87    H     0.54706   0.29141   0.04597   0.00000  Uiso   1.00
H88    H     0.45294   0.04193   0.45402   0.00000  Uiso   1.00
C89    C     0.52306   0.31926   0.24821   0.00000  Uiso   1.00
C90    C     0.47694   0.01408   0.25179   0.00000  Uiso   1.00
H91    H     0.56672   0.00268   0.24482   0.00000  Uiso   1.00
H92    H     0.43328   0.33065   0.25518   0.00000  Uiso   1.00
N93    N     0.65011   0.15265   0.23783   0.00000  Uiso   1.00
N94    N     0.34989   0.18068   0.26217   0.00000  Uiso   1.00
O95    O     0.46308   0.07234   0.11558   0.00000  Uiso   1.00
H96    H     0.46809   0.07618   0.14821   0.00000  Uiso   1.00
O97    O     0.53692   0.26099   0.38442   0.00000  Uiso   1.00
H98    H     0.53191   0.25716   0.35179   0.00000  Uiso   1.00
O99    O     0.55462   0.30564   0.45822   0.00000  Uiso   1.00
H100   H     0.56447   0.33285   0.48108   0.00000  Uiso   1.00
O101   O     0.44538   0.02770   0.04178   0.00000  Uiso   1.00
H102   H     0.43553   0.00048   0.01892   0.00000  Uiso   1.00
N103   N     0.34082   0.13980   0.19553   0.00000  Uiso   1.00
O104   O     0.33726   0.17142   0.16246   0.00000  Uiso   1.00
O105   O     0.35315   0.09174   0.18651   0.00000  Uiso   1.00
N106   N     0.65918   0.19353   0.30447   0.00000  Uiso   1.00
O107   O     0.66274   0.16191   0.33754   0.00000  Uiso   1.00
O108   O     0.64685   0.24159   0.31349   0.00000  Uiso   1.00
O109   O     0.79642   0.24619   0.25298   0.00000  Uiso   1.00
O110   O     0.87025   0.08714   0.24701   0.00000  Uiso   1.00
O111   O     0.89280   0.23721   0.24518   0.00000  Uiso   1.00
O112   O     0.77387   0.09613   0.25481   0.00000  Uiso   1.00
C113   C     0.84842   0.26478   0.24883   0.00000  Uiso   1.00
C114   C     0.81825   0.06855   0.25117   0.00000  Uiso   1.00
O115   O     0.78514   0.17117   0.31997   0.00000  Uiso   1.00
O116   O     0.88153   0.16216   0.18002   0.00000  Uiso   1.00
O117   O     0.88152   0.16219   0.31217   0.00000  Uiso   1.00
O118   O     0.78515   0.17115   0.18782   0.00000  Uiso   1.00
C119   C     0.83419   0.16723   0.33620   0.00000  Uiso   1.00
C120   C     0.83248   0.16611   0.16380   0.00000  Uiso   1.00
Zn121  Zn    0.76898   0.17266   0.25521   0.00000  Uiso   1.00
Zn122  Zn    0.89769   0.16067   0.24479   0.00000  Uiso   1.00
C123   C     0.81317   0.11810   0.09326   0.00000  Uiso   1.00
C124   C     0.85350   0.21524   0.40674   0.00000  Uiso   1.00
C125   C     0.83055   0.16431   0.11630   0.00000  Uiso   1.00
C126   C     0.83612   0.16902   0.38369   0.00000  Uiso   1.00
C127   C     0.84823   0.20984   0.09422   0.00000  Uiso   1.00
C128   C     0.81844   0.12349   0.40578   0.00000  Uiso   1.00
C129   C     0.84934   0.21101   0.04796   0.00000  Uiso   1.00
C130   C     0.81732   0.12232   0.45204   0.00000  Uiso   1.00
C131   C     0.83240   0.16573   0.02348   0.00000  Uiso   1.00
C132   C     0.83426   0.16760   0.47652   0.00000  Uiso   1.00
C133   C     0.81382   0.11871   0.04600   0.00000  Uiso   1.00
C134   C     0.85284   0.21463   0.45400   0.00000  Uiso   1.00
C135   C     0.86761   0.25712   0.02626   0.00000  Uiso   1.00
C136   C     0.79906   0.07622   0.47374   0.00000  Uiso   1.00
C137   C     0.86965   0.25967   0.47938   0.00000  Uiso   1.00
C138   C     0.79702   0.07366   0.02062   0.00000  Uiso   1.00
H139   H     0.86145   0.24450   0.11341   0.00000  Uiso   1.00
H140   H     0.80522   0.08883   0.38659   0.00000  Uiso   1.00
H141   H     0.88039   0.29141   0.04597   0.00000  Uiso   1.00
H142   H     0.78627   0.04193   0.45402   0.00000  Uiso   1.00
C143   C     0.85639   0.31926   0.24821   0.00000  Uiso   1.00
C144   C     0.81028   0.01408   0.25179   0.00000  Uiso   1.00
H145   H     0.90005   0.00268   0.24482   0.00000  Uiso   1.00
H146   H     0.76661   0.33065   0.25518   0.00000  Uiso   1.00
N147   N     0.98344   0.15265   0.23783   0.00000  Uiso   1.00
N148   N     0.68322   0.18068   0.26217   0.00000  Uiso   1.00
O149   O     0.79641   0.07234   0.11558   0.00000  Uiso   1.00
H150   H     0.80142   0.07618   0.14821   0.00000  Uiso   1.00
O151   O     0.87025   0.26099   0.38442   0.00000  Uiso   1.00
H152   H     0.86524   0.25716   0.35179   0.00000  Uiso   1.00
O153   O     0.88795   0.30564   0.45822   0.00000  Uiso   1.00
H154   H     0.89780   0.33285   0.48108   0.00000  Uiso   1.00
O155   O     0.77872   0.02770   0.04178   0.00000  Uiso   1.00
H156   H     0.76886   0.00048   0.01892   0.00000  Uiso   1.00
N157   N     0.67415   0.13980   0.19553   0.00000  Uiso   1.00
O158   O     0.67059   0.17142   0.16246   0.00000  Uiso   1.00
O159   O     0.68649   0.09174   0.18651   0.00000  Uiso   1.00
N160   N     0.99252   0.19353   0.30447   0.00000  Uiso   1.00
O161   O     0.99607   0.16191   0.33754   0.00000  Uiso   1.00
O162   O     0.98018   0.24159   0.31349   0.00000  Uiso   1.00
O163   O     0.12975   0.57952   0.25298   0.00000  Uiso   1.00
O164   O     0.20358   0.42048   0.24701   0.00000  Uiso   1.00
O165   O     0.22613   0.57054   0.24518   0.00000  Uiso   1.00
O166   O     0.10720   0.42946   0.25481   0.00000  Uiso   1.00
C167   C     0.18175   0.59811   0.24883   0.00000  Uiso   1.00
C168   C     0.15158   0.40189   0.25117   0.00000  Uiso   1.00
O169   O     0.11847   0.50450   0.31997   0.00000  Uiso   1.00
O170   O     0.21486   0.49550   0.18002   0.00000  Uiso   1.00
O171   O     0.21485   0.49552   0.31217   0.00000  Uiso   1.00
O172   O     0.11848   0.50448   0.18782   0.00000  Uiso   1.00
C173   C     0.16752   0.50056   0.33620   0.00000  Uiso   1.00
C174   C     0.16581   0.49944   0.16380   0.00000  Uiso   1.00
Zn175  Zn    0.10231   0.50600   0.25521   0.00000  Uiso   1.00
Zn176  Zn    0.23102   0.49400   0.24479   0.00000  Uiso   1.00
C177   C     0.14650   0.45143   0.09326   0.00000  Uiso   1.00
C178   C     0.18683   0.54857   0.40674   0.00000  Uiso   1.00
C179   C     0.16388   0.49764   0.11630   0.00000  Uiso   1.00
C180   C     0.16945   0.50236   0.38369   0.00000  Uiso   1.00
C181   C     0.18156   0.54317   0.09422   0.00000  Uiso   1.00
C182   C     0.15177   0.45683   0.40578   0.00000  Uiso   1.00
C183   C     0.18268   0.54434   0.04796   0.00000  Uiso   1.00
C184   C     0.15066   0.45566   0.45204   0.00000  Uiso   1.00
C185   C     0.16573   0.49907   0.02348   0.00000  Uiso   1.00
C186   C     0.16760   0.50093   0.47652   0.00000  Uiso   1.00
C187   C     0.14715   0.45204   0.04600   0.00000  Uiso   1.00
C188   C     0.18618   0.54796   0.45400   0.00000  Uiso   1.00
C189   C     0.20094   0.59045   0.02626   0.00000  Uiso   1.00
C190   C     0.13239   0.40955   0.47374   0.00000  Uiso   1.00
C191   C     0.20298   0.59300   0.47938   0.00000  Uiso   1.00
C192   C     0.13035   0.40700   0.02062   0.00000  Uiso   1.00
H193   H     0.19478   0.57783   0.11341   0.00000  Uiso   1.00
H194   H     0.13855   0.42217   0.38659   0.00000  Uiso   1.00
H195   H     0.21373   0.62474   0.04597   0.00000  Uiso   1.00
H196   H     0.11961   0.37526   0.45402   0.00000  Uiso   1.00
C197   C     0.18972   0.65259   0.24821   0.00000  Uiso   1.00
C198   C     0.14361   0.34741   0.25179   0.00000  Uiso   1.00
H199   H     0.23339   0.33602   0.24482   0.00000  Uiso   1.00
H200   H     0.09995   0.66398   0.25518   0.00000  Uiso   1.00
N201   N     0.31678   0.48598   0.23783   0.00000  Uiso   1.00
N202   N     0.01656   0.51402   0.26217   0.00000  Uiso   1.00
O203   O     0.12975   0.40567   0.11558   0.00000  Uiso   1.00
H204   H     0.13476   0.40951   0.14821   0.00000  Uiso   1.00
O205   O     0.20359   0.59433   0.38442   0.00000  Uiso   1.00
H206   H     0.19857   0.59049   0.35179   0.00000  Uiso   1.00
O207   O     0.22128   0.63897   0.45822   0.00000  Uiso   1.00
H208   H     0.23114   0.66619   0.48108   0.00000  Uiso   1.00
O209   O     0.11205   0.36103   0.04178   0.00000  Uiso   1.00
H210   H     0.10220   0.33381   0.01892   0.00000  Uiso   1.00
N211   N     0.00748   0.47314   0.19553   0.00000  Uiso   1.00
O212   O     0.00393   0.50475   0.16246   0.00000  Uiso   1.00
O213   O     0.01982   0.42508   0.18651   0.00000  Uiso   1.00
N214   N     0.32585   0.52686   0.30447   0.00000  Uiso   1.00
O215   O     0.32941   0.49525   0.33754   0.00000  Uiso   1.00
O216   O     0.31351   0.57492   0.31349   0.00000  Uiso   1.00
O217   O     0.46308   0.57952   0.25298   0.00000  Uiso   1.00
O218   O     0.53692   0.42048   0.24701   0.00000  Uiso   1.00
O219   O     0.55946   0.57054   0.24518   0.00000  Uiso   1.00
O220   O     0.44054   0.42946   0.25481   0.00000  Uiso   1.00
C221   C     0.51509   0.59811   0.24883   0.00000  Uiso   1.00
C222   C     0.48491   0.40189   0.25117   0.00000  Uiso   1.00
O223   O     0.45181   0.50450   0.31997   0.00000  Uiso   1.00
O224   O     0.54819   0.49550   0.18002   0.00000  Uiso   1.00
O225   O     0.54819   0.49552   0.31217   0.00000  Uiso   1.00
O226   O     0.45181   0.50448   0.18782   0.00000  Uiso   1.00
C227   C     0.50086   0.50056   0.33620   0.00000  Uiso   1.00
C228   C     0.49914   0.49944   0.16380   0.00000  Uiso   1.00
Zn229  Zn    0.43565   0.50600   0.25521   0.00000  Uiso   1.00
Zn230  Zn    0.56435   0.49400   0.24479   0.00000  Uiso   1.00
C231   C     0.47983   0.45143   0.09326   0.00000  Uiso   1.00
C232   C     0.52017   0.54857   0.40674   0.00000  Uiso   1.00
C233   C     0.49722   0.49764   0.11630   0.00000  Uiso   1.00
C234   C     0.50278   0.50236   0.38369   0.00000  Uiso   1.00
C235   C     0.51490   0.54317   0.09422   0.00000  Uiso   1.00
C236   C     0.48510   0.45683   0.40578   0.00000  Uiso   1.00
C237   C     0.51601   0.54434   0.04796   0.00000  Uiso   1.00
C238   C     0.48399   0.45566   0.45204   0.00000  Uiso   1.00
C239   C     0.49907   0.49907   0.02348   0.00000  Uiso   1.00
C240   C     0.50093   0.50093   0.47652   0.00000  Uiso   1.00
C241   C     0.48049   0.45204   0.04600   0.00000  Uiso   1.00
C242   C     0.51951   0.54796   0.45400   0.00000  Uiso   1.00
C243   C     0.53427   0.59045   0.02626   0.00000  Uiso   1.00
C244   C     0.46573   0.40955   0.47374   0.00000  Uiso   1.00
C245   C     0.53631   0.59300   0.47938   0.00000  Uiso   1.00
C246   C     0.46369   0.40700   0.02062   0.00000  Uiso   1.00
H247   H     0.52812   0.57783   0.11341   0.00000  Uiso   1.00
H248   H     0.47188   0.42217   0.38659   0.00000  Uiso   1.00
H249   H     0.54706   0.62474   0.04597   0.00000  Uiso   1.00
H250   H     0.45294   0.37526   0.45402   0.00000  Uiso   1.00
C251   C     0.52306   0.65259   0.24821   0.00000  Uiso   1.00
C252   C     0.47694   0.34741   0.25179   0.00000  Uiso   1.00
H253   H     0.56672   0.33602   0.24482   0.00000  Uiso   1.00
H254   H     0.43328   0.66398   0.25518   0.00000  Uiso   1.00
N255   N     0.65011   0.48598   0.23783   0.00000  Uiso   1.00
N256   N     0.34989   0.51402   0.26217   0.00000  Uiso   1.00
O257   O     0.46308   0.40567   0.11558   0.00000  Uiso   1.00
H258   H     0.46809   0.40951   0.14821   0.00000  Uiso   1.00
O259   O     0.53692   0.59433   0.38442   0.00000  Uiso   1.00
H260   H     0.53191   0.59049   0.35179   0.00000  Uiso   1.00
O261   O     0.55462   0.63897   0.45822   0.00000  Uiso   1.00
H262   H     0.56447   0.66619   0.48108   0.00000  Uiso   1.00
O263   O     0.44538   0.36103   0.04178   0.00000  Uiso   1.00
H264   H     0.43553   0.33381   0.01892   0.00000  Uiso   1.00
N265   N     0.34082   0.47314   0.19553   0.00000  Uiso   1.00
O266   O     0.33726   0.50475   0.16246   0.00000  Uiso   1.00
O267   O     0.35315   0.42508   0.18651   0.00000  Uiso   1.00
N268   N     0.65918   0.52686   0.30447   0.00000  Uiso   1.00
O269   O     0.66274   0.49525   0.33754   0.00000  Uiso   1.00
O270   O     0.64685   0.57492   0.31349   0.00000  Uiso   1.00
O271   O     0.79642   0.57952   0.25298   0.00000  Uiso   1.00
O272   O     0.87025   0.42048   0.24701   0.00000  Uiso   1.00
O273   O     0.89280   0.57054   0.24518   0.00000  Uiso   1.00
O274   O     0.77387   0.42946   0.25481   0.00000  Uiso   1.00
C275   C     0.84842   0.59811   0.24883   0.00000  Uiso   1.00
C276   C     0.81825   0.40189   0.25117   0.00000  Uiso   1.00
O277   O     0.78514   0.50450   0.31997   0.00000  Uiso   1.00
O278   O     0.88153   0.49550   0.18002   0.00000  Uiso   1.00
O279   O     0.88152   0.49552   0.31217   0.00000  Uiso   1.00
O280   O     0.78515   0.50448   0.18782   0.00000  Uiso   1.00
C281   C     0.83419   0.50056   0.33620   0.00000  Uiso   1.00
C282   C     0.83248   0.49944   0.16380   0.00000  Uiso   1.00
Zn283  Zn    0.76898   0.50600   0.25521   0.00000  Uiso   1.00
Zn284  Zn    0.89769   0.49400   0.24479   0.00000  Uiso   1.00
C285   C     0.81317   0.45143   0.09326   0.00000  Uiso   1.00
C286   C     0.85350   0.54857   0.40674   0.00000  Uiso   1.00
C287   C     0.83055   0.49764   0.11630   0.00000  Uiso   1.00
C288   C     0.83612   0.50236   0.38369   0.00000  Uiso   1.00
C289   C     0.84823   0.54317   0.09422   0.00000  Uiso   1.00
C290   C     0.81844   0.45683   0.40578   0.00000  Uiso   1.00
C291   C     0.84934   0.54434   0.04796   0.00000  Uiso   1.00
C292   C     0.81732   0.45566   0.45204   0.00000  Uiso   1.00
C293   C     0.83240   0.49907   0.02348   0.00000  Uiso   1.00
C294   C     0.83426   0.50093   0.47652   0.00000  Uiso   1.00
C295   C     0.81382   0.45204   0.04600   0.00000  Uiso   1.00
C296   C     0.85284   0.54796   0.45400   0.00000  Uiso   1.00
C297   C     0.86761   0.59045   0.02626   0.00000  Uiso   1.00
C298   C     0.79906   0.40955   0.47374   0.00000  Uiso   1.00
C299   C     0.86965   0.59300   0.47938   0.00000  Uiso   1.00
C300   C     0.79702   0.40700   0.02062   0.00000  Uiso   1.00
H301   H     0.86145   0.57783   0.11341   0.00000  Uiso   1.00
H302   H     0.80522   0.42217   0.38659   0.00000  Uiso   1.00
H303   H     0.88039   0.62474   0.04597   0.00000  Uiso   1.00
H304   H     0.78627   0.37526   0.45402   0.00000  Uiso   1.00
C305   C     0.85639   0.65259   0.24821   0.00000  Uiso   1.00
C306   C     0.81028   0.34741   0.25179   0.00000  Uiso   1.00
H307   H     0.90005   0.33602   0.24482   0.00000  Uiso   1.00
H308   H     0.76661   0.66398   0.25518   0.00000  Uiso   1.00
N309   N     0.98344   0.48598   0.23783   0.00000  Uiso   1.00
N310   N     0.68322   0.51402   0.26217   0.00000  Uiso   1.00
O311   O     0.79641   0.40567   0.11558   0.00000  Uiso   1.00
H312   H     0.80142   0.40951   0.14821   0.00000  Uiso   1.00
O313   O     0.87025   0.59433   0.38442   0.00000  Uiso   1.00
H314   H     0.86524   0.59049   0.35179   0.00000  Uiso   1.00
O315   O     0.88795   0.63897   0.45822   0.00000  Uiso   1.00
H316   H     0.89780   0.66619   0.48108   0.00000  Uiso   1.00
O317   O     0.77872   0.36103   0.04178   0.00000  Uiso   1.00
H318   H     0.76886   0.33381   0.01892   0.00000  Uiso   1.00
N319   N     0.67415   0.47314   0.19553   0.00000  Uiso   1.00
O320   O     0.67059   0.50475   0.16246   0.00000  Uiso   1.00
O321   O     0.68649   0.42508   0.18651   0.00000  Uiso   1.00
N322   N     0.99252   0.52686   0.30447   0.00000  Uiso   1.00
O323   O     0.99607   0.49525   0.33754   0.00000  Uiso   1.00
O324   O     0.98018   0.57492   0.31349   0.00000  Uiso   1.00
O325   O     0.12975   0.91286   0.25298   0.00000  Uiso   1.00
O326   O     0.20358   0.75381   0.24701   0.00000  Uiso   1.00
O327   O     0.22613   0.90387   0.24518   0.00000  Uiso   1.00
O328   O     0.10720   0.76279   0.25481   0.00000  Uiso   1.00
C329   C     0.18175   0.93145   0.24883   0.00000  Uiso   1.00
C330   C     0.15158   0.73522   0.25117   0.00000  Uiso   1.00
O331   O     0.11847   0.83784   0.31997   0.00000  Uiso   1.00
O332   O     0.21486   0.82883   0.18002   0.00000  Uiso   1.00
O333   O     0.21485   0.82885   0.31217   0.00000  Uiso   1.00
O334   O     0.11848   0.83781   0.18782   0.00000  Uiso   1.00
C335   C     0.16752   0.83389   0.33620   0.00000  Uiso   1.00
C336   C     0.16581   0.83277   0.16380   0.00000  Uiso   1.00
Zn337  Zn    0.10231   0.83933   0.25521   0.00000  Uiso   1.00
Zn338  Zn    0.23102   0.82734   0.24479   0.00000  Uiso   1.00
C339   C     0.14650   0.78476   0.09326   0.00000  Uiso   1.00
C340   C     0.18683   0.88190   0.40674   0.00000  Uiso   1.00
C341   C     0.16388   0.83098   0.11630   0.00000  Uiso   1.00
C342   C     0.16945   0.83569   0.38369   0.00000  Uiso   1.00
C343   C     0.18156   0.87651   0.09422   0.00000  Uiso   1.00
C344   C     0.15177   0.79016   0.40578   0.00000  Uiso   1.00
C345   C     0.18268   0.87768   0.04796   0.00000  Uiso   1.00
C346   C     0.15066   0.78899   0.45204   0.00000  Uiso   1.00
C347   C     0.16573   0.83240   0.02348   0.00000  Uiso   1.00
C348   C     0.16760   0.83427   0.47652   0.00000  Uiso   1.00
C349   C     0.14715   0.78537   0.04600   0.00000  Uiso   1.00
C350   C     0.18618   0.88129   0.45400   0.00000  Uiso   1.00
C351   C     0.20094   0.92378   0.02626   0.00000  Uiso   1.00
C352   C     0.13239   0.74288   0.47374   0.00000  Uiso   1.00
C353   C     0.20298   0.92634   0.47938   0.00000  Uiso   1.00
C354   C     0.13035   0.74033   0.02062   0.00000  Uiso   1.00
H355   H     0.19478   0.91117   0.11341   0.00000  Uiso   1.00
H356   H     0.13855   0.75550   0.38659   0.00000  Uiso   1.00
H357   H     0.21373   0.95807   0.04597   0.00000  Uiso   1.00
H358   H     0.11961   0.70859   0.45402   0.00000  Uiso   1.00
C359   C     0.18972   0.98592   0.24821   0.00000  Uiso   1.00
C360   C     0.14361   0.68074   0.25179   0.00000  Uiso   1.00
H361   H     0.23339   0.66935   0.24482   0.00000  Uiso   1.00
H362   H     0.09995   0.99732   0.25518   0.00000  Uiso   1.00
N363   N     0.31678   0.81932   0.23783   0.00000  Uiso   1.00
N364   N     0.01656   0.84735   0.26217   0.00000  Uiso   1.00
O365   O     0.12975   0.73901   0.11558   0.00000  Uiso   1.00
H366   H     0.13476   0.74284   0.14821   0.00000  Uiso   1.00
O367   O     0.20359   0.92766   0.38442   0.00000  Uiso   1.00
H368   H     0.19857   0.92382   0.35179   0.00000  Uiso   1.00
O369   O     0.22128   0.97230   0.45822   0.00000  Uiso   1.00
H370   H     0.23114   0.99952   0.48108   0.00000  Uiso   1.00
O371   O     0.11205   0.69436   0.04178   0.00000  Uiso   1.00
H372   H     0.10220   0.66715   0.01892   0.00000  Uiso   1.00
N373   N     0.00748   0.80647   0.19553   0.00000  Uiso   1.00
O374   O     0.00393   0.83809   0.16246   0.00000  Uiso   1.00
O375   O     0.01982   0.75841   0.18651   0.00000  Uiso   1.00
N376   N     0.32585   0.86020   0.30447   0.00000  Uiso   1.00
O377   O     0.32941   0.82858   0.33754   0.00000  Uiso   1.00
O378   O     0.31351   0.90826   0.31349   0.00000  Uiso   1.00
O379   O     0.46308   0.91286   0.25298   0.00000  Uiso   1.00
O380   O     0.53692   0.75381   0.24701   0.00000  Uiso   1.00
O381   O     0.55946   0.90387   0.24518   0.00000  Uiso   1.00
O382   O     0.44054   0.76279   0.25481   0.00000  Uiso   1.00
C383   C     0.51509   0.93145   0.24883   0.00000  Uiso   1.00
C384   C     0.48491   0.73522   0.25117   0.00000  Uiso   1.00
O385   O     0.45181   0.83784   0.31997   0.00000  Uiso   1.00
O386   O     0.54819   0.82883   0.18002   0.00000  Uiso   1.00
O387   O     0.54819   0.82885   0.31217   0.00000  Uiso   1.00
O388   O     0.45181   0.83781   0.18782   0.00000  Uiso   1.00
C389   C     0.50086   0.83389   0.33620   0.00000  Uiso   1.00
C390   C     0.49914   0.83277   0.16380   0.00000  Uiso   1.00
Zn391  Zn    0.43565   0.83933   0.25521   0.00000  Uiso   1.00
Zn392  Zn    0.56435   0.82734   0.24479   0.00000  Uiso   1.00
C393   C     0.47983   0.78476   0.09326   0.00000  Uiso   1.00
C394   C     0.52017   0.88190   0.40674   0.00000  Uiso   1.00
C395   C     0.49722   0.83098   0.11630   0.00000  Uiso   1.00
C396   C     0.50278   0.83569   0.38369   0.00000  Uiso   1.00
C397   C     0.51490   0.87651   0.09422   0.00000  Uiso   1.00
C398   C     0.48510   0.79016   0.40578   0.00000  Uiso   1.00
C399   C     0.51601   0.87768   0.04796   0.00000  Uiso   1.00
C400   C     0.48399   0.78899   0.45204   0.00000  Uiso   1.00
C401   C     0.49907   0.83240   0.02348   0.00000  Uiso   1.00
C402   C     0.50093   0.83427   0.47652   0.00000  Uiso   1.00
C403   C     0.48049   0.78537   0.04600   0.00000  Uiso   1.00
C404   C     0.51951   0.88129   0.45400   0.00000  Uiso   1.00
C405   C     0.53427   0.92378   0.02626   0.00000  Uiso   1.00
C406   C     0.46573   0.74288   0.47374   0.00000  Uiso   1.00
C407   C     0.53631   0.92634   0.47938   0.00000  Uiso   1.00
C408   C     0.46369   0.74033   0.02062   0.00000  Uiso   1.00
H409   H     0.52812   0.91117   0.11341   0.00000  Uiso   1.00
H410   H     0.47188   0.75550   0.38659   0.00000  Uiso   1.00
H411   H     0.54706   0.95807   0.04597   0.00000  Uiso   1.00
H412   H     0.45294   0.70859   0.45402   0.00000  Uiso   1.00
C413   C     0.52306   0.98592   0.24821   0.00000  Uiso   1.00
C414   C     0.47694   0.68074   0.25179   0.00000  Uiso   1.00
H415   H     0.56672   0.66935   0.24482   0.00000  Uiso   1.00
H416   H     0.43328   0.99732   0.25518   0.00000  Uiso   1.00
N417   N     0.65011   0.81932   0.23783   0.00000  Uiso   1.00
N418   N     0.34989   0.84735   0.26217   0.00000  Uiso   1.00
O419   O     0.46308   0.73901   0.11558   0.00000  Uiso   1.00
H420   H     0.46809   0.74284   0.14821   0.00000  Uiso   1.00
O421   O     0.53692   0.92766   0.38442   0.00000  Uiso   1.00
H422   H     0.53191   0.92382   0.35179   0.00000  Uiso   1.00
O423   O     0.55462   0.97230   0.45822   0.00000  Uiso   1.00
H424   H     0.56447   0.99952   0.48108   0.00000  Uiso   1.00
O425   O     0.44538   0.69436   0.04178   0.00000  Uiso   1.00
H426   H     0.43553   0.66715   0.01892   0.00000  Uiso   1.00
N427   N     0.34082   0.80647   0.19553   0.00000  Uiso   1.00
O428   O     0.33726   0.83809   0.16246   0.00000  Uiso   1.00
O429   O     0.35315   0.75841   0.18651   0.00000  Uiso   1.00
N430   N     0.65918   0.86020   0.30447   0.00000  Uiso   1.00
O431   O     0.66274   0.82858   0.33754   0.00000  Uiso   1.00
O432   O     0.64685   0.90826   0.31349   0.00000  Uiso   1.00
O433   O     0.79642   0.91286   0.25298   0.00000  Uiso   1.00
O434   O     0.87025   0.75381   0.24701   0.00000  Uiso   1.00
O435   O     0.89280   0.90387   0.24518   0.00000  Uiso   1.00
O436   O     0.77387   0.76279   0.25481   0.00000  Uiso   1.00
C437   C     0.84842   0.93145   0.24883   0.00000  Uiso   1.00
C438   C     0.81825   0.73522   0.25117   0.00000  Uiso   1.00
O439   O     0.78514   0.83784   0.31997   0.00000  Uiso   1.00
O440   O     0.88153   0.82883   0.18002   0.00000  Uiso   1.00
O441   O     0.88152   0.82885   0.31217   0.00000  Uiso   1.00
O442   O     0.78515   0.83781   0.18782   0.00000  Uiso   1.00
C443   C     0.83419   0.83389   0.33620   0.00000  Uiso   1.00
C444   C     0.83248   0.83277   0.16380   0.00000  Uiso   1.00
Zn445  Zn    0.76898   0.83933   0.25521   0.00000  Uiso   1.00
Zn446  Zn    0.89769   0.82734   0.24479   0.00000  Uiso   1.00
C447   C     0.81317   0.78476   0.09326   0.00000  Uiso   1.00
C448   C     0.85350   0.88190   0.40674   0.00000  Uiso   1.00
C449   C     0.83055   0.83098   0.11630   0.00000  Uiso   1.00
C450   C     0.83612   0.83569   0.38369   0.00000  Uiso   1.00
C451   C     0.84823   0.87651   0.09422   0.00000  Uiso   1.00
C452   C     0.81844   0.79016   0.40578   0.00000  Uiso   1.00
C453   C     0.84934   0.87768   0.04796   0.00000  Uiso   1.00
C454   C     0.81732   0.78899   0.45204   0.00000  Uiso   1.00
C455   C     0.83240   0.83240   0.02348   0.00000  Uiso   1.00
C456   C     0.83426   0.83427   0.47652   0.00000  Uiso   1.00
C457   C     0.81382   0.78537   0.04600   0.00000  Uiso   1.00
C458   C     0.85284   0.88129   0.45400   0.00000  Uiso   1.00
C459   C     0.86761   0.92378   0.02626   0.00000  Uiso   1.00
C460   C     0.79906   0.74288   0.47374   0.00000  Uiso   1.00
C461   C     0.86965   0.92634   0.47938   0.00000  Uiso   1.00
C462   C     0.79702   0.74033   0.02062   0.00000  Uiso   1.00
H463   H     0.86145   0.91117   0.11341   0.00000  Uiso   1.00
H464   H     0.80522   0.75550   0.38659   0.00000  Uiso   1.00
H465   H     0.88039   0.95807   0.04597   0.00000  Uiso   1.00
H466   H     0.78627   0.70859   0.45402   0.00000  Uiso   1.00
C467   C     0.85639   0.98592   0.24821   0.00000  Uiso   1.00
C468   C     0.81028   0.68074   0.25179   0.00000  Uiso   1.00
H469   H     0.90005   0.66935   0.24482   0.00000  Uiso   1.00
H470   H     0.76661   0.99732   0.25518   0.00000  Uiso   1.00
N471   N     0.98344   0.81932   0.23783   0.00000  Uiso   1.00
N472   N     0.68322   0.84735   0.26217   0.00000  Uiso   1.00
O473   O     0.79641   0.73901   0.11558   0.00000  Uiso   1.00
H474   H     0.80142   0.74284   0.14821   0.00000  Uiso   1.00
O475   O     0.87025   0.92766   0.38442   0.00000  Uiso   1.00
H476   H     0.86524   0.92382   0.35179   0.00000  Uiso   1.00
O477   O     0.88795   0.97230   0.45822   0.00000  Uiso   1.00
H478   H     0.89780   0.99952   0.48108   0.00000  Uiso   1.00
O479   O     0.77872   0.69436   0.04178   0.00000  Uiso   1.00
H480   H     0.76886   0.66715   0.01892   0.00000  Uiso   1.00
N481   N     0.67415   0.80647   0.19553   0.00000  Uiso   1.00
O482   O     0.67059   0.83809   0.16246   0.00000  Uiso   1.00
O483   O     0.68649   0.75841   0.18651   0.00000  Uiso   1.00
N484   N     0.99252   0.86020   0.30447   0.00000  Uiso   1.00
O485   O     0.99607   0.82858   0.33754   0.00000  Uiso   1.00
O486   O     0.98018   0.90826   0.31349   0.00000  Uiso   1.00
O487   O     0.12975   0.24619   0.75298   0.00000  Uiso   1.00
O488   O     0.20358   0.08714   0.74701   0.00000  Uiso   1.00
O489   O     0.22613   0.23721   0.74518   0.00000  Uiso   1.00
O490   O     0.10720   0.09613   0.75481   0.00000  Uiso   1.00
C491   C     0.18175   0.26478   0.74883   0.00000  Uiso   1.00
C492   C     0.15158   0.06855   0.75117   0.00000  Uiso   1.00
O493   O     0.11847   0.17117   0.81997   0.00000  Uiso   1.00
O494   O     0.21486   0.16216   0.68002   0.00000  Uiso   1.00
O495   O     0.21485   0.16219   0.81217   0.00000  Uiso   1.00
O496   O     0.11848   0.17115   0.68782   0.00000  Uiso   1.00
C497   C     0.16752   0.16723   0.83620   0.00000  Uiso   1.00
C498   C     0.16581   0.16611   0.66380   0.00000  Uiso   1.00
Zn499  Zn    0.10231   0.17266   0.75521   0.00000  Uiso   1.00
Zn500  Zn    0.23102   0.16067   0.74479   0.00000  Uiso   1.00
C501   C     0.14650   0.11810   0.59326   0.00000  Uiso   1.00
C502   C     0.18683   0.21524   0.90674   0.00000  Uiso   1.00
C503   C     0.16388   0.16431   0.61630   0.00000  Uiso   1.00
C504   C     0.16945   0.16902   0.88369   0.00000  Uiso   1.00
C505   C     0.18156   0.20984   0.59422   0.00000  Uiso   1.00
C506   C     0.15177   0.12349   0.90578   0.00000  Uiso   1.00
C507   C     0.18268   0.21101   0.54796   0.00000  Uiso   1.00
C508   C     0.15066   0.12232   0.95204   0.00000  Uiso   1.00
C509   C     0.16573   0.16573   0.52348   0.00000  Uiso   1.00
C510   C     0.16760   0.16760   0.97652   0.00000  Uiso   1.00
C511   C     0.14715   0.11871   0.54600   0.00000  Uiso   1.00
C512   C     0.18618   0.21463   0.95400   0.00000  Uiso   1.00
C513   C     0.20094   0.25712   0.52626   0.00000  Uiso   1.00
C514   C     0.13239   0.07622   0.97374   0.00000  Uiso   1.00
C515   C     0.20298   0.25967   0.97938   0.00000  Uiso   1.00
C516   C     0.13035   0.07366   0.52062   0.00000  Uiso   1.00
H517   H     0.19478   0.24450   0.61341   0.00000  Uiso   1.00
H518   H     0.13855   0.08883   0.88659   0.00000  Uiso   1.00
H519   H     0.21373   0.29141   0.54597   0.00000  Uiso   1.00
H520   H     0.11961   0.04193   0.95402   0.00000  Uiso   1.00
C521   C     0.18972   0.31926   0.74821   0.00000  Uiso   1.00
C522   C     0.14361   0.01408   0.75179   0.00000  Uiso   1.00
H523   H     0.23339   0.00268   0.74482   0.00000  Uiso   1.00
H524   H     0.09995   0.33065   0.75518   0.00000  Uiso   1.00
N525   N     0.31678   0.15265   0.73783   0.00000  Uiso   1.00
N526   N     0.01656   0.18068   0.76217   0.00000  Uiso   1.00
O527   O     0.12975   0.07234   0.61558   0.00000  Uiso   1.00
H528   H     0.13476   0.07618   0.64821   0.00000  Uiso   1.00
O529   O     0.20359   0.26099   0.88442   0.00000  Uiso   1.00
H530   H     0.19857   0.25716   0.85179   0.00000  Uiso   1.00
O531   O     0.22128   0.30564   0.95822   0.00000  Uiso   1.00
H532   H     0.23114   0.33285   0.98108   0.00000  Uiso   1.00
O533   O     0.11205   0.02770   0.54178   0.00000  Uiso   1.00
H534   H     0.10220   0.00048   0.51892   0.00000  Uiso   1.00
N535   N     0.00748   0.13980   0.69553   0.00000  Uiso   1.00
O536   O     0.00393   0.17142   0.66246   0.00000  Uiso   1.00
O537   O     0.01982   0.09174   0.68651   0.00000  Uiso   1.00
N538   N     0.32585   0.19353   0.80447   0.00000  Uiso   1.00
O539   O     0.32941   0.16191   0.83754   0.00000  Uiso   1.00
O540   O     0.31351   0.24159   0.81349   0.00000  Uiso   1.00
O541   O     0.46308   0.24619   0.75298   0.00000  Uiso   1.00
O542   O     0.53692   0.08714   0.74701   0.00000  Uiso   1.00
O543   O     0.55946   0.23721   0.74518   0.00000  Uiso   1.00
O544   O     0.44054   0.09613   0.75481   0.00000  Uiso   1.00
C545   C     0.51509   0.26478   0.74883   0.00000  Uiso   1.00
C546   C     0.48491   0.06855   0.75117   0.00000  Uiso   1.00
O547   O     0.45181   0.17117   0.81997   0.00000  Uiso   1.00
O548   O     0.54819   0.16216   0.68002   0.00000  Uiso   1.00
O549   O     0.54819   0.16219   0.81217   0.00000  Uiso   1.00
O550   O     0.45181   0.17115   0.68782   0.00000  Uiso   1.00
C551   C     0.50086   0.16723   0.83620   0.00000  Uiso   1.00
C552   C     0.49914   0.16611   0.66380   0.00000  Uiso   1.00
Zn553  Zn    0.43565   0.17266   0.75521   0.00000  Uiso   1.00
Zn554  Zn    0.56435   0.16067   0.74479   0.00000  Uiso   1.00
C555   C     0.47983   0.11810   0.59326   0.00000  Uiso   1.00
C556   C     0.52017   0.21524   0.90674   0.00000  Uiso   1.00
C557   C     0.49722   0.16431   0.61630   0.00000  Uiso   1.00
C558   C     0.50278   0.16902   0.88369   0.00000  Uiso   1.00
C559   C     0.51490   0.20984   0.59422   0.00000  Uiso   1.00
C560   C     0.48510   0.12349   0.90578   0.00000  Uiso   1.00
C561   C     0.51601   0.21101   0.54796   0.00000  Uiso   1.00
C562   C     0.48399   0.12232   0.95204   0.00000  Uiso   1.00
C563   C     0.49907   0.16573   0.52348   0.00000  Uiso   1.00
C564   C     0.50093   0.16760   0.97652   0.00000  Uiso   1.00
C565   C     0.48049   0.11871   0.54600   0.00000  Uiso   1.00
C566   C     0.51951   0.21463   0.95400   0.00000  Uiso   1.00
C567   C     0.53427   0.25712   0.52626   0.00000  Uiso   1.00
C568   C     0.46573   0.07622   0.97374   0.00000  Uiso   1.00
C569   C     0.53631   0.25967   0.97938   0.00000  Uiso   1.00
C570   C     0.46369   0.07366   0.52062   0.00000  Uiso   1.00
H571   H     0.52812   0.24450   0.61341   0.00000  Uiso   1.00
H572   H     0.47188   0.08883   0.88659   0.00000  Uiso   1.00
H573   H     0.54706   0.29141   0.54597   0.00000  Uiso   1.00
H574   H     0.45294   0.04193   0.95402   0.00000  Uiso   1.00
C575   C     0.52306   0.31926   0.74821   0.00000  Uiso   1.00
C576   C     0.47694   0.01408   0.75179   0.00000  Uiso   1.00
H577   H     0.56672   0.00268   0.74482   0.00000  Uiso   1.00
H578   H     0.43328   0.33065   0.75518   0.00000  Uiso   1.00
N579   N     0.65011   0.15265   0.73783   0.00000  Uiso   1.00
N580   N     0.34989   0.18068   0.76217   0.00000  Uiso   1.00
O581   O     0.46308   0.07234   0.61558   0.00000  Uiso   1.00
H582   H     0.46809   0.07618   0.64821   0.00000  Uiso   1.00
O583   O     0.53692   0.26099   0.88442   0.00000  Uiso   1.00
H584   H     0.53191   0.25716   0.85179   0.00000  Uiso   1.00
O585   O     0.55462   0.30564   0.95822   0.00000  Uiso   1.00
H586   H     0.56447   0.33285   0.98108   0.00000  Uiso   1.00
O587   O     0.44538   0.02770   0.54178   0.00000  Uiso   1.00
H588   H     0.43553   0.00048   0.51892   0.00000  Uiso   1.00
N589   N     0.34082   0.13980   0.69553   0.00000  Uiso   1.00
O590   O     0.33726   0.17142   0.66246   0.00000  Uiso   1.00
O591   O     0.35315   0.09174   0.68651   0.00000  Uiso   1.00
N592   N     0.65918   0.19353   0.80447   0.00000  Uiso   1.00
O593   O     0.66274   0.16191   0.83754   0.00000  Uiso   1.00
O594   O     0.64685   0.24159   0.81349   0.00000  Uiso   1.00
O595   O     0.79642   0.24619   0.75298   0.00000  Uiso   1.00
O596   O     0.87025   0.08714   0.74701   0.00000  Uiso   1.00
O597   O     0.89280   0.23721   0.74518   0.00000  Uiso   1.00
O598   O     0.77387   0.09613   0.75481   0.00000  Uiso   1.00
C599   C     0.84842   0.26478   0.74883   0.00000  Uiso   1.00
C600   C     0.81825   0.06855   0.75117   0.00000  Uiso   1.00
O601   O     0.78514   0.17117   0.81997   0.00000  Uiso   1.00
O602   O     0.88153   0.16216   0.68002   0.00000  Uiso   1.00
O603   O     0.88152   0.16219   0.81217   0.00000  Uiso   1.00
O604   O     0.78515   0.17115   0.68782   0.00000  Uiso   1.00
C605   C     0.83419   0.16723   0.83620   0.00000  Uiso   1.00
C606   C     0.83248   0.16611   0.66380   0.00000  Uiso   1.00
Zn607  Zn    0.76898   0.17266   0.75521   0.00000  Uiso   1.00
Zn608  Zn    0.89769   0.16067   0.74479   0.00000  Uiso   1.00
C609   C     0.81317   0.11810   0.59326   0.00000  Uiso   1.00
C610   C     0.85350   0.21524   0.90674   0.00000  Uiso   1.00
C611   C     0.83055   0.16431   0.61630   0.00000  Uiso   1.00
C612   C     0.83612   0.16902   0.88369   0.00000  Uiso   1.00
C613   C     0.84823   0.20984   0.59422   0.00000  Uiso   1.00
C614   C     0.81844   0.12349   0.90578   0.00000  Uiso   1.00
C615   C     0.84934   0.21101   0.54796   0.00000  Uiso   1.00
C616   C     0.81732   0.12232   0.95204   0.00000  Uiso   1.00
C617   C     0.83240   0.16573   0.52348   0.00000  Uiso   1.00
C618   C     0.83426   0.16760   0.97652   0.00000  Uiso   1.00
C619   C     0.81382   0.11871   0.54600   0.00000  Uiso   1.00
C620   C     0.85284   0.21463   0.95400   0.00000  Uiso   1.00
C621   C     0.86761   0.25712   0.52626   0.00000  Uiso   1.00
C622   C     0.79906   0.07622   0.97374   0.00000  Uiso   1.00
C623   C     0.86965   0.25967   0.97938   0.00000  Uiso   1.00
C624   C     0.79702   0.07366   0.52062   0.00000  Uiso   1.00
H625   H     0.86145   0.24450   0.61341   0.00000  Uiso   1.00
H626   H     0.80522   0.08883   0.88659   0.00000  Uiso   1.00
H627   H     0.88039   0.29141   0.54597   0.00000  Uiso   1.00
H628   H     0.78627   0.04193   0.95402   0.00000  Uiso   1.00
C629   C     0.85639   0.31926   0.74821   0.00000  Uiso   1.00
C630   C     0.81028   0.01408   0.75179   0.00000  Uiso   1.00
H631   H     0.90005   0.00268   0.74482   0.00000  Uiso   1.00
H632   H     0.76661   0.33065   0.75518   0.00000  Uiso   1.00
N633   N     0.98344   0.15265   0.73783   0.00000  Uiso   1.00
N634   N     0.68322   0.18068   0.76217   0.00000  Uiso   1.00
O635   O     0.79641   0.07234   0.61558   0.00000  Uiso   1.00
H636   H     0.80142   0.07618   0.64821   0.00000  Uiso   1.00
O637   O     0.87025   0.26099   0.88442   0.00000  Uiso   1.00
H638   H     0.86524   0.25716   0.85179   0.00000  Uiso   1.00
O639   O     0.88795   0.30564   0.95822   0.00000  Uiso   1.00
H640   H     0.89780   0.33285   0.98108   0.00000  Uiso   1.00
O641   O     0.77872   0.02770   0.54178   0.00000  Uiso   1.00
H642   H     0.76886   0.00048   0.51892   0.00000  Uiso   1.00
N643   N     0.67415   0.13980   0.69553   0.00000  Uiso   1.00
O644   O     0.67059   0.17142   0.66246   0.00000  Uiso   1.00
O645   O     0.68649   0.09174   0.68651   0.00000  Uiso   1.00
N646   N     0.99252   0.19353   0.80447   0.00000  Uiso   1.00
O647   O     0.99607   0.16191   0.83754   0.00000  Uiso   1.00
O648   O     0.98018   0.24159   0.81349   0.00000  Uiso   1.00
O649   O     0.12975   0.57952   0.75298   0.00000  Uiso   1.00
O650   O     0.20358   0.42048   0.74701   0.00000  Uiso   1.00
O651   O     0.22613   0.57054   0.74518   0.00000  Uiso   1.00
O652   O     0.10720   0.42946   0.75481   0.00000  Uiso   1.00
C653   C     0.18175   0.59811   0.74883   0.00000  Uiso   1.00
C654   C     0.15158   0.40189   0.75117   0.00000  Uiso   1.00
O655   O     0.11847   0.50450   0.81997   0.00000  Uiso   1.00
O656   O     0.21486   0.49550   0.68002   0.00000  Uiso   1.00
O657   O     0.21485   0.49552   0.81217   0.00000  Uiso   1.00
O658   O     0.11848   0.50448   0.68782   0.00000  Uiso   1.00
C659   C     0.16752   0.50056   0.83620   0.00000  Uiso   1.00
C660   C     0.16581   0.49944   0.66380   0.00000  Uiso   1.00
Zn661  Zn    0.10231   0.50600   0.75521   0.00000  Uiso   1.00
Zn662  Zn    0.23102   0.49400   0.74479   0.00000  Uiso   1.00
C663   C     0.14650   0.45143   0.59326   0.00000  Uiso   1.00
C664   C     0.18683   0.54857   0.90674   0.00000  Uiso   1.00
C665   C     0.16388   0.49764   0.61630   0.00000  Uiso   1.00
C666   C     0.16945   0.50236   0.88369   0.00000  Uiso   1.00
C667   C     0.18156   0.54317   0.59422   0.00000  Uiso   1.00
C668   C     0.15177   0.45683   0.90578   0.00000  Uiso   1.00
C669   C     0.18268   0.54434   0.54796   0.00000  Uiso   1.00
C670   C     0.15066   0.45566   0.95204   0.00000  Uiso   1.00
C671   C     0.16573   0.49907   0.52348   0.00000  Uiso   1.00
C672   C     0.16760   0.50093   0.97652   0.00000  Uiso   1.00
C673   C     0.14715   0.45204   0.54600   0.00000  Uiso   1.00
C674   C     0.18618   0.54796   0.95400   0.00000  Uiso   1.00
C675   C     0.20094   0.59045   0.52626   0.00000  Uiso   1.00
C676   C     0.13239   0.40955   0.97374   0.00000  Uiso   1.00
C677   C     0.20298   0.59300   0.97938   0.00000  Uiso   1.00
C678   C     0.13035   0.40700   0.52062   0.00000  Uiso   1.00
H679   H     0.19478   0.57783   0.61341   0.00000  Uiso   1.00
H680   H     0.13855   0.42217   0.88659   0.00000  Uiso   1.00
H681   H     0.21373   0.62474   0.54597   0.00000  Uiso   1.00
H682   H     0.11961   0.37526   0.95402   0.00000  Uiso   1.00
C683   C     0.18972   0.65259   0.74821   0.00000  Uiso   1.00
C684   C     0.14361   0.34741   0.75179   0.00000  Uiso   1.00
H685   H     0.23339   0.33602   0.74482   0.00000  Uiso   1.00
H686   H     0.09995   0.66398   0.75518   0.00000  Uiso   1.00
N687   N     0.31678   0.48598   0.73783   0.00000  Uiso   1.00
N688   N     0.01656   0.51402   0.76217   0.00000  Uiso   1.00
O689   O     0.12975   0.40567   0.61558   0.00000  Uiso   1.00
H690   H     0.13476   0.40951   0.64821   0.00000  Uiso   1.00
O691   O     0.20359   0.59433   0.88442   0.00000  Uiso   1.00
H692   H     0.19857   0.59049   0.85179   0.00000  Uiso   1.00
O693   O     0.22128   0.63897   0.95822   0.00000  Uiso   1.00
H694   H     0.23114   0.66619   0.98108   0.00000  Uiso   1.00
O695   O     0.11205   0.36103   0.54178   0.00000  Uiso   1.00
H696   H     0.10220   0.33381   0.51892   0.00000  Uiso   1.00
N697   N     0.00748   0.47314   0.69553   0.00000  Uiso   1.00
O698   O     0.00393   0.50475   0.66246   0.00000  Uiso   1.00
O699   O     0.01982   0.42508   0.68651   0.00000  Uiso   1.00
N700   N     0.32585   0.52686   0.80447   0.00000  Uiso   1.00
O701   O     0.32941   0.49525   0.83754   0.00000  Uiso   1.00
O702   O     0.31351   0.57492   0.81349   0.00000  Uiso   1.00
O703   O     0.46308   0.57952   0.75298   0.00000  Uiso   1.00
O704   O     0.53692   0.42048   0.74701   0.00000  Uiso   1.00
O705   O     0.55946   0.57054   0.74518   0.00000  Uiso   1.00
O706   O     0.44054   0.42946   0.75481   0.00000  Uiso   1.00
C707   C     0.51509   0.59811   0.74883   0.00000  Uiso   1.00
C708   C     0.48491   0.40189   0.75117   0.00000  Uiso   1.00
O709   O     0.45181   0.50450   0.81997   0.00000  Uiso   1.00
O710   O     0.54819   0.49550   0.68002   0.00000  Uiso   1.00
O711   O     0.54819   0.49552   0.81217   0.00000  Uiso   1.00
O712   O     0.45181   0.50448   0.68782   0.00000  Uiso   1.00
C713   C     0.50086   0.50056   0.83620   0.00000  Uiso   1.00
C714   C     0.49914   0.49944   0.66380   0.00000  Uiso   1.00
Zn715  Zn    0.43565   0.50600   0.75521   0.00000  Uiso   1.00
Zn716  Zn    0.56435   0.49400   0.74479   0.00000  Uiso   1.00
C717   C     0.47983   0.45143   0.59326   0.00000  Uiso   1.00
C718   C     0.52017   0.54857   0.90674   0.00000  Uiso   1.00
C719   C     0.49722   0.49764   0.61630   0.00000  Uiso   1.00
C720   C     0.50278   0.50236   0.88369   0.00000  Uiso   1.00
C721   C     0.51490   0.54317   0.59422   0.00000  Uiso   1.00
C722   C     0.48510   0.45683   0.90578   0.00000  Uiso   1.00
C723   C     0.51601   0.54434   0.54796   0.00000  Uiso   1.00
C724   C     0.48399   0.45566   0.95204   0.00000  Uiso   1.00
C725   C     0.49907   0.49907   0.52348   0.00000  Uiso   1.00
C726   C     0.50093   0.50093   0.97652   0.00000  Uiso   1.00
C727   C     0.48049   0.45204   0.54600   0.00000  Uiso   1.00
C728   C     0.51951   0.54796   0.95400   0.00000  Uiso   1.00
C729   C     0.53427   0.59045   0.52626   0.00000  Uiso   1.00
C730   C     0.46573   0.40955   0.97374   0.00000  Uiso   1.00
C731   C     0.53631   0.59300   0.97938   0.00000  Uiso   1.00
C732   C     0.46369   0.40700   0.52062   0.00000  Uiso   1.00
H733   H     0.52812   0.57783   0.61341   0.00000  Uiso   1.00
H734   H     0.47188   0.42217   0.88659   0.00000  Uiso   1.00
H735   H     0.54706   0.62474   0.54597   0.00000  Uiso   1.00
H736   H     0.45294   0.37526   0.95402   0.00000  Uiso   1.00
C737   C     0.52306   0.65259   0.74821   0.00000  Uiso   1.00
C738   C     0.47694   0.34741   0.75179   0.00000  Uiso   1.00
H739   H     0.56672   0.33602   0.74482   0.00000  Uiso   1.00
H740   H     0.43328   0.66398   0.75518   0.00000  Uiso   1.00
N741   N     0.65011   0.48598   0.73783   0.00000  Uiso   1.00
N742   N     0.34989   0.51402   0.76217   0.00000  Uiso   1.00
O743   O     0.46308   0.40567   0.61558   0.00000  Uiso   1.00
H744   H     0.46809   0.40951   0.64821   0.00000  Uiso   1.00
O745   O     0.53692   0.59433   0.88442   0.00000  Uiso   1.00
H746   H     0.53191   0.59049   0.85179   0.00000  Uiso   1.00
O747   O     0.55462   0.63897   0.95822   0.00000  Uiso   1.00
H748   H     0.56447   0.66619   0.98108   0.00000  Uiso   1.00
O749   O     0.44538   0.36103   0.54178   0.00000  Uiso   1.00
H750   H     0.43553   0.33381   0.51892   0.00000  Uiso   1.00
N751   N     0.34082   0.47314   0.69553   0.00000  Uiso   1.00
O752   O     0.33726   0.50475   0.66246   0.00000  Uiso   1.00
O753   O     0.35315   0.42508   0.68651   0.00000  Uiso   1.00
N754   N     0.65918   0.52686   0.80447   0.00000  Uiso   1.00
O755   O     0.66274   0.49525   0.83754   0.00000  Uiso   1.00
O756   O     0.64685   0.57492   0.81349   0.00000  Uiso   1.00
O757   O     0.79642   0.57952   0.75298   0.00000  Uiso   1.00
O758   O     0.87025   0.42048   0.74701   0.00000  Uiso   1.00
O759   O     0.89280   0.57054   0.74518   0.00000  Uiso   1.00
O760   O     0.77387   0.42946   0.75481   0.00000  Uiso   1.00
C761   C     0.84842   0.59811   0.74883   0.00000  Uiso   1.00
C762   C     0.81825   0.40189   0.75117   0.00000  Uiso   1.00
O763   O     0.78514   0.50450   0.81997   0.00000  Uiso   1.00
O764   O     0.88153   0.49550   0.68002   0.00000  Uiso   1.00
O765   O     0.88152   0.49552   0.81217   0.00000  Uiso   1.00
O766   O     0.78515   0.50448   0.68782   0.00000  Uiso   1.00
C767   C     0.83419   0.50056   0.83620   0.00000  Uiso   1.00
C768   C     0.83248   0.49944   0.66380   0.00000  Uiso   1.00
Zn769  Zn    0.76898   0.50600   0.75521   0.00000  Uiso   1.00
Zn770  Zn    0.89769   0.49400   0.74479   0.00000  Uiso   1.00
C771   C     0.81317   0.45143   0.59326   0.00000  Uiso   1.00
C772   C     0.85350   0.54857   0.90674   0.00000  Uiso   1.00
C773   C     0.83055   0.49764   0.61630   0.00000  Uiso   1.00
C774   C     0.83612   0.50236   0.88369   0.00000  Uiso   1.00
C775   C     0.84823   0.54317   0.59422   0.00000  Uiso   1.00
C776   C     0.81844   0.45683   0.90578   0.00000  Uiso   1.00
C777   C     0.84934   0.54434   0.54796   0.00000  Uiso   1.00
C778   C     0.81732   0.45566   0.95204   0.00000  Uiso   1.00
C779   C     0.83240   0.49907   0.52348   0.00000  Uiso   1.00
C780   C     0.83426   0.50093   0.97652   0.00000  Uiso   1.00
C781   C     0.81382   0.45204   0.54600   0.00000  Uiso   1.00
C782   C     0.85284   0.54796   0.95400   0.00000  Uiso   1.00
C783   C     0.86761   0.59045   0.52626   0.00000  Uiso   1.00
C784   C     0.79906   0.40955   0.97374   0.00000  Uiso   1.00
C785   C     0.86965   0.59300   0.97938   0.00000  Uiso   1.00
C786   C     0.79702   0.40700   0.52062   0.00000  Uiso   1.00
H787   H     0.86145   0.57783   0.61341   0.00000  Uiso   1.00
H788   H     0.80522   0.42217   0.88659   0.00000  Uiso   1.00
H789   H     0.88039   0.62474   0.54597   0.00000  Uiso   1.00
H790   H     0.78627   0.37526   0.95402   0.00000  Uiso   1.00
C791   C     0.85639   0.65259   0.74821   0.00000  Uiso   1.00
C792   C     0.81028   0.34741   0.75179   0.00000  Uiso   1.00
H793   H     0.90005   0.33602   0.74482   0.00000  Uiso   1.00
H794   H     0.76661   0.66398   0.75518   0.00000  Uiso   1.00
N795   N     0.98344   0.48598   0.73783   0.00000  Uiso   1.00
N796   N     0.68322   0.51402   0.76217   0.00000  Uiso   1.00
O797   O     0.79641   0.40567   0.61558   0.00000  Uiso   1.00
H798   H     0.80142   0.40951   0.64821   0.00000  Uiso   1.00
O799   O     0.87025   0.59433   0.88442   0.00000  Uiso   1.00
H800   H     0.86524   0.59049   0.85179   0.00000  Uiso   1.00
O801   O     0.88795   0.63897   0.95822   0.00000  Uiso   1.00
H802   H     0.89780   0.66619   0.98108   0.00000  Uiso   1.00
O803   O     0.77872   0.36103   0.54178   0.00000  Uiso   1.00
H804   H     0.76886   0.33381   0.51892   0.00000  Uiso   1.00
N805   N     0.67415   0.47314   0.69553   0.00000  Uiso   1.00
O806   O     0.67059   0.50475   0.66246   0.00000  Uiso   1.00
O807   O     0.68649   0.42508   0.68651   0.00000  Uiso   1.00
N808   N     0.99252   0.52686   0.80447   0.00000  Uiso   1.00
O809   O     0.99607   0.49525   0.83754   0.00000  Uiso   1.00
O810   O     0.98018   0.57492   0.81349   0.00000  Uiso   1.00
O811   O     0.12975   0.91286   0.75298   0.00000  Uiso   1.00
O812   O     0.20358   0.75381   0.74701   0.00000  Uiso   1.00
O813   O     0.22613   0.90387   0.74518   0.00000  Uiso   1.00
O814   O     0.10720   0.76279   0.75481   0.00000  Uiso   1.00
C815   C     0.18175   0.93145   0.74883   0.00000  Uiso   1.00
C816   C     0.15158   0.73522   0.75117   0.00000  Uiso   1.00
O817   O     0.11847   0.83784   0.81997   0.00000  Uiso   1.00
O818   O     0.21486   0.82883   0.68002   0.00000  Uiso   1.00
O819   O     0.21485   0.82885   0.81217   0.00000  Uiso   1.00
O820   O     0.11848   0.83781   0.68782   0.00000  Uiso   1.00
C821   C     0.16752   0.83389   0.83620   0.00000  Uiso   1.00
C822   C     0.16581   0.83277   0.66380   0.00000  Uiso   1.00
Zn823  Zn    0.10231   0.83933   0.75521   0.00000  Uiso   1.00
Zn824  Zn    0.23102   0.82734   0.74479   0.00000  Uiso   1.00
C825   C     0.14650   0.78476   0.59326   0.00000  Uiso   1.00
C826   C     0.18683   0.88190   0.90674   0.00000  Uiso   1.00
C827   C     0.16388   0.83098   0.61630   0.00000  Uiso   1.00
C828   C     0.16945   0.83569   0.88369   0.00000  Uiso   1.00
C829   C     0.18156   0.87651   0.59422   0.00000  Uiso   1.00
C830   C     0.15177   0.79016   0.90578   0.00000  Uiso   1.00
C831   C     0.18268   0.87768   0.54796   0.00000  Uiso   1.00
C832   C     0.15066   0.78899   0.95204   0.00000  Uiso   1.00
C833   C     0.16573   0.83240   0.52348   0.00000  Uiso   1.00
C834   C     0.16760   0.83427   0.97652   0.00000  Uiso   1.00
C835   C     0.14715   0.78537   0.54600   0.00000  Uiso   1.00
C836   C     0.18618   0.88129   0.95400   0.00000  Uiso   1.00
C837   C     0.20094   0.92378   0.52626   0.00000  Uiso   1.00
C838   C     0.13239   0.74288   0.97374   0.00000  Uiso   1.00
C839   C     0.20298   0.92634   0.97938   0.00000  Uiso   1.00
C840   C     0.13035   0.74033   0.52062   0.00000  Uiso   1.00
H841   H     0.19478   0.91117   0.61341   0.00000  Uiso   1.00
H842   H     0.13855   0.75550   0.88659   0.00000  Uiso   1.00
H843   H     0.21373   0.95807   0.54597   0.00000  Uiso   1.00
H844   H     0.11961   0.70859   0.95402   0.00000  Uiso   1.00
C845   C     0.18972   0.98592   0.74821   0.00000  Uiso   1.00
C846   C     0.14361   0.68074   0.75179   0.00000  Uiso   1.00
H847   H     0.23339   0.66935   0.74482   0.00000  Uiso   1.00
H848   H     0.09995   0.99732   0.75518   0.00000  Uiso   1.00
N849   N     0.31678   0.81932   0.73783   0.00000  Uiso   1.00
N850   N     0.01656   0.84735   0.76217   0.00000  Uiso   1.00
O851   O     0.12975   0.73901   0.61558   0.00000  Uiso   1.00
H852   H     0.13476   0.74284   0.64821   0.00000  Uiso   1.00
O853   O     0.20359   0.92766   0.88442   0.00000  Uiso   1.00
H854   H     0.19857   0.92382   0.85179   0.00000  Uiso   1.00
O855   O     0.22128   0.97230   0.95822   0.00000  Uiso   1.00
H856   H     0.23114   0.99952   0.98108   0.00000  Uiso   1.00
O857   O     0.11205   0.69436   0.54178   0.00000  Uiso   1.00
H858   H     0.10220   0.66715   0.51892   0.00000  Uiso   1.00
N859   N     0.00748   0.80647   0.69553   0.00000  Uiso   1.00
O860   O     0.00393   0.83809   0.66246   0.00000  Uiso   1.00
O861   O     0.01982   0.75841   0.68651   0.00000  Uiso   1.00
N862   N     0.32585   0.86020   0.80447   0.00000  Uiso   1.00
O863   O     0.32941   0.82858   0.83754   0.00000  Uiso   1.00
O864   O     0.31351   0.90826   0.81349   0.00000  Uiso   1.00
O865   O     0.46308   0.91286   0.75298   0.00000  Uiso   1.00
O866   O     0.53692   0.75381   0.74701   0.00000  Uiso   1.00
O867   O     0.55946   0.90387   0.74518   0.00000  Uiso   1.00
O868   O     0.44054   0.76279   0.75481   0.00000  Uiso   1.00
C869   C     0.51509   0.93145   0.74883   0.00000  Uiso   1.00
C870   C     0.48491   0.73522   0.75117   0.00000  Uiso   1.00
O871   O     0.45181   0.83784   0.81997   0.00000  Uiso   1.00
O872   O     0.54819   0.82883   0.68002   0.00000  Uiso   1.00
O873   O     0.54819   0.82885   0.81217   0.00000  Uiso   1.00
O874   O     0.45181   0.83781   0.68782   0.00000  Uiso   1.00
C875   C     0.50086   0.83389   0.83620   0.00000  Uiso   1.00
C876   C     0.49914   0.83277   0.66380   0.00000  Uiso   1.00
Zn877  Zn    0.43565   0.83933   0.75521   0.00000  Uiso   1.00
Zn878  Zn    0.56435   0.82734   0.74479   0.00000  Uiso   1.00
C879   C     0.47983   0.78476   0.59326   0.00000  Uiso   1.00
C880   C     0.52017   0.88190   0.90674   0.00000  Uiso   1.00
C881   C     0.49722   0.83098   0.61630   0.00000  Uiso   1.00
C882   C     0.50278   0.83569   0.88369   0.00000  Uiso   1.00
C883   C     0.51490   0.87651   0.59422   0.00000  Uiso   1.00
C884   C     0.48510   0.79016   0.90578   0.00000  Uiso   1.00
C885   C     0.51601   0.87768   0.54796   0.00000  Uiso   1.00
C886   C     0.48399   0.78899   0.95204   0.00000  Uiso   1.00
C887   C     0.49907   0.83240   0.52348   0.00000  Uiso   1.00
C888   C     0.50093   0.83427   0.97652   0.00000  Uiso   1.00
C889   C     0.48049   0.78537   0.54600   0.00000  Uiso   1.00
C890   C     0.51951   0.88129   0.95400   0.00000  Uiso   1.00
C891   C     0.53427   0.92378   0.52626   0.00000  Uiso   1.00
C892   C     0.46573   0.74288   0.97374   0.00000  Uiso   1.00
C893   C     0.53631   0.92634   0.97938   0.00000  Uiso   1.00
C894   C     0.46369   0.74033   0.52062   0.00000  Uiso   1.00
H895   H     0.52812   0.91117   0.61341   0.00000  Uiso   1.00
H896   H     0.47188   0.75550   0.88659   0.00000  Uiso   1.00
H897   H     0.54706   0.95807   0.54597   0.00000  Uiso   1.00
H898   H     0.45294   0.70859   0.95402   0.00000  Uiso   1.00
C899   C     0.52306   0.98592   0.74821   0.00000  Uiso   1.00
C900   C     0.47694   0.68074   0.75179   0.00000  Uiso   1.00
H901   H     0.56672   0.66935   0.74482   0.00000  Uiso   1.00
H902   H     0.43328   0.99732   0.75518   0.00000  Uiso   1.00
N903   N     0.65011   0.81932   0.73783   0.00000  Uiso   1.00
N904   N     0.34989   0.84735   0.76217   0.00000  Uiso   1.00
O905   O     0.46308   0.73901   0.61558   0.00000  Uiso   1.00
H906   H     0.46809   0.74284   0.64821   0.00000  Uiso   1.00
O907   O     0.53692   0.92766   0.88442   0.00000  Uiso   1.00
H908   H     0.53191   0.92382   0.85179   0.00000  Uiso   1.00
O909   O     0.55462   0.97230   0.95822   0.00000  Uiso   1.00
H910   H     0.56447   0.99952   0.98108   0.00000  Uiso   1.00
O911   O     0.44538   0.69436   0.54178   0.00000  Uiso   1.00
H912   H     0.43553   0.66715   0.51892   0.00000  Uiso   1.00
N913   N     0.34082   0.80647   0.69553   0.00000  Uiso   1.00
O914   O     0.33726   0.83809   0.66246   0.00000  Uiso   1.00
O915   O     0.35315   0.75841   0.68651   0.00000  Uiso   1.00
N916   N     0.65918   0.86020   0.80447   0.00000  Uiso   1.00
O917   O     0.66274   0.82858   0.83754   0.00000  Uiso   1.00
O918   O     0.64685   0.90826   0.81349   0.00000  Uiso   1.00
O919   O     0.79642   0.91286   0.75298   0.00000  Uiso   1.00
O920   O     0.87025   0.75381   0.74701   0.00000  Uiso   1.00
O921   O     0.89280   0.90387   0.74518   0.00000  Uiso   1.00
O922   O     0.77387   0.76279   0.75481   0.00000  Uiso   1.00
C923   C     0.84842   0.93145   0.74883   0.00000  Uiso   1.00
C924   C     0.81825   0.73522   0.75117   0.00000  Uiso   1.00
O925   O     0.78514   0.83784   0.81997   0.00000  Uiso   1.00
O926   O     0.88153   0.82883   0.68002   0.00000  Uiso   1.00
O927   O     0.88152   0.82885   0.81217   0.00000  Uiso   1.00
O928   O     0.78515   0.83781   0.68782   0.00000  Uiso   1.00
C929   C     0.83419   0.83389   0.83620   0.00000  Uiso   1.00
C930   C     0.83248   0.83277   0.66380   0.00000  Uiso   1.00
Zn931  Zn    0.76898   0.83933   0.75521   0.00000  Uiso   1.00
Zn932  Zn    0.89769   0.82734   0.74479   0.00000  Uiso   1.00
C933   C     0.81317   0.78476   0.59326   0.00000  Uiso   1.00
C934   C     0.85350   0.88190   0.90674   0.00000  Uiso   1.00
C935   C     0.83055   0.83098   0.61630   0.00000  Uiso   1.00
C936   C     0.83612   0.83569   0.88369   0.00000  Uiso   1.00
C937   C     0.84823   0.87651   0.59422   0.00000  Uiso   1.00
C938   C     0.81844   0.79016   0.90578   0.00000  Uiso   1.00
C939   C     0.84934   0.87768   0.54796   0.00000  Uiso   1.00
C940   C     0.81732   0.78899   0.95204   0.00000  Uiso   1.00
C941   C     0.83240   0.83240   0.52348   0.00000  Uiso   1.00
C942   C     0.83426   0.83427   0.97652   0.00000  Uiso   1.00
C943   C     0.81382   0.78537   0.54600   0.00000  Uiso   1.00
C944   C     0.85284   0.88129   0.95400   0.00000  Uiso   1.00
C945   C     0.86761   0.92378   0.52626   0.00000  Uiso   1.00
C946   C     0.79906   0.74288   0.97374   0.00000  Uiso   1.00
C947   C     0.86965   0.92634   0.97938   0.00000  Uiso   1.00
C948   C     0.79702   0.74033   0.52062   0.00000  Uiso   1.00
H949   H     0.86145   0.91117   0.61341   0.00000  Uiso   1.00
H950   H     0.80522   0.75550   0.88659   0.00000  Uiso   1.00
H951   H     0.88039   0.95807   0.54597   0.00000  Uiso   1.00
H952   H     0.78627   0.70859   0.95402   0.00000  Uiso   1.00
C953   C     0.85639   0.98592   0.74821   0.00000  Uiso   1.00
C954   C     0.81028   0.68074   0.75179   0.00000  Uiso   1.00
H955   H     0.90005   0.66935   0.74482   0.00000  Uiso   1.00
H956   H     0.76661   0.99732   0.75518   0.00000  Uiso   1.00
N957   N     0.98344   0.81932   0.73783   0.00000  Uiso   1.00
N958   N     0.68322   0.84735   0.76217   0.00000  Uiso   1.00
O959   O     0.79641   0.73901   0.61558   0.00000  Uiso   1.00
H960   H     0.80142   0.74284   0.64821   0.00000  Uiso   1.00
O961   O     0.87025   0.92766   0.88442   0.00000  Uiso   1.00
H962   H     0.86524   0.92382   0.85179   0.00000  Uiso   1.00
O963   O     0.88795   0.97230   0.95822   0.00000  Uiso   1.00
H964   H     0.89780   0.99952   0.98108   0.00000  Uiso   1.00
O965   O     0.77872   0.69436   0.54178   0.00000  Uiso   1.00
H966   H     0.76886   0.66715   0.51892   0.00000  Uiso   1.00
N967   N     0.67415   0.80647   0.69553   0.00000  Uiso   1.00
O968   O     0.67059   0.83809   0.66246   0.00000  Uiso   1.00
O969   O     0.68649   0.75841   0.68651   0.00000  Uiso   1.00
N970   N     0.99252   0.86020   0.80447   0.00000  Uiso   1.00
O971   O     0.99607   0.82858   0.83754   0.00000  Uiso   1.00
O972   O     0.98018   0.90826   0.81349   0.00000  Uiso   1.00
loop_
_geom_bond_atom_site_label_1
_geom_bond_atom_site_label_2
_geom_bond_distance
_geom_bond_site_symmetry_2
_ccdc_geom_bond_type
O1     C5      1.284   .     A
O1     Zn13    1.959   .     S
O2     C6      1.284   .     A
O2     Zn14    1.959   .     S
O3     Zn14    1.973   .     S
O3     C5      1.290   .     A
O4     C6      1.290   .     A
O4     Zn13    1.973   .     S
C5     C35     1.400   .     S
C6     C36     1.400   .     S
O7     C11     1.289   .     A
O7     Zn13    1.992   .     S
O8     C12     1.289   .     A
O8     Zn14    1.992   .     S
O9     Zn14    2.015   .     S
O9     C11     1.290   .     A
O10    C12     1.290   .     A
O10    Zn13    2.015   .     S
C11    C18     1.417   .     S
C12    C17     1.417   .     S
Zn13   N40     2.032   .     S
Zn14   N39     2.032   .     S
C15    C25     1.406   .     A
C15    O41     1.387   .     S
C15    C17     1.409   .     A
C16    O43     1.387   .     S
C16    C26     1.406   .     A
C16    C18     1.409   .     A
C17    C19     1.383   .     A
C18    C20     1.383   .     A
C19    C21     1.376   .     A
C19    H31     1.087   .     S
C20    C22     1.376   .     A
C20    H32     1.087   .     S
C21    C27     1.393   .     A
C21    C23     1.409   .     A
C22    C28     1.393   .     A
C22    C24     1.409   .     A
C23    C25     1.426   .     A
C23    C510    1.397   1_554 S
C24    C26     1.426   .     A
C24    C509    1.397   .     S
C25    C30     1.417   .     A
C26    C29     1.417   .     A
C27    H33     1.085   .     S
C27    C515    1.396   1_554 S
C28    H34     1.085   .     S
C28    C516    1.396   .     S
C29    O45     1.383   .     S
C29    C513    1.396   .     S
C30    O47     1.383   .     S
C30    C514    1.396   1_554 S
C35    C198    1.332   .     S
C35    H199    1.088   .     S
C36    C359    1.332   1_545 S
C36    H362    1.088   1_545 S
H37    C359    1.088   1_545 S
H38    C198    1.088   .     S
N39    N94     1.279   .     S
N39    N103    1.384   .     S
N40    N147    1.279   1_455 S
N40    N160    1.384   1_455 S
O41    H42     0.988   .     S
O43    H44     0.988   .     S
O45    H46     0.992   .     S
O47    H48     0.992   .     S
N49    O51     1.300   .     A
N49    O50     1.301   .     A
N49    N147    1.384   1_455 S
N52    O54     1.300   .     A
N52    O53     1.301   .     A
N52    N94     1.384   .     S
O55    C59     1.284   .     A
O55    Zn67    1.959   .     S
O56    C60     1.284   .     A
O56    Zn68    1.959   .     S
O57    Zn68    1.973   .     S
O57    C59     1.290   .     A
O58    C60     1.290   .     A
O58    Zn67    1.973   .     S
C59    C89     1.400   .     S
C60    C90     1.400   .     S
O61    C65     1.289   .     A
O61    Zn67    1.992   .     S
O62    C66     1.289   .     A
O62    Zn68    1.992   .     S
O63    Zn68    2.015   .     S
O63    C65     1.290   .     A
O64    C66     1.290   .     A
O64    Zn67    2.015   .     S
C65    C72     1.417   .     S
C66    C71     1.417   .     S
Zn67   N94     2.032   .     S
Zn68   N93     2.032   .     S
C69    C79     1.406   .     A
C69    O95     1.387   .     S
C69    C71     1.409   .     A
C70    O97     1.387   .     S
C70    C80     1.406   .     A
C70    C72     1.409   .     A
C71    C73     1.383   .     A
C72    C74     1.383   .     A
C73    C75     1.376   .     A
C73    H85     1.087   .     S
C74    C76     1.376   .     A
C74    H86     1.087   .     S
C75    C81     1.393   .     A
C75    C77     1.409   .     A
C76    C82     1.393   .     A
C76    C78     1.409   .     A
C77    C79     1.426   .     A
C77    C564    1.397   1_554 S
C78    C80     1.426   .     A
C78    C563    1.397   .     S
C79    C84     1.417   .     A
C80    C83     1.417   .     A
C81    H87     1.085   .     S
C81    C569    1.396   1_554 S
C82    H88     1.085   .     S
C82    C570    1.396   .     S
C83    O99     1.383   .     S
C83    C567    1.396   .     S
C84    O101    1.383   .     S
C84    C568    1.396   1_554 S
C89    C252    1.332   .     S
C89    H253    1.088   .     S
C90    C413    1.332   1_545 S
C90    H416    1.088   1_545 S
H91    C413    1.088   1_545 S
H92    C252    1.088   .     S
N93    N148    1.279   .     S
N93    N157    1.384   .     S
O95    H96     0.988   .     S
O97    H98     0.988   .     S
O99    H100    0.992   .     S
O101   H102    0.992   .     S
N103   O105    1.300   .     A
N103   O104    1.301   .     A
N106   O108    1.300   .     A
N106   O107    1.301   .     A
N106   N148    1.384   .     S
O109   C113    1.284   .     A
O109   Zn121   1.959   .     S
O110   C114    1.284   .     A
O110   Zn122   1.959   .     S
O111   Zn122   1.973   .     S
O111   C113    1.290   .     A
O112   C114    1.290   .     A
O112   Zn121   1.973   .     S
C113   C143    1.400   .     S
C114   C144    1.400   .     S
O115   C119    1.289   .     A
O115   Zn121   1.992   .     S
O116   C120    1.289   .     A
O116   Zn122   1.992   .     S
O117   Zn122   2.015   .     S
O117   C119    1.290   .     A
O118   C120    1.290   .     A
O118   Zn121   2.015   .     S
C119   C126    1.417   .     S
C120   C125    1.417   .     S
Zn121  N148    2.032   .     S
Zn122  N147    2.032   .     S
C123   C133    1.406   .     A
C123   O149    1.387   .     S
C123   C125    1.409   .     A
C124   O151    1.387   .     S
C124   C134    1.406   .     A
C124   C126    1.409   .     A
C125   C127    1.383   .     A
C126   C128    1.383   .     A
C127   C129    1.376   .     A
C127   H139    1.087   .     S
C128   C130    1.376   .     A
C128   H140    1.087   .     S
C129   C135    1.393   .     A
C129   C131    1.409   .     A
C130   C136    1.393   .     A
C130   C132    1.409   .     A
C131   C133    1.426   .     A
C131   C618    1.397   1_554 S
C132   C134    1.426   .     A
C132   C617    1.397   .     S
C133   C138    1.417   .     A
C134   C137    1.417   .     A
C135   H141    1.085   .     S
C135   C623    1.396   1_554 S
C136   H142    1.085   .     S
C136   C624    1.396   .     S
C137   O153    1.383   .     S
C137   C621    1.396   .     S
C138   O155    1.383   .     S
C138   C622    1.396   1_554 S
C143   C306    1.332   .     S
C143   H307    1.088   .     S
C144   C467    1.332   1_545 S
C144   H470    1.088   1_545 S
H145   C467    1.088   1_545 S
H146   C306    1.088   .     S
N147   N40     1.279   1_655 S
N147   N49     1.384   1_655 S
O149   H150    0.988   .     S
O151   H152    0.988   .     S
O153   H154    0.992   .     S
O155   H156    0.992   .     S
N157   O159    1.300   .     A
N157   O158    1.301   .     A
N160   O162    1.300   .     A
N160   O161    1.301   .     A
N160   N40     1.384   1_655 S
O163   C167    1.284   .     A
O163   Zn175   1.959   .     S
O164   C168    1.284   .     A
O164   Zn176   1.959   .     S
O165   Zn176   1.973   .     S
O165   C167    1.290   .     A
O166   C168    1.290   .     A
O166   Zn175   1.973   .     S
C167   C197    1.400   .     S
C168   C198    1.400   .     S
O169   C173    1.289   .     A
O169   Zn175   1.992   .     S
O170   C174    1.289   .     A
O170   Zn176   1.992   .     S
O171   Zn176   2.015   .     S
O171   C173    1.290   .     A
O172   C174    1.290   .     A
O172   Zn175   2.015   .     S
C173   C180    1.417   .     S
C174   C179    1.417   .     S
Zn175  N202    2.032   .     S
Zn176  N201    2.032   .     S
C177   C187    1.406   .     A
C177   O203    1.387   .     S
C177   C179    1.409   .     A
C178   O205    1.387   .     S
C178   C188    1.406   .     A
C178   C180    1.409   .     A
C179   C181    1.383   .     A
C180   C182    1.383   .     A
C181   C183    1.376   .     A
C181   H193    1.087   .     S
C182   C184    1.376   .     A
C182   H194    1.087   .     S
C183   C189    1.393   .     A
C183   C185    1.409   .     A
C184   C190    1.393   .     A
C184   C186    1.409   .     A
C185   C187    1.426   .     A
C185   C672    1.397   1_554 S
C186   C188    1.426   .     A
C186   C671    1.397   .     S
C187   C192    1.417   .     A
C188   C191    1.417   .     A
C189   H195    1.085   .     S
C189   C677    1.396   1_554 S
C190   H196    1.085   .     S
C190   C678    1.396   .     S
C191   O207    1.383   .     S
C191   C675    1.396   .     S
C192   O209    1.383   .     S
C192   C676    1.396   1_554 S
C197   C360    1.332   .     S
C197   H361    1.088   .     S
H200   C360    1.088   .     S
N201   N256    1.279   .     S
N201   N265    1.384   .     S
N202   N309    1.279   1_455 S
N202   N322    1.384   1_455 S
O203   H204    0.988   .     S
O205   H206    0.988   .     S
O207   H208    0.992   .     S
O209   H210    0.992   .     S
N211   O213    1.300   .     A
N211   O212    1.301   .     A
N211   N309    1.384   1_455 S
N214   O216    1.300   .     A
N214   O215    1.301   .     A
N214   N256    1.384   .     S
O217   C221    1.284   .     A
O217   Zn229   1.959   .     S
O218   C222    1.284   .     A
O218   Zn230   1.959   .     S
O219   Zn230   1.973   .     S
O219   C221    1.290   .     A
O220   C222    1.290   .     A
O220   Zn229   1.973   .     S
C221   C251    1.400   .     S
C222   C252    1.400   .     S
O223   C227    1.289   .     A
O223   Zn229   1.992   .     S
O224   C228    1.289   .     A
O224   Zn230   1.992   .     S
O225   Zn230   2.015   .     S
O225   C227    1.290   .     A
O226   C228    1.290   .     A
O226   Zn229   2.015   .     S
C227   C234    1.417   .     S
C228   C233    1.417   .     S
Zn229  N256    2.032   .     S
Zn230  N255    2.032   .     S
C231   C241    1.406   .     A
C231   O257    1.387   .     S
C231   C233    1.409   .     A
C232   O259    1.387   .     S
C232   C242    1.406   .     A
C232   C234    1.409   .     A
C233   C235    1.383   .     A
C234   C236    1.383   .     A
C235   C237    1.376   .     A
C235   H247    1.087   .     S
C236   C238    1.376   .     A
C236   H248    1.087   .     S
C237   C243    1.393   .     A
C237   C239    1.409   .     A
C238   C244    1.393   .     A
C238   C240    1.409   .     A
C239   C241    1.426   .     A
C239   C726    1.397   1_554 S
C240   C242    1.426   .     A
C240   C725    1.397   .     S
C241   C246    1.417   .     A
C242   C245    1.417   .     A
C243   H249    1.085   .     S
C243   C731    1.396   1_554 S
C244   H250    1.085   .     S
C244   C732    1.396   .     S
C245   O261    1.383   .     S
C245   C729    1.396   .     S
C246   O263    1.383   .     S
C246   C730    1.396   1_554 S
C251   C414    1.332   .     S
C251   H415    1.088   .     S
H254   C414    1.088   .     S
N255   N310    1.279   .     S
N255   N319    1.384   .     S
O257   H258    0.988   .     S
O259   H260    0.988   .     S
O261   H262    0.992   .     S
O263   H264    0.992   .     S
N265   O267    1.300   .     A
N265   O266    1.301   .     A
N268   O270    1.300   .     A
N268   O269    1.301   .     A
N268   N310    1.384   .     S
O271   C275    1.284   .     A
O271   Zn283   1.959   .     S
O272   C276    1.284   .     A
O272   Zn284   1.959   .     S
O273   Zn284   1.973   .     S
O273   C275    1.290   .     A
O274   C276    1.290   .     A
O274   Zn283   1.973   .     S
C275   C305    1.400   .     S
C276   C306    1.400   .     S
O277   C281    1.289   .     A
O277   Zn283   1.992   .     S
O278   C282    1.289   .     A
O278   Zn284   1.992   .     S
O279   Zn284   2.015   .     S
O279   C281    1.290   .     A
O280   C282    1.290   .     A
O280   Zn283   2.015   .     S
C281   C288    1.417   .     S
C282   C287    1.417   .     S
Zn283  N310    2.032   .     S
Zn284  N309    2.032   .     S
C285   C295    1.406   .     A
C285   O311    1.387   .     S
C285   C287    1.409   .     A
C286   O313    1.387   .     S
C286   C296    1.406   .     A
C286   C288    1.409   .     A
C287   C289    1.383   .     A
C288   C290    1.383   .     A
C289   C291    1.376   .     A
C289   H301    1.087   .     S
C290   C292    1.376   .     A
C290   H302    1.087   .     S
C291   C297    1.393   .     A
C291   C293    1.409   .     A
C292   C298    1.393   .     A
C292   C294    1.409   .     A
C293   C295    1.426   .     A
C293   C780    1.397   1_554 S
C294   C296    1.426   .     A
C294   C779    1.397   .     S
C295   C300    1.417   .     A
C296   C299    1.417   .     A
C297   H303    1.085   .     S
C297   C785    1.396   1_554 S
C298   H304    1.085   .     S
C298   C786    1.396   .     S
C299   O315    1.383   .     S
C299   C783    1.396   .     S
C300   O317    1.383   .     S
C300   C784    1.396   1_554 S
C305   C468    1.332   .     S
C305   H469    1.088   .     S
H308   C468    1.088   .     S
N309   N202    1.279   1_655 S
N309   N211    1.384   1_655 S
O311   H312    0.988   .     S
O313   H314    0.988   .     S
O315   H316    0.992   .     S
O317   H318    0.992   .     S
N319   O321    1.300   .     A
N319   O320    1.301   .     A
N322   O324    1.300   .     A
N322   O323    1.301   .     A
N322   N202    1.384   1_655 S
O325   C329    1.284   .     A
O325   Zn337   1.959   .     S
O326   C330    1.284   .     A
O326   Zn338   1.959   .     S
O327   Zn338   1.973   .     S
O327   C329    1.290   .     A
O328   C330    1.290   .     A
O328   Zn337   1.973   .     S
C329   C359    1.400   .     S
C330   C360    1.400   .     S
O331   C335    1.289   .     A
O331   Zn337   1.992   .     S
O332   C336    1.289   .     A
O332   Zn338   1.992   .     S
O333   Zn338   2.015   .     S
O333   C335    1.290   .     A
O334   C336    1.290   .     A
O334   Zn337   2.015   .     S
C335   C342    1.417   .     S
C336   C341    1.417   .     S
Zn337  N364    2.032   .     S
Zn338  N363    2.032   .     S
C339   C349    1.406   .     A
C339   O365    1.387   .     S
C339   C341    1.409   .     A
C340   O367    1.387   .     S
C340   C350    1.406   .     A
C340   C342    1.409   .     A
C341   C343    1.383   .     A
C342   C344    1.383   .     A
C343   C345    1.376   .     A
C343   H355    1.087   .     S
C344   C346    1.376   .     A
C344   H356    1.087   .     S
C345   C351    1.393   .     A
C345   C347    1.409   .     A
C346   C352    1.393   .     A
C346   C348    1.409   .     A
C347   C349    1.426   .     A
C347   C834    1.397   1_554 S
C348   C350    1.426   .     A
C348   C833    1.397   .     S
C349   C354    1.417   .     A
C350   C353    1.417   .     A
C351   H357    1.085   .     S
C351   C839    1.396   1_554 S
C352   H358    1.085   .     S
C352   C840    1.396   .     S
C353   O369    1.383   .     S
C353   C837    1.396   .     S
C354   O371    1.383   .     S
C354   C838    1.396   1_554 S
C359   C36     1.332   1_565 S
C359   H37     1.088   1_565 S
H362   C36     1.088   1_565 S
N363   N418    1.279   .     S
N363   N427    1.384   .     S
N364   N471    1.279   1_455 S
N364   N484    1.384   1_455 S
O365   H366    0.988   .     S
O367   H368    0.988   .     S
O369   H370    0.992   .     S
O371   H372    0.992   .     S
N373   O375    1.300   .     A
N373   O374    1.301   .     A
N373   N471    1.384   1_455 S
N376   O378    1.300   .     A
N376   O377    1.301   .     A
N376   N418    1.384   .     S
O379   C383    1.284   .     A
O379   Zn391   1.959   .     S
O380   C384    1.284   .     A
O380   Zn392   1.959   .     S
O381   Zn392   1.973   .     S
O381   C383    1.290   .     A
O382   C384    1.290   .     A
O382   Zn391   1.973   .     S
C383   C413    1.400   .     S
C384   C414    1.400   .     S
O385   C389    1.289   .     A
O385   Zn391   1.992   .     S
O386   C390    1.289   .     A
O386   Zn392   1.992   .     S
O387   Zn392   2.015   .     S
O387   C389    1.290   .     A
O388   C390    1.290   .     A
O388   Zn391   2.015   .     S
C389   C396    1.417   .     S
C390   C395    1.417   .     S
Zn391  N418    2.032   .     S
Zn392  N417    2.032   .     S
C393   C403    1.406   .     A
C393   O419    1.387   .     S
C393   C395    1.409   .     A
C394   O421    1.387   .     S
C394   C404    1.406   .     A
C394   C396    1.409   .     A
C395   C397    1.383   .     A
C396   C398    1.383   .     A
C397   C399    1.376   .     A
C397   H409    1.087   .     S
C398   C400    1.376   .     A
C398   H410    1.087   .     S
C399   C405    1.393   .     A
C399   C401    1.409   .     A
C400   C406    1.393   .     A
C400   C402    1.409   .     A
C401   C403    1.426   .     A
C401   C888    1.397   1_554 S
C402   C404    1.426   .     A
C402   C887    1.397   .     S
C403   C408    1.417   .     A
C404   C407    1.417   .     A
C405   H411    1.085   .     S
C405   C893    1.396   1_554 S
C406   H412    1.085   .     S
C406   C894    1.396   .     S
C407   O423    1.383   .     S
C407   C891    1.396   .     S
C408   O425    1.383   .     S
C408   C892    1.396   1_554 S
C413   C90     1.332   1_565 S
C413   H91     1.088   1_565 S
H416   C90     1.088   1_565 S
N417   N472    1.279   .     S
N417   N481    1.384   .     S
O419   H420    0.988   .     S
O421   H422    0.988   .     S
O423   H424    0.992   .     S
O425   H426    0.992   .     S
N427   O429    1.300   .     A
N427   O428    1.301   .     A
N430   O432    1.300   .     A
N430   O431    1.301   .     A
N430   N472    1.384   .     S
O433   C437    1.284   .     A
O433   Zn445   1.959   .     S
O434   C438    1.284   .     A
O434   Zn446   1.959   .     S
O435   Zn446   1.973   .     S
O435   C437    1.290   .     A
O436   C438    1.290   .     A
O436   Zn445   1.973   .     S
C437   C467    1.400   .     S
C438   C468    1.400   .     S
O439   C443    1.289   .     A
O439   Zn445   1.992   .     S
O440   C444    1.289   .     A
O440   Zn446   1.992   .     S
O441   Zn446   2.015   .     S
O441   C443    1.290   .     A
O442   C444    1.290   .     A
O442   Zn445   2.015   .     S
C443   C450    1.417   .     S
C444   C449    1.417   .     S
Zn445  N472    2.032   .     S
Zn446  N471    2.032   .     S
C447   C457    1.406   .     A
C447   O473    1.387   .     S
C447   C449    1.409   .     A
C448   O475    1.387   .     S
C448   C458    1.406   .     A
C448   C450    1.409   .     A
C449   C451    1.383   .     A
C450   C452    1.383   .     A
C451   C453    1.376   .     A
C451   H463    1.087   .     S
C452   C454    1.376   .     A
C452   H464    1.087   .     S
C453   C459    1.393   .     A
C453   C455    1.409   .     A
C454   C460    1.393   .     A
C454   C456    1.409   .     A
C455   C457    1.426   .     A
C455   C942    1.397   1_554 S
C456   C458    1.426   .     A
C456   C941    1.397   .     S
C457   C462    1.417   .     A
C458   C461    1.417   .     A
C459   H465    1.085   .     S
C459   C947    1.396   1_554 S
C460   H466    1.085   .     S
C460   C948    1.396   .     S
C461   O477    1.383   .     S
C461   C945    1.396   .     S
C462   O479    1.383   .     S
C462   C946    1.396   1_554 S
C467   C144    1.332   1_565 S
C467   H145    1.088   1_565 S
H470   C144    1.088   1_565 S
N471   N364    1.279   1_655 S
N471   N373    1.384   1_655 S
O473   H474    0.988   .     S
O475   H476    0.988   .     S
O477   H478    0.992   .     S
O479   H480    0.992   .     S
N481   O483    1.300   .     A
N481   O482    1.301   .     A
N484   O486    1.300   .     A
N484   O485    1.301   .     A
N484   N364    1.384   1_655 S
O487   C491    1.284   .     A
O487   Zn499   1.959   .     S
O488   C492    1.284   .     A
O488   Zn500   1.959   .     S
O489   Zn500   1.973   .     S
O489   C491    1.290   .     A
O490   C492    1.290   .     A
O490   Zn499   1.973   .     S
C491   C521    1.400   .     S
C492   C522    1.400   .     S
O493   C497    1.289   .     A
O493   Zn499   1.992   .     S
O494   C498    1.289   .     A
O494   Zn500   1.992   .     S
O495   Zn500   2.015   .     S
O495   C497    1.290   .     A
O496   C498    1.290   .     A
O496   Zn499   2.015   .     S
C497   C504    1.417   .     S
C498   C503    1.417   .     S
Zn499  N526    2.032   .     S
Zn500  N525    2.032   .     S
C501   C511    1.406   .     A
C501   O527    1.387   .     S
C501   C503    1.409   .     A
C502   O529    1.387   .     S
C502   C512    1.406   .     A
C502   C504    1.409   .     A
C503   C505    1.383   .     A
C504   C506    1.383   .     A
C505   C507    1.376   .     A
C505   H517    1.087   .     S
C506   C508    1.376   .     A
C506   H518    1.087   .     S
C507   C513    1.393   .     A
C507   C509    1.409   .     A
C508   C514    1.393   .     A
C508   C510    1.409   .     A
C509   C511    1.426   .     A
C510   C512    1.426   .     A
C510   C23     1.397   1_556 S
C511   C516    1.417   .     A
C512   C515    1.417   .     A
C513   H519    1.085   .     S
C514   H520    1.085   .     S
C514   C30     1.396   1_556 S
C515   O531    1.383   .     S
C515   C27     1.396   1_556 S
C516   O533    1.383   .     S
C521   C684    1.332   .     S
C521   H685    1.088   .     S
C522   C845    1.332   1_545 S
C522   H848    1.088   1_545 S
H523   C845    1.088   1_545 S
H524   C684    1.088   .     S
N525   N580    1.279   .     S
N525   N589    1.384   .     S
N526   N633    1.279   1_455 S
N526   N646    1.384   1_455 S
O527   H528    0.988   .     S
O529   H530    0.988   .     S
O531   H532    0.992   .     S
O533   H534    0.992   .     S
N535   O537    1.300   .     A
N535   O536    1.301   .     A
N535   N633    1.384   1_455 S
N538   O540    1.300   .     A
N538   O539    1.301   .     A
N538   N580    1.384   .     S
O541   C545    1.284   .     A
O541   Zn553   1.959   .     S
O542   C546    1.284   .     A
O542   Zn554   1.959   .     S
O543   Zn554   1.973   .     S
O543   C545    1.290   .     A
O544   C546    1.290   .     A
O544   Zn553   1.973   .     S
C545   C575    1.400   .     S
C546   C576    1.400   .     S
O547   C551    1.289   .     A
O547   Zn553   1.992   .     S
O548   C552    1.289   .     A
O548   Zn554   1.992   .     S
O549   Zn554   2.015   .     S
O549   C551    1.290   .     A
O550   C552    1.290   .     A
O550   Zn553   2.015   .     S
C551   C558    1.417   .     S
C552   C557    1.417   .     S
Zn553  N580    2.032   .     S
Zn554  N579    2.032   .     S
C555   C565    1.406   .     A
C555   O581    1.387   .     S
C555   C557    1.409   .     A
C556   O583    1.387   .     S
C556   C566    1.406   .     A
C556   C558    1.409   .     A
C557   C559    1.383   .     A
C558   C560    1.383   .     A
C559   C561    1.376   .     A
C559   H571    1.087   .     S
C560   C562    1.376   .     A
C560   H572    1.087   .     S
C561   C567    1.393   .     A
C561   C563    1.409   .     A
C562   C568    1.393   .     A
C562   C564    1.409   .     A
C563   C565    1.426   .     A
C564   C566    1.426   .     A
C564   C77     1.397   1_556 S
C565   C570    1.417   .     A
C566   C569    1.417   .     A
C567   H573    1.085   .     S
C568   H574    1.085   .     S
C568   C84     1.396   1_556 S
C569   O585    1.383   .     S
C569   C81     1.396   1_556 S
C570   O587    1.383   .     S
C575   C738    1.332   .     S
C575   H739    1.088   .     S
C576   C899    1.332   1_545 S
C576   H902    1.088   1_545 S
H577   C899    1.088   1_545 S
H578   C738    1.088   .     S
N579   N634    1.279   .     S
N579   N643    1.384   .     S
O581   H582    0.988   .     S
O583   H584    0.988   .     S
O585   H586    0.992   .     S
O587   H588    0.992   .     S
N589   O591    1.300   .     A
N589   O590    1.301   .     A
N592   O594    1.300   .     A
N592   O593    1.301   .     A
N592   N634    1.384   .     S
O595   C599    1.284   .     A
O595   Zn607   1.959   .     S
O596   C600    1.284   .     A
O596   Zn608   1.959   .     S
O597   Zn608   1.973   .     S
O597   C599    1.290   .     A
O598   C600    1.290   .     A
O598   Zn607   1.973   .     S
C599   C629    1.400   .     S
C600   C630    1.400   .     S
O601   C605    1.289   .     A
O601   Zn607   1.992   .     S
O602   C606    1.289   .     A
O602   Zn608   1.992   .     S
O603   Zn608   2.015   .     S
O603   C605    1.290   .     A
O604   C606    1.290   .     A
O604   Zn607   2.015   .     S
C605   C612    1.417   .     S
C606   C611    1.417   .     S
Zn607  N634    2.032   .     S
Zn608  N633    2.032   .     S
C609   C619    1.406   .     A
C609   O635    1.387   .     S
C609   C611    1.409   .     A
C610   O637    1.387   .     S
C610   C620    1.406   .     A
C610   C612    1.409   .     A
C611   C613    1.383   .     A
C612   C614    1.383   .     A
C613   C615    1.376   .     A
C613   H625    1.087   .     S
C614   C616    1.376   .     A
C614   H626    1.087   .     S
C615   C621    1.393   .     A
C615   C617    1.409   .     A
C616   C622    1.393   .     A
C616   C618    1.409   .     A
C617   C619    1.426   .     A
C618   C620    1.426   .     A
C618   C131    1.397   1_556 S
C619   C624    1.417   .     A
C620   C623    1.417   .     A
C621   H627    1.085   .     S
C622   H628    1.085   .     S
C622   C138    1.396   1_556 S
C623   O639    1.383   .     S
C623   C135    1.396   1_556 S
C624   O641    1.383   .     S
C629   C792    1.332   .     S
C629   H793    1.088   .     S
C630   C953    1.332   1_545 S
C630   H956    1.088   1_545 S
H631   C953    1.088   1_545 S
H632   C792    1.088   .     S
N633   N526    1.279   1_655 S
N633   N535    1.384   1_655 S
O635   H636    0.988   .     S
O637   H638    0.988   .     S
O639   H640    0.992   .     S
O641   H642    0.992   .     S
N643   O645    1.300   .     A
N643   O644    1.301   .     A
N646   O648    1.300   .     A
N646   O647    1.301   .     A
N646   N526    1.384   1_655 S
O649   C653    1.284   .     A
O649   Zn661   1.959   .     S
O650   C654    1.284   .     A
O650   Zn662   1.959   .     S
O651   Zn662   1.973   .     S
O651   C653    1.290   .     A
O652   C654    1.290   .     A
O652   Zn661   1.973   .     S
C653   C683    1.400   .     S
C654   C684    1.400   .     S
O655   C659    1.289   .     A
O655   Zn661   1.992   .     S
O656   C660    1.289   .     A
O656   Zn662   1.992   .     S
O657   Zn662   2.015   .     S
O657   C659    1.290   .     A
O658   C660    1.290   .     A
O658   Zn661   2.015   .     S
C659   C666    1.417   .     S
C660   C665    1.417   .     S
Zn661  N688    2.032   .     S
Zn662  N687    2.032   .     S
C663   C673    1.406   .     A
C663   O689    1.387   .     S
C663   C665    1.409   .     A
C664   O691    1.387   .     S
C664   C674    1.406   .     A
C664   C666    1.409   .     A
C665   C667    1.383   .     A
C666   C668    1.383   .     A
C667   C669    1.376   .     A
C667   H679    1.087   .     S
C668   C670    1.376   .     A
C668   H680    1.087   .     S
C669   C675    1.393   .     A
C669   C671    1.409   .     A
C670   C676    1.393   .     A
C670   C672    1.409   .     A
C671   C673    1.426   .     A
C672   C674    1.426   .     A
C672   C185    1.397   1_556 S
C673   C678    1.417   .     A
C674   C677    1.417   .     A
C675   H681    1.085   .     S
C676   H682    1.085   .     S
C676   C192    1.396   1_556 S
C677   O693    1.383   .     S
C677   C189    1.396   1_556 S
C678   O695    1.383   .     S
C683   C846    1.332   .     S
C683   H847    1.088   .     S
H686   C846    1.088   .     S
N687   N742    1.279   .     S
N687   N751    1.384   .     S
N688   N795    1.279   1_455 S
N688   N808    1.384   1_455 S
O689   H690    0.988   .     S
O691   H692    0.988   .     S
O693   H694    0.992   .     S
O695   H696    0.992   .     S
N697   O699    1.300   .     A
N697   O698    1.301   .     A
N697   N795    1.384   1_455 S
N700   O702    1.300   .     A
N700   O701    1.301   .     A
N700   N742    1.384   .     S
O703   C707    1.284   .     A
O703   Zn715   1.959   .     S
O704   C708    1.284   .     A
O704   Zn716   1.959   .     S
O705   Zn716   1.973   .     S
O705   C707    1.290   .     A
O706   C708    1.290   .     A
O706   Zn715   1.973   .     S
C707   C737    1.400   .     S
C708   C738    1.400   .     S
O709   C713    1.289   .     A
O709   Zn715   1.992   .     S
O710   C714    1.289   .     A
O710   Zn716   1.992   .     S
O711   Zn716   2.015   .     S
O711   C713    1.290   .     A
O712   C714    1.290   .     A
O712   Zn715   2.015   .     S
C713   C720    1.417   .     S
C714   C719    1.417   .     S
Zn715  N742    2.032   .     S
Zn716  N741    2.032   .     S
C717   C727    1.406   .     A
C717   O743    1.387   .     S
C717   C719    1.409   .     A
C718   O745    1.387   .     S
C718   C728    1.406   .     A
C718   C720    1.409   .     A
C719   C721    1.383   .     A
C720   C722    1.383   .     A
C721   C723    1.376   .     A
C721   H733    1.087   .     S
C722   C724    1.376   .     A
C722   H734    1.087   .     S
C723   C729    1.393   .     A
C723   C725    1.409   .     A
C724   C730    1.393   .     A
C724   C726    1.409   .     A
C725   C727    1.426   .     A
C726   C728    1.426   .     A
C726   C239    1.397   1_556 S
C727   C732    1.417   .     A
C728   C731    1.417   .     A
C729   H735    1.085   .     S
C730   H736    1.085   .     S
C730   C246    1.396   1_556 S
C731   O747    1.383   .     S
C731   C243    1.396   1_556 S
C732   O749    1.383   .     S
C737   C900    1.332   .     S
C737   H901    1.088   .     S
H740   C900    1.088   .     S
N741   N796    1.279   .     S
N741   N805    1.384   .     S
O743   H744    0.988   .     S
O745   H746    0.988   .     S
O747   H748    0.992   .     S
O749   H750    0.992   .     S
N751   O753    1.300   .     A
N751   O752    1.301   .     A
N754   O756    1.300   .     A
N754   O755    1.301   .     A
N754   N796    1.384   .     S
O757   C761    1.284   .     A
O757   Zn769   1.959   .     S
O758   C762    1.284   .     A
O758   Zn770   1.959   .     S
O759   Zn770   1.973   .     S
O759   C761    1.290   .     A
O760   C762    1.290   .     A
O760   Zn769   1.973   .     S
C761   C791    1.400   .     S
C762   C792    1.400   .     S
O763   C767    1.289   .     A
O763   Zn769   1.992   .     S
O764   C768    1.289   .     A
O764   Zn770   1.992   .     S
O765   Zn770   2.015   .     S
O765   C767    1.290   .     A
O766   C768    1.290   .     A
O766   Zn769   2.015   .     S
C767   C774    1.417   .     S
C768   C773    1.417   .     S
Zn769  N796    2.032   .     S
Zn770  N795    2.032   .     S
C771   C781    1.406   .     A
C771   O797    1.387   .     S
C771   C773    1.409   .     A
C772   O799    1.387   .     S
C772   C782    1.406   .     A
C772   C774    1.409   .     A
C773   C775    1.383   .     A
C774   C776    1.383   .     A
C775   C777    1.376   .     A
C775   H787    1.087   .     S
C776   C778    1.376   .     A
C776   H788    1.087   .     S
C777   C783    1.393   .     A
C777   C779    1.409   .     A
C778   C784    1.393   .     A
C778   C780    1.409   .     A
C779   C781    1.426   .     A
C780   C782    1.426   .     A
C780   C293    1.397   1_556 S
C781   C786    1.417   .     A
C782   C785    1.417   .     A
C783   H789    1.085   .     S
C784   H790    1.085   .     S
C784   C300    1.396   1_556 S
C785   O801    1.383   .     S
C785   C297    1.396   1_556 S
C786   O803    1.383   .     S
C791   C954    1.332   .     S
C791   H955    1.088   .     S
H794   C954    1.088   .     S
N795   N688    1.279   1_655 S
N795   N697    1.384   1_655 S
O797   H798    0.988   .     S
O799   H800    0.988   .     S
O801   H802    0.992   .     S
O803   H804    0.992   .     S
N805   O807    1.300   .     A
N805   O806    1.301   .     A
N808   O810    1.300   .     A
N808   O809    1.301   .     A
N808   N688    1.384   1_655 S
O811   C815    1.284   .     A
O811   Zn823   1.959   .     S
O812   C816    1.284   .     A
O812   Zn824   1.959   .     S
O813   Zn824   1.973   .     S
O813   C815    1.290   .     A
O814   C816    1.290   .     A
O814   Zn823   1.973   .     S
C815   C845    1.400   .     S
C816   C846    1.400   .     S
O817   C821    1.289   .     A
O817   Zn823   1.992   .     S
O818   C822    1.289   .     A
O818   Zn824   1.992   .     S
O819   Zn824   2.015   .     S
O819   C821    1.290   .     A
O820   C822    1.290   .     A
O820   Zn823   2.015   .     S
C821   C828    1.417   .     S
C822   C827    1.417   .     S
Zn823  N850    2.032   .     S
Zn824  N849    2.032   .     S
C825   C835    1.406   .     A
C825   O851    1.387   .     S
C825   C827    1.409   .     A
C826   O853    1.387   .     S
C826   C836    1.406   .     A
C826   C828    1.409   .     A
C827   C829    1.383   .     A
C828   C830    1.383   .     A
C829   C831    1.376   .     A
C829   H841    1.087   .     S
C830   C832    1.376   .     A
C830   H842    1.087   .     S
C831   C837    1.393   .     A
C831   C833    1.409   .     A
C832   C838    1.393   .     A
C832   C834    1.409   .     A
C833   C835    1.426   .     A
C834   C836    1.426   .     A
C834   C347    1.397   1_556 S
C835   C840    1.417   .     A
C836   C839    1.417   .     A
C837   H843    1.085   .     S
C838   H844    1.085   .     S
C838   C354    1.396   1_556 S
C839   O855    1.383   .     S
C839   C351    1.396   1_556 S
C840   O857    1.383   .     S
C845   C522    1.332   1_565 S
C845   H523    1.088   1_565 S
H848   C522    1.088   1_565 S
N849   N904    1.279   .     S
N849   N913    1.384   .     S
N850   N957    1.279   1_455 S
N850   N970    1.384   1_455 S
O851   H852    0.988   .     S
O853   H854    0.988   .     S
O855   H856    0.992   .     S
O857   H858    0.992   .     S
N859   O861    1.300   .     A
N859   O860    1.301   .     A
N859   N957    1.384   1_455 S
N862   O864    1.300   .     A
N862   O863    1.301   .     A
N862   N904    1.384   .     S
O865   C869    1.284   .     A
O865   Zn877   1.959   .     S
O866   C870    1.284   .     A
O866   Zn878   1.959   .     S
O867   Zn878   1.973   .     S
O867   C869    1.290   .     A
O868   C870    1.290   .     A
O868   Zn877   1.973   .     S
C869   C899    1.400   .     S
C870   C900    1.400   .     S
O871   C875    1.289   .     A
O871   Zn877   1.992   .     S
O872   C876    1.289   .     A
O872   Zn878   1.992   .     S
O873   Zn878   2.015   .     S
O873   C875    1.290   .     A
O874   C876    1.290   .     A
O874   Zn877   2.015   .     S
C875   C882    1.417   .     S
C876   C881    1.417   .     S
Zn877  N904    2.032   .     S
Zn878  N903    2.032   .     S
C879   C889    1.406   .     A
C879   O905    1.387   .     S
C879   C881    1.409   .     A
C880   O907    1.387   .     S
C880   C890    1.406   .     A
C880   C882    1.409   .     A
C881   C883    1.383   .     A
C882   C884    1.383   .     A
C883   C885    1.376   .     A
C883   H895    1.087   .     S
C884   C886    1.376   .     A
C884   H896    1.087   .     S
C885   C891    1.393   .     A
C885   C887    1.409   .     A
C886   C892    1.393   .     A
C886   C888    1.409   .     A
C887   C889    1.426   .     A
C888   C890    1.426   .     A
C888   C401    1.397   1_556 S
C889   C894    1.417   .     A
C890   C893    1.417   .     A
C891   H897    1.085   .     S
C892   H898    1.085   .     S
C892   C408    1.396   1_556 S
C893   O909    1.383   .     S
C893   C405    1.396   1_556 S
C894   O911    1.383   .     S
C899   C576    1.332   1_565 S
C899   H577    1.088   1_565 S
H902   C576    1.088   1_565 S
N903   N958    1.279   .     S
N903   N967    1.384   .     S
O905   H906    0.988   .     S
O907   H908    0.988   .     S
O909   H910    0.992   .     S
O911   H912    0.992   .     S
N913   O915    1.300   .     A
N913   O914    1.301   .     A
N916   O918    1.300   .     A
N916   O917    1.301   .     A
N916   N958    1.384   .     S
O919   C923    1.284   .     A
O919   Zn931   1.959   .     S
O920   C924    1.284   .     A
O920   Zn932   1.959   .     S
O921   Zn932   1.973   .     S
O921   C923    1.290   .     A
O922   C924    1.290   .     A
O922   Zn931   1.973   .     S
C923   C953    1.400   .     S
C924   C954    1.400   .     S
O925   C929    1.289   .     A
O925   Zn931   1.992   .     S
O926   C930    1.289   .     A
O926   Zn932   1.992   .     S
O927   Zn932   2.015   .     S
O927   C929    1.290   .     A
O928   C930    1.290   .     A
O928   Zn931   2.015   .     S
C929   C936    1.417   .     S
C930   C935    1.417   .     S
Zn931  N958    2.032   .     S
Zn932  N957    2.032   .     S
C933   C943    1.406   .     A
C933   O959    1.387   .     S
C933   C935    1.409   .     A
C934   O961    1.387   .     S
C934   C944    1.406   .     A
C934   C936    1.409   .     A
C935   C937    1.383   .     A
C936   C938    1.383   .     A
C937   C939    1.376   .     A
C937   H949    1.087   .     S
C938   C940    1.376   .     A
C938   H950    1.087   .     S
C939   C945    1.393   .     A
C939   C941    1.409   .     A
C940   C946    1.393   .     A
C940   C942    1.409   .     A
C941   C943    1.426   .     A
C942   C944    1.426   .     A
C942   C455    1.397   1_556 S
C943   C948    1.417   .     A
C944   C947    1.417   .     A
C945   H951    1.085   .     S
C946   H952    1.085   .     S
C946   C462    1.396   1_556 S
C947   O963    1.383   .     S
C947   C459    1.396   1_556 S
C948   O965    1.383   .     S
C953   C630    1.332   1_565 S
C953   H631    1.088   1_565 S
H956   C630    1.088   1_565 S
N957   N850    1.279   1_655 S
N957   N859    1.384   1_655 S
O959   H960    0.988   .     S
O961   H962    0.988   .     S
O963   H964    0.992   .     S
O965   H966    0.992   .     S
N967   O969    1.300   .     A
N967   O968    1.301   .     A
N970   O972    1.300   .     A
N970   O971    1.301   .     A
N970   N850    1.384   1_655 S
