data_str_m3_o10_o16_pcu_sym.98
_audit_creation_date              2020-01-03
_audit_creation_method            'Materials Studio'
_symmetry_space_group_name_H-M    'P1'
_symmetry_Int_Tables_number       1
_symmetry_cell_setting            triclinic
loop_
_symmetry_equiv_pos_as_xyz
  x,y,z
_cell_length_a                    23.5224
_cell_length_b                    25.6999
_cell_length_c                    24.9329
_cell_angle_alpha                 92.6618
_cell_angle_beta                  102.5463
_cell_angle_gamma                 93.6637
loop_
_atom_site_label
_atom_site_type_symbol
_atom_site_fract_x
_atom_site_fract_y
_atom_site_fract_z
_atom_site_U_iso_or_equiv
_atom_site_adp_type
_atom_site_occupancy
O1     O     0.29769   0.24629   0.25358   0.00000  Uiso   1.00
O2     O     0.05742   0.23704   0.24424   0.00000  Uiso   1.00
C3     C     0.01517   0.26489   0.25079   0.00000  Uiso   1.00
O4     O     0.31490   0.17358   0.33380   0.00000  Uiso   1.00
O5     O     0.07463   0.16433   0.32446   0.00000  Uiso   1.00
C6     C     0.03819   0.17871   0.35338   0.00000  Uiso   1.00
Zn7    Zn    0.27119   0.17284   0.25624   0.00000  Uiso   1.00
Zn8    Zn    0.06214   0.16049   0.24377   0.00000  Uiso   1.00
O9     O     0.27592   0.09629   0.25577   0.00000  Uiso   1.00
O10    O     0.03565   0.08704   0.24643   0.00000  Uiso   1.00
O11    O     0.25870   0.16901   0.17554   0.00000  Uiso   1.00
O12    O     0.01843   0.15976   0.16620   0.00000  Uiso   1.00
C13    C     0.31960   0.06879   0.25410   0.00000  Uiso   1.00
C14    C     0.29653   0.16165   0.14558   0.00000  Uiso   1.00
C15    C     0.28222   0.13586   0.49359   0.00000  Uiso   1.00
H16    H     0.24196   0.15933   0.39069   0.00000  Uiso   1.00
H17    H     0.30528   0.11842   0.46492   0.00000  Uiso   1.00
C18    C     0.27546   0.15903   0.08654   0.00000  Uiso   1.00
C19    C     0.02774   0.21996   0.44323   0.00000  Uiso   1.00
C20    C     0.04944   0.22997   0.49959   0.00000  Uiso   1.00
C21    C     0.10574   0.21745   0.02380   0.00000  Uiso   1.00
C22    C     0.14361   0.20022   0.49062   0.00000  Uiso   1.00
C23    C     0.12389   0.19901   0.43318   0.00000  Uiso   1.00
C24    C     0.19946   0.18202   0.01138   0.00000  Uiso   1.00
C25    C     0.23195   0.16164   0.47447   0.00000  Uiso   1.00
C26    C     0.21543   0.17010   0.41913   0.00000  Uiso   1.00
C27    C     0.16535   0.19470   0.40052   0.00000  Uiso   1.00
C28    C     0.22349   0.18225   0.06715   0.00000  Uiso   1.00
C29    C     0.30399   0.13370   0.04971   0.00000  Uiso   1.00
C30    C     0.06343   0.20007   0.41028   0.00000  Uiso   1.00
H31    H     0.20285   0.20144   0.09631   0.00000  Uiso   1.00
H32    H     0.31641   0.22722   0.42557   0.00000  Uiso   1.00
H33    H     0.11790   0.22153   0.06810   0.00000  Uiso   1.00
H34    H     0.02128   0.24441   0.02507   0.00000  Uiso   1.00
H35    H     0.15880   0.20915   0.36019   0.00000  Uiso   1.00
C36    C     0.02126   0.31930   0.24890   0.00000  Uiso   1.00
H37    H     0.05380   0.00105   0.22743   0.00000  Uiso   1.00
C38    C     0.31609   0.01576   0.26570   0.00000  Uiso   1.00
N39    N     0.14493   0.15223   0.23543   0.00000  Uiso   1.00
N40    N     0.18840   0.18110   0.26458   0.00000  Uiso   1.00
H41    H     0.17668   0.21618   0.27861   0.00000  Uiso   1.00
Br42   Br    0.03819   0.09512   0.07238   0.00000  Uiso   1.00
Br43   Br    0.26367   0.32897   0.31288   0.00000  Uiso   1.00
N44    N     0.15910   0.10352   0.21875   0.00000  Uiso   1.00
O45    O     0.15373   0.06421   0.24870   0.00000  Uiso   1.00
O46    O     0.16419   0.09467   0.16832   0.00000  Uiso   1.00
O47    O     0.63102   0.24629   0.25358   0.00000  Uiso   1.00
O48    O     0.39075   0.23704   0.24424   0.00000  Uiso   1.00
C49    C     0.34851   0.26489   0.25079   0.00000  Uiso   1.00
O50    O     0.64823   0.17358   0.33380   0.00000  Uiso   1.00
O51    O     0.40796   0.16433   0.32446   0.00000  Uiso   1.00
C52    C     0.37152   0.17871   0.35338   0.00000  Uiso   1.00
Zn53   Zn    0.60453   0.17284   0.25624   0.00000  Uiso   1.00
Zn54   Zn    0.39547   0.16049   0.24377   0.00000  Uiso   1.00
O55    O     0.60925   0.09629   0.25577   0.00000  Uiso   1.00
O56    O     0.36898   0.08704   0.24643   0.00000  Uiso   1.00
O57    O     0.59204   0.16901   0.17554   0.00000  Uiso   1.00
O58    O     0.35177   0.15976   0.16620   0.00000  Uiso   1.00
C59    C     0.65294   0.06879   0.25410   0.00000  Uiso   1.00
C60    C     0.62987   0.16165   0.14558   0.00000  Uiso   1.00
C61    C     0.61555   0.13586   0.49359   0.00000  Uiso   1.00
H62    H     0.57530   0.15933   0.39069   0.00000  Uiso   1.00
H63    H     0.63862   0.11842   0.46492   0.00000  Uiso   1.00
C64    C     0.60879   0.15903   0.08654   0.00000  Uiso   1.00
C65    C     0.36108   0.21996   0.44323   0.00000  Uiso   1.00
C66    C     0.38278   0.22997   0.49959   0.00000  Uiso   1.00
C67    C     0.43908   0.21745   0.02380   0.00000  Uiso   1.00
C68    C     0.47695   0.20022   0.49062   0.00000  Uiso   1.00
C69    C     0.45722   0.19901   0.43318   0.00000  Uiso   1.00
C70    C     0.53279   0.18202   0.01138   0.00000  Uiso   1.00
C71    C     0.56528   0.16164   0.47447   0.00000  Uiso   1.00
C72    C     0.54876   0.17010   0.41913   0.00000  Uiso   1.00
C73    C     0.49868   0.19470   0.40052   0.00000  Uiso   1.00
C74    C     0.55682   0.18225   0.06715   0.00000  Uiso   1.00
C75    C     0.63732   0.13370   0.04971   0.00000  Uiso   1.00
C76    C     0.39676   0.20007   0.41028   0.00000  Uiso   1.00
H77    H     0.53618   0.20144   0.09631   0.00000  Uiso   1.00
H78    H     0.64974   0.22722   0.42557   0.00000  Uiso   1.00
H79    H     0.45124   0.22153   0.06810   0.00000  Uiso   1.00
H80    H     0.35462   0.24441   0.02507   0.00000  Uiso   1.00
H81    H     0.49213   0.20915   0.36019   0.00000  Uiso   1.00
C82    C     0.35459   0.31930   0.24890   0.00000  Uiso   1.00
H83    H     0.38713   0.00105   0.22743   0.00000  Uiso   1.00
C84    C     0.64942   0.01576   0.26570   0.00000  Uiso   1.00
N85    N     0.47827   0.15223   0.23543   0.00000  Uiso   1.00
N86    N     0.52173   0.18110   0.26458   0.00000  Uiso   1.00
H87    H     0.51001   0.21618   0.27861   0.00000  Uiso   1.00
Br88   Br    0.37153   0.09512   0.07238   0.00000  Uiso   1.00
Br89   Br    0.59700   0.32897   0.31288   0.00000  Uiso   1.00
N90    N     0.49243   0.10352   0.21875   0.00000  Uiso   1.00
O91    O     0.48706   0.06421   0.24870   0.00000  Uiso   1.00
O92    O     0.49752   0.09467   0.16832   0.00000  Uiso   1.00
O93    O     0.96435   0.24629   0.25358   0.00000  Uiso   1.00
O94    O     0.72408   0.23704   0.24424   0.00000  Uiso   1.00
C95    C     0.68184   0.26489   0.25079   0.00000  Uiso   1.00
O96    O     0.98157   0.17358   0.33380   0.00000  Uiso   1.00
O97    O     0.74130   0.16433   0.32446   0.00000  Uiso   1.00
C98    C     0.70486   0.17871   0.35338   0.00000  Uiso   1.00
Zn99   Zn    0.93786   0.17284   0.25624   0.00000  Uiso   1.00
Zn100  Zn    0.72881   0.16049   0.24377   0.00000  Uiso   1.00
O101   O     0.94258   0.09629   0.25577   0.00000  Uiso   1.00
O102   O     0.70231   0.08704   0.24643   0.00000  Uiso   1.00
O103   O     0.92537   0.16901   0.17554   0.00000  Uiso   1.00
O104   O     0.68510   0.15976   0.16620   0.00000  Uiso   1.00
C105   C     0.98627   0.06879   0.25410   0.00000  Uiso   1.00
C106   C     0.96320   0.16165   0.14558   0.00000  Uiso   1.00
C107   C     0.94889   0.13586   0.49359   0.00000  Uiso   1.00
H108   H     0.90863   0.15933   0.39069   0.00000  Uiso   1.00
H109   H     0.97195   0.11842   0.46492   0.00000  Uiso   1.00
C110   C     0.94212   0.15903   0.08654   0.00000  Uiso   1.00
C111   C     0.69441   0.21996   0.44323   0.00000  Uiso   1.00
C112   C     0.71611   0.22997   0.49959   0.00000  Uiso   1.00
C113   C     0.77241   0.21745   0.02380   0.00000  Uiso   1.00
C114   C     0.81028   0.20022   0.49062   0.00000  Uiso   1.00
C115   C     0.79055   0.19901   0.43318   0.00000  Uiso   1.00
C116   C     0.86613   0.18202   0.01138   0.00000  Uiso   1.00
C117   C     0.89861   0.16164   0.47447   0.00000  Uiso   1.00
C118   C     0.88209   0.17010   0.41913   0.00000  Uiso   1.00
C119   C     0.83201   0.19470   0.40052   0.00000  Uiso   1.00
C120   C     0.89016   0.18225   0.06715   0.00000  Uiso   1.00
C121   C     0.97065   0.13370   0.04971   0.00000  Uiso   1.00
C122   C     0.73009   0.20007   0.41028   0.00000  Uiso   1.00
H123   H     0.86951   0.20144   0.09631   0.00000  Uiso   1.00
H124   H     0.98308   0.22722   0.42557   0.00000  Uiso   1.00
H125   H     0.78457   0.22153   0.06810   0.00000  Uiso   1.00
H126   H     0.68795   0.24441   0.02507   0.00000  Uiso   1.00
H127   H     0.82547   0.20915   0.36019   0.00000  Uiso   1.00
C128   C     0.68792   0.31930   0.24890   0.00000  Uiso   1.00
H129   H     0.72047   0.00105   0.22743   0.00000  Uiso   1.00
C130   C     0.98275   0.01576   0.26570   0.00000  Uiso   1.00
N131   N     0.81160   0.15223   0.23543   0.00000  Uiso   1.00
N132   N     0.85507   0.18110   0.26458   0.00000  Uiso   1.00
H133   H     0.84334   0.21618   0.27861   0.00000  Uiso   1.00
Br134  Br    0.70486   0.09512   0.07238   0.00000  Uiso   1.00
Br135  Br    0.93034   0.32897   0.31288   0.00000  Uiso   1.00
N136   N     0.82577   0.10352   0.21875   0.00000  Uiso   1.00
O137   O     0.82040   0.06421   0.24870   0.00000  Uiso   1.00
O138   O     0.83086   0.09467   0.16832   0.00000  Uiso   1.00
O139   O     0.29769   0.57963   0.25358   0.00000  Uiso   1.00
O140   O     0.05742   0.57038   0.24424   0.00000  Uiso   1.00
C141   C     0.01517   0.59822   0.25079   0.00000  Uiso   1.00
O142   O     0.31490   0.50691   0.33380   0.00000  Uiso   1.00
O143   O     0.07463   0.49766   0.32446   0.00000  Uiso   1.00
C144   C     0.03819   0.51204   0.35338   0.00000  Uiso   1.00
Zn145  Zn    0.27119   0.50618   0.25624   0.00000  Uiso   1.00
Zn146  Zn    0.06214   0.49382   0.24377   0.00000  Uiso   1.00
O147   O     0.27592   0.42962   0.25577   0.00000  Uiso   1.00
O148   O     0.03565   0.42037   0.24643   0.00000  Uiso   1.00
O149   O     0.25870   0.50234   0.17554   0.00000  Uiso   1.00
O150   O     0.01843   0.49309   0.16620   0.00000  Uiso   1.00
C151   C     0.31960   0.40212   0.25410   0.00000  Uiso   1.00
C152   C     0.29653   0.49498   0.14558   0.00000  Uiso   1.00
C153   C     0.28222   0.46919   0.49359   0.00000  Uiso   1.00
H154   H     0.24196   0.49267   0.39069   0.00000  Uiso   1.00
H155   H     0.30528   0.45175   0.46492   0.00000  Uiso   1.00
C156   C     0.27546   0.49237   0.08654   0.00000  Uiso   1.00
C157   C     0.02774   0.55329   0.44323   0.00000  Uiso   1.00
C158   C     0.04944   0.56330   0.49959   0.00000  Uiso   1.00
C159   C     0.10574   0.55078   0.02380   0.00000  Uiso   1.00
C160   C     0.14361   0.53355   0.49062   0.00000  Uiso   1.00
C161   C     0.12389   0.53235   0.43318   0.00000  Uiso   1.00
C162   C     0.19946   0.51535   0.01138   0.00000  Uiso   1.00
C163   C     0.23195   0.49498   0.47447   0.00000  Uiso   1.00
C164   C     0.21543   0.50343   0.41913   0.00000  Uiso   1.00
C165   C     0.16535   0.52804   0.40052   0.00000  Uiso   1.00
C166   C     0.22349   0.51558   0.06715   0.00000  Uiso   1.00
C167   C     0.30399   0.46703   0.04971   0.00000  Uiso   1.00
C168   C     0.06343   0.53340   0.41028   0.00000  Uiso   1.00
H169   H     0.20285   0.53477   0.09631   0.00000  Uiso   1.00
H170   H     0.31641   0.56056   0.42557   0.00000  Uiso   1.00
H171   H     0.11790   0.55486   0.06810   0.00000  Uiso   1.00
H172   H     0.02128   0.57775   0.02507   0.00000  Uiso   1.00
H173   H     0.15880   0.54249   0.36019   0.00000  Uiso   1.00
C174   C     0.02126   0.65263   0.24890   0.00000  Uiso   1.00
H175   H     0.05380   0.33439   0.22743   0.00000  Uiso   1.00
C176   C     0.31609   0.34910   0.26570   0.00000  Uiso   1.00
N177   N     0.14493   0.48556   0.23543   0.00000  Uiso   1.00
N178   N     0.18840   0.51444   0.26458   0.00000  Uiso   1.00
H179   H     0.17668   0.54951   0.27861   0.00000  Uiso   1.00
Br180  Br    0.03819   0.42846   0.07238   0.00000  Uiso   1.00
Br181  Br    0.26367   0.66231   0.31288   0.00000  Uiso   1.00
N182   N     0.15910   0.43686   0.21875   0.00000  Uiso   1.00
O183   O     0.15373   0.39754   0.24870   0.00000  Uiso   1.00
O184   O     0.16419   0.42800   0.16832   0.00000  Uiso   1.00
O185   O     0.63102   0.57963   0.25358   0.00000  Uiso   1.00
O186   O     0.39075   0.57038   0.24424   0.00000  Uiso   1.00
C187   C     0.34851   0.59822   0.25079   0.00000  Uiso   1.00
O188   O     0.64823   0.50691   0.33380   0.00000  Uiso   1.00
O189   O     0.40796   0.49766   0.32446   0.00000  Uiso   1.00
C190   C     0.37152   0.51204   0.35338   0.00000  Uiso   1.00
Zn191  Zn    0.60453   0.50618   0.25624   0.00000  Uiso   1.00
Zn192  Zn    0.39547   0.49382   0.24377   0.00000  Uiso   1.00
O193   O     0.60925   0.42962   0.25577   0.00000  Uiso   1.00
O194   O     0.36898   0.42037   0.24643   0.00000  Uiso   1.00
O195   O     0.59204   0.50234   0.17554   0.00000  Uiso   1.00
O196   O     0.35177   0.49309   0.16620   0.00000  Uiso   1.00
C197   C     0.65294   0.40212   0.25410   0.00000  Uiso   1.00
C198   C     0.62987   0.49498   0.14558   0.00000  Uiso   1.00
C199   C     0.61555   0.46919   0.49359   0.00000  Uiso   1.00
H200   H     0.57530   0.49267   0.39069   0.00000  Uiso   1.00
H201   H     0.63862   0.45175   0.46492   0.00000  Uiso   1.00
C202   C     0.60879   0.49237   0.08654   0.00000  Uiso   1.00
C203   C     0.36108   0.55329   0.44323   0.00000  Uiso   1.00
C204   C     0.38278   0.56330   0.49959   0.00000  Uiso   1.00
C205   C     0.43908   0.55078   0.02380   0.00000  Uiso   1.00
C206   C     0.47695   0.53355   0.49062   0.00000  Uiso   1.00
C207   C     0.45722   0.53235   0.43318   0.00000  Uiso   1.00
C208   C     0.53279   0.51535   0.01138   0.00000  Uiso   1.00
C209   C     0.56528   0.49498   0.47447   0.00000  Uiso   1.00
C210   C     0.54876   0.50343   0.41913   0.00000  Uiso   1.00
C211   C     0.49868   0.52804   0.40052   0.00000  Uiso   1.00
C212   C     0.55682   0.51558   0.06715   0.00000  Uiso   1.00
C213   C     0.63732   0.46703   0.04971   0.00000  Uiso   1.00
C214   C     0.39676   0.53340   0.41028   0.00000  Uiso   1.00
H215   H     0.53618   0.53477   0.09631   0.00000  Uiso   1.00
H216   H     0.64974   0.56056   0.42557   0.00000  Uiso   1.00
H217   H     0.45124   0.55486   0.06810   0.00000  Uiso   1.00
H218   H     0.35462   0.57775   0.02507   0.00000  Uiso   1.00
H219   H     0.49213   0.54249   0.36019   0.00000  Uiso   1.00
C220   C     0.35459   0.65263   0.24890   0.00000  Uiso   1.00
H221   H     0.38713   0.33439   0.22743   0.00000  Uiso   1.00
C222   C     0.64942   0.34910   0.26570   0.00000  Uiso   1.00
N223   N     0.47827   0.48556   0.23543   0.00000  Uiso   1.00
N224   N     0.52173   0.51444   0.26458   0.00000  Uiso   1.00
H225   H     0.51001   0.54951   0.27861   0.00000  Uiso   1.00
Br226  Br    0.37153   0.42846   0.07238   0.00000  Uiso   1.00
Br227  Br    0.59700   0.66231   0.31288   0.00000  Uiso   1.00
N228   N     0.49243   0.43686   0.21875   0.00000  Uiso   1.00
O229   O     0.48706   0.39754   0.24870   0.00000  Uiso   1.00
O230   O     0.49752   0.42800   0.16832   0.00000  Uiso   1.00
O231   O     0.96435   0.57963   0.25358   0.00000  Uiso   1.00
O232   O     0.72408   0.57038   0.24424   0.00000  Uiso   1.00
C233   C     0.68184   0.59822   0.25079   0.00000  Uiso   1.00
O234   O     0.98157   0.50691   0.33380   0.00000  Uiso   1.00
O235   O     0.74130   0.49766   0.32446   0.00000  Uiso   1.00
C236   C     0.70486   0.51204   0.35338   0.00000  Uiso   1.00
Zn237  Zn    0.93786   0.50618   0.25624   0.00000  Uiso   1.00
Zn238  Zn    0.72881   0.49382   0.24377   0.00000  Uiso   1.00
O239   O     0.94258   0.42962   0.25577   0.00000  Uiso   1.00
O240   O     0.70231   0.42037   0.24643   0.00000  Uiso   1.00
O241   O     0.92537   0.50234   0.17554   0.00000  Uiso   1.00
O242   O     0.68510   0.49309   0.16620   0.00000  Uiso   1.00
C243   C     0.98627   0.40212   0.25410   0.00000  Uiso   1.00
C244   C     0.96320   0.49498   0.14558   0.00000  Uiso   1.00
C245   C     0.94889   0.46919   0.49359   0.00000  Uiso   1.00
H246   H     0.90863   0.49267   0.39069   0.00000  Uiso   1.00
H247   H     0.97195   0.45175   0.46492   0.00000  Uiso   1.00
C248   C     0.94212   0.49237   0.08654   0.00000  Uiso   1.00
C249   C     0.69441   0.55329   0.44323   0.00000  Uiso   1.00
C250   C     0.71611   0.56330   0.49959   0.00000  Uiso   1.00
C251   C     0.77241   0.55078   0.02380   0.00000  Uiso   1.00
C252   C     0.81028   0.53355   0.49062   0.00000  Uiso   1.00
C253   C     0.79055   0.53235   0.43318   0.00000  Uiso   1.00
C254   C     0.86613   0.51535   0.01138   0.00000  Uiso   1.00
C255   C     0.89861   0.49498   0.47447   0.00000  Uiso   1.00
C256   C     0.88209   0.50343   0.41913   0.00000  Uiso   1.00
C257   C     0.83201   0.52804   0.40052   0.00000  Uiso   1.00
C258   C     0.89016   0.51558   0.06715   0.00000  Uiso   1.00
C259   C     0.97065   0.46703   0.04971   0.00000  Uiso   1.00
C260   C     0.73009   0.53340   0.41028   0.00000  Uiso   1.00
H261   H     0.86951   0.53477   0.09631   0.00000  Uiso   1.00
H262   H     0.98308   0.56056   0.42557   0.00000  Uiso   1.00
H263   H     0.78457   0.55486   0.06810   0.00000  Uiso   1.00
H264   H     0.68795   0.57775   0.02507   0.00000  Uiso   1.00
H265   H     0.82547   0.54249   0.36019   0.00000  Uiso   1.00
C266   C     0.68792   0.65263   0.24890   0.00000  Uiso   1.00
H267   H     0.72047   0.33439   0.22743   0.00000  Uiso   1.00
C268   C     0.98275   0.34910   0.26570   0.00000  Uiso   1.00
N269   N     0.81160   0.48556   0.23543   0.00000  Uiso   1.00
N270   N     0.85507   0.51444   0.26458   0.00000  Uiso   1.00
H271   H     0.84334   0.54951   0.27861   0.00000  Uiso   1.00
Br272  Br    0.70486   0.42846   0.07238   0.00000  Uiso   1.00
Br273  Br    0.93034   0.66231   0.31288   0.00000  Uiso   1.00
N274   N     0.82577   0.43686   0.21875   0.00000  Uiso   1.00
O275   O     0.82040   0.39754   0.24870   0.00000  Uiso   1.00
O276   O     0.83086   0.42800   0.16832   0.00000  Uiso   1.00
O277   O     0.29769   0.91296   0.25358   0.00000  Uiso   1.00
O278   O     0.05742   0.90371   0.24424   0.00000  Uiso   1.00
C279   C     0.01517   0.93156   0.25079   0.00000  Uiso   1.00
O280   O     0.31490   0.84024   0.33380   0.00000  Uiso   1.00
O281   O     0.07463   0.83099   0.32446   0.00000  Uiso   1.00
C282   C     0.03819   0.84537   0.35338   0.00000  Uiso   1.00
Zn283  Zn    0.27119   0.83951   0.25624   0.00000  Uiso   1.00
Zn284  Zn    0.06214   0.82716   0.24377   0.00000  Uiso   1.00
O285   O     0.27592   0.76296   0.25577   0.00000  Uiso   1.00
O286   O     0.03565   0.75371   0.24643   0.00000  Uiso   1.00
O287   O     0.25870   0.83567   0.17554   0.00000  Uiso   1.00
O288   O     0.01843   0.82642   0.16620   0.00000  Uiso   1.00
C289   C     0.31960   0.73546   0.25410   0.00000  Uiso   1.00
C290   C     0.29653   0.82831   0.14558   0.00000  Uiso   1.00
C291   C     0.28222   0.80252   0.49359   0.00000  Uiso   1.00
H292   H     0.24196   0.82600   0.39069   0.00000  Uiso   1.00
H293   H     0.30528   0.78508   0.46492   0.00000  Uiso   1.00
C294   C     0.27546   0.82570   0.08654   0.00000  Uiso   1.00
C295   C     0.02774   0.88662   0.44323   0.00000  Uiso   1.00
C296   C     0.04944   0.89664   0.49959   0.00000  Uiso   1.00
C297   C     0.10574   0.88412   0.02380   0.00000  Uiso   1.00
C298   C     0.14361   0.86689   0.49062   0.00000  Uiso   1.00
C299   C     0.12389   0.86568   0.43318   0.00000  Uiso   1.00
C300   C     0.19946   0.84869   0.01138   0.00000  Uiso   1.00
C301   C     0.23195   0.82831   0.47447   0.00000  Uiso   1.00
C302   C     0.21543   0.83677   0.41913   0.00000  Uiso   1.00
C303   C     0.16535   0.86137   0.40052   0.00000  Uiso   1.00
C304   C     0.22349   0.84891   0.06715   0.00000  Uiso   1.00
C305   C     0.30399   0.80037   0.04971   0.00000  Uiso   1.00
C306   C     0.06343   0.86674   0.41028   0.00000  Uiso   1.00
H307   H     0.20285   0.86810   0.09631   0.00000  Uiso   1.00
H308   H     0.31641   0.89389   0.42557   0.00000  Uiso   1.00
H309   H     0.11790   0.88820   0.06810   0.00000  Uiso   1.00
H310   H     0.02128   0.91108   0.02507   0.00000  Uiso   1.00
H311   H     0.15880   0.87582   0.36019   0.00000  Uiso   1.00
C312   C     0.02126   0.98597   0.24890   0.00000  Uiso   1.00
H313   H     0.05380   0.66772   0.22743   0.00000  Uiso   1.00
C314   C     0.31609   0.68243   0.26570   0.00000  Uiso   1.00
N315   N     0.14493   0.81890   0.23543   0.00000  Uiso   1.00
N316   N     0.18840   0.84777   0.26458   0.00000  Uiso   1.00
H317   H     0.17668   0.88285   0.27861   0.00000  Uiso   1.00
Br318  Br    0.03819   0.76179   0.07238   0.00000  Uiso   1.00
Br319  Br    0.26367   0.99564   0.31288   0.00000  Uiso   1.00
N320   N     0.15910   0.77019   0.21875   0.00000  Uiso   1.00
O321   O     0.15373   0.73087   0.24870   0.00000  Uiso   1.00
O322   O     0.16419   0.76134   0.16832   0.00000  Uiso   1.00
O323   O     0.63102   0.91296   0.25358   0.00000  Uiso   1.00
O324   O     0.39075   0.90371   0.24424   0.00000  Uiso   1.00
C325   C     0.34851   0.93156   0.25079   0.00000  Uiso   1.00
O326   O     0.64823   0.84024   0.33380   0.00000  Uiso   1.00
O327   O     0.40796   0.83099   0.32446   0.00000  Uiso   1.00
C328   C     0.37152   0.84537   0.35338   0.00000  Uiso   1.00
Zn329  Zn    0.60453   0.83951   0.25624   0.00000  Uiso   1.00
Zn330  Zn    0.39547   0.82716   0.24377   0.00000  Uiso   1.00
O331   O     0.60925   0.76296   0.25577   0.00000  Uiso   1.00
O332   O     0.36898   0.75371   0.24643   0.00000  Uiso   1.00
O333   O     0.59204   0.83567   0.17554   0.00000  Uiso   1.00
O334   O     0.35177   0.82642   0.16620   0.00000  Uiso   1.00
C335   C     0.65294   0.73546   0.25410   0.00000  Uiso   1.00
C336   C     0.62987   0.82831   0.14558   0.00000  Uiso   1.00
C337   C     0.61555   0.80252   0.49359   0.00000  Uiso   1.00
H338   H     0.57530   0.82600   0.39069   0.00000  Uiso   1.00
H339   H     0.63862   0.78508   0.46492   0.00000  Uiso   1.00
C340   C     0.60879   0.82570   0.08654   0.00000  Uiso   1.00
C341   C     0.36108   0.88662   0.44323   0.00000  Uiso   1.00
C342   C     0.38278   0.89664   0.49959   0.00000  Uiso   1.00
C343   C     0.43908   0.88412   0.02380   0.00000  Uiso   1.00
C344   C     0.47695   0.86689   0.49062   0.00000  Uiso   1.00
C345   C     0.45722   0.86568   0.43318   0.00000  Uiso   1.00
C346   C     0.53279   0.84869   0.01138   0.00000  Uiso   1.00
C347   C     0.56528   0.82831   0.47447   0.00000  Uiso   1.00
C348   C     0.54876   0.83677   0.41913   0.00000  Uiso   1.00
C349   C     0.49868   0.86137   0.40052   0.00000  Uiso   1.00
C350   C     0.55682   0.84891   0.06715   0.00000  Uiso   1.00
C351   C     0.63732   0.80037   0.04971   0.00000  Uiso   1.00
C352   C     0.39676   0.86674   0.41028   0.00000  Uiso   1.00
H353   H     0.53618   0.86810   0.09631   0.00000  Uiso   1.00
H354   H     0.64974   0.89389   0.42557   0.00000  Uiso   1.00
H355   H     0.45124   0.88820   0.06810   0.00000  Uiso   1.00
H356   H     0.35462   0.91108   0.02507   0.00000  Uiso   1.00
H357   H     0.49213   0.87582   0.36019   0.00000  Uiso   1.00
C358   C     0.35459   0.98597   0.24890   0.00000  Uiso   1.00
H359   H     0.38713   0.66772   0.22743   0.00000  Uiso   1.00
C360   C     0.64942   0.68243   0.26570   0.00000  Uiso   1.00
N361   N     0.47827   0.81890   0.23543   0.00000  Uiso   1.00
N362   N     0.52173   0.84777   0.26458   0.00000  Uiso   1.00
H363   H     0.51001   0.88285   0.27861   0.00000  Uiso   1.00
Br364  Br    0.37153   0.76179   0.07238   0.00000  Uiso   1.00
Br365  Br    0.59700   0.99564   0.31288   0.00000  Uiso   1.00
N366   N     0.49243   0.77019   0.21875   0.00000  Uiso   1.00
O367   O     0.48706   0.73087   0.24870   0.00000  Uiso   1.00
O368   O     0.49752   0.76134   0.16832   0.00000  Uiso   1.00
O369   O     0.96435   0.91296   0.25358   0.00000  Uiso   1.00
O370   O     0.72408   0.90371   0.24424   0.00000  Uiso   1.00
C371   C     0.68184   0.93156   0.25079   0.00000  Uiso   1.00
O372   O     0.98157   0.84024   0.33380   0.00000  Uiso   1.00
O373   O     0.74130   0.83099   0.32446   0.00000  Uiso   1.00
C374   C     0.70486   0.84537   0.35338   0.00000  Uiso   1.00
Zn375  Zn    0.93786   0.83951   0.25624   0.00000  Uiso   1.00
Zn376  Zn    0.72881   0.82716   0.24377   0.00000  Uiso   1.00
O377   O     0.94258   0.76296   0.25577   0.00000  Uiso   1.00
O378   O     0.70231   0.75371   0.24643   0.00000  Uiso   1.00
O379   O     0.92537   0.83567   0.17554   0.00000  Uiso   1.00
O380   O     0.68510   0.82642   0.16620   0.00000  Uiso   1.00
C381   C     0.98627   0.73546   0.25410   0.00000  Uiso   1.00
C382   C     0.96320   0.82831   0.14558   0.00000  Uiso   1.00
C383   C     0.94889   0.80252   0.49359   0.00000  Uiso   1.00
H384   H     0.90863   0.82600   0.39069   0.00000  Uiso   1.00
H385   H     0.97195   0.78508   0.46492   0.00000  Uiso   1.00
C386   C     0.94212   0.82570   0.08654   0.00000  Uiso   1.00
C387   C     0.69441   0.88662   0.44323   0.00000  Uiso   1.00
C388   C     0.71611   0.89664   0.49959   0.00000  Uiso   1.00
C389   C     0.77241   0.88412   0.02380   0.00000  Uiso   1.00
C390   C     0.81028   0.86689   0.49062   0.00000  Uiso   1.00
C391   C     0.79055   0.86568   0.43318   0.00000  Uiso   1.00
C392   C     0.86613   0.84869   0.01138   0.00000  Uiso   1.00
C393   C     0.89861   0.82831   0.47447   0.00000  Uiso   1.00
C394   C     0.88209   0.83677   0.41913   0.00000  Uiso   1.00
C395   C     0.83201   0.86137   0.40052   0.00000  Uiso   1.00
C396   C     0.89016   0.84891   0.06715   0.00000  Uiso   1.00
C397   C     0.97065   0.80037   0.04971   0.00000  Uiso   1.00
C398   C     0.73009   0.86674   0.41028   0.00000  Uiso   1.00
H399   H     0.86951   0.86810   0.09631   0.00000  Uiso   1.00
H400   H     0.98308   0.89389   0.42557   0.00000  Uiso   1.00
H401   H     0.78457   0.88820   0.06810   0.00000  Uiso   1.00
H402   H     0.68795   0.91108   0.02507   0.00000  Uiso   1.00
H403   H     0.82547   0.87582   0.36019   0.00000  Uiso   1.00
C404   C     0.68792   0.98597   0.24890   0.00000  Uiso   1.00
H405   H     0.72047   0.66772   0.22743   0.00000  Uiso   1.00
C406   C     0.98275   0.68243   0.26570   0.00000  Uiso   1.00
N407   N     0.81160   0.81890   0.23543   0.00000  Uiso   1.00
N408   N     0.85507   0.84777   0.26458   0.00000  Uiso   1.00
H409   H     0.84334   0.88285   0.27861   0.00000  Uiso   1.00
Br410  Br    0.70486   0.76179   0.07238   0.00000  Uiso   1.00
Br411  Br    0.93034   0.99564   0.31288   0.00000  Uiso   1.00
N412   N     0.82577   0.77019   0.21875   0.00000  Uiso   1.00
O413   O     0.82040   0.73087   0.24870   0.00000  Uiso   1.00
O414   O     0.83086   0.76134   0.16832   0.00000  Uiso   1.00
O415   O     0.29769   0.24629   0.75358   0.00000  Uiso   1.00
O416   O     0.05742   0.23704   0.74424   0.00000  Uiso   1.00
C417   C     0.01517   0.26489   0.75079   0.00000  Uiso   1.00
O418   O     0.31490   0.17358   0.83380   0.00000  Uiso   1.00
O419   O     0.07463   0.16433   0.82446   0.00000  Uiso   1.00
C420   C     0.03819   0.17871   0.85338   0.00000  Uiso   1.00
Zn421  Zn    0.27119   0.17284   0.75624   0.00000  Uiso   1.00
Zn422  Zn    0.06214   0.16049   0.74377   0.00000  Uiso   1.00
O423   O     0.27592   0.09629   0.75577   0.00000  Uiso   1.00
O424   O     0.03565   0.08704   0.74643   0.00000  Uiso   1.00
O425   O     0.25870   0.16901   0.67554   0.00000  Uiso   1.00
O426   O     0.01843   0.15976   0.66620   0.00000  Uiso   1.00
C427   C     0.31960   0.06879   0.75410   0.00000  Uiso   1.00
C428   C     0.29653   0.16165   0.64558   0.00000  Uiso   1.00
C429   C     0.28222   0.13586   0.99359   0.00000  Uiso   1.00
H430   H     0.24196   0.15933   0.89069   0.00000  Uiso   1.00
H431   H     0.30528   0.11842   0.96492   0.00000  Uiso   1.00
C432   C     0.27546   0.15903   0.58654   0.00000  Uiso   1.00
C433   C     0.02774   0.21996   0.94323   0.00000  Uiso   1.00
C434   C     0.04944   0.22997   0.99959   0.00000  Uiso   1.00
C435   C     0.10574   0.21745   0.52380   0.00000  Uiso   1.00
C436   C     0.14361   0.20022   0.99062   0.00000  Uiso   1.00
C437   C     0.12389   0.19901   0.93318   0.00000  Uiso   1.00
C438   C     0.19946   0.18202   0.51138   0.00000  Uiso   1.00
C439   C     0.23195   0.16164   0.97447   0.00000  Uiso   1.00
C440   C     0.21543   0.17010   0.91913   0.00000  Uiso   1.00
C441   C     0.16535   0.19470   0.90052   0.00000  Uiso   1.00
C442   C     0.22349   0.18225   0.56715   0.00000  Uiso   1.00
C443   C     0.30399   0.13370   0.54971   0.00000  Uiso   1.00
C444   C     0.06343   0.20007   0.91028   0.00000  Uiso   1.00
H445   H     0.20285   0.20144   0.59631   0.00000  Uiso   1.00
H446   H     0.31641   0.22722   0.92557   0.00000  Uiso   1.00
H447   H     0.11790   0.22153   0.56810   0.00000  Uiso   1.00
H448   H     0.02128   0.24441   0.52507   0.00000  Uiso   1.00
H449   H     0.15880   0.20915   0.86019   0.00000  Uiso   1.00
C450   C     0.02126   0.31930   0.74890   0.00000  Uiso   1.00
H451   H     0.05380   0.00105   0.72743   0.00000  Uiso   1.00
C452   C     0.31609   0.01576   0.76570   0.00000  Uiso   1.00
N453   N     0.14493   0.15223   0.73543   0.00000  Uiso   1.00
N454   N     0.18840   0.18110   0.76458   0.00000  Uiso   1.00
H455   H     0.17668   0.21618   0.77861   0.00000  Uiso   1.00
Br456  Br    0.03819   0.09512   0.57238   0.00000  Uiso   1.00
Br457  Br    0.26367   0.32897   0.81288   0.00000  Uiso   1.00
N458   N     0.15910   0.10352   0.71875   0.00000  Uiso   1.00
O459   O     0.15373   0.06421   0.74870   0.00000  Uiso   1.00
O460   O     0.16419   0.09467   0.66832   0.00000  Uiso   1.00
O461   O     0.63102   0.24629   0.75358   0.00000  Uiso   1.00
O462   O     0.39075   0.23704   0.74424   0.00000  Uiso   1.00
C463   C     0.34851   0.26489   0.75079   0.00000  Uiso   1.00
O464   O     0.64823   0.17358   0.83380   0.00000  Uiso   1.00
O465   O     0.40796   0.16433   0.82446   0.00000  Uiso   1.00
C466   C     0.37152   0.17871   0.85338   0.00000  Uiso   1.00
Zn467  Zn    0.60453   0.17284   0.75624   0.00000  Uiso   1.00
Zn468  Zn    0.39547   0.16049   0.74377   0.00000  Uiso   1.00
O469   O     0.60925   0.09629   0.75577   0.00000  Uiso   1.00
O470   O     0.36898   0.08704   0.74643   0.00000  Uiso   1.00
O471   O     0.59204   0.16901   0.67554   0.00000  Uiso   1.00
O472   O     0.35177   0.15976   0.66620   0.00000  Uiso   1.00
C473   C     0.65294   0.06879   0.75410   0.00000  Uiso   1.00
C474   C     0.62987   0.16165   0.64558   0.00000  Uiso   1.00
C475   C     0.61555   0.13586   0.99359   0.00000  Uiso   1.00
H476   H     0.57530   0.15933   0.89069   0.00000  Uiso   1.00
H477   H     0.63862   0.11842   0.96492   0.00000  Uiso   1.00
C478   C     0.60879   0.15903   0.58654   0.00000  Uiso   1.00
C479   C     0.36108   0.21996   0.94323   0.00000  Uiso   1.00
C480   C     0.38278   0.22997   0.99959   0.00000  Uiso   1.00
C481   C     0.43908   0.21745   0.52380   0.00000  Uiso   1.00
C482   C     0.47695   0.20022   0.99062   0.00000  Uiso   1.00
C483   C     0.45722   0.19901   0.93318   0.00000  Uiso   1.00
C484   C     0.53279   0.18202   0.51138   0.00000  Uiso   1.00
C485   C     0.56528   0.16164   0.97447   0.00000  Uiso   1.00
C486   C     0.54876   0.17010   0.91913   0.00000  Uiso   1.00
C487   C     0.49868   0.19470   0.90052   0.00000  Uiso   1.00
C488   C     0.55682   0.18225   0.56715   0.00000  Uiso   1.00
C489   C     0.63732   0.13370   0.54971   0.00000  Uiso   1.00
C490   C     0.39676   0.20007   0.91028   0.00000  Uiso   1.00
H491   H     0.53618   0.20144   0.59631   0.00000  Uiso   1.00
H492   H     0.64974   0.22722   0.92557   0.00000  Uiso   1.00
H493   H     0.45124   0.22153   0.56810   0.00000  Uiso   1.00
H494   H     0.35462   0.24441   0.52507   0.00000  Uiso   1.00
H495   H     0.49213   0.20915   0.86019   0.00000  Uiso   1.00
C496   C     0.35459   0.31930   0.74890   0.00000  Uiso   1.00
H497   H     0.38713   0.00105   0.72743   0.00000  Uiso   1.00
C498   C     0.64942   0.01576   0.76570   0.00000  Uiso   1.00
N499   N     0.47827   0.15223   0.73543   0.00000  Uiso   1.00
N500   N     0.52173   0.18110   0.76458   0.00000  Uiso   1.00
H501   H     0.51001   0.21618   0.77861   0.00000  Uiso   1.00
Br502  Br    0.37153   0.09512   0.57238   0.00000  Uiso   1.00
Br503  Br    0.59700   0.32897   0.81288   0.00000  Uiso   1.00
N504   N     0.49243   0.10352   0.71875   0.00000  Uiso   1.00
O505   O     0.48706   0.06421   0.74870   0.00000  Uiso   1.00
O506   O     0.49752   0.09467   0.66832   0.00000  Uiso   1.00
O507   O     0.96435   0.24629   0.75358   0.00000  Uiso   1.00
O508   O     0.72408   0.23704   0.74424   0.00000  Uiso   1.00
C509   C     0.68184   0.26489   0.75079   0.00000  Uiso   1.00
O510   O     0.98157   0.17358   0.83380   0.00000  Uiso   1.00
O511   O     0.74130   0.16433   0.82446   0.00000  Uiso   1.00
C512   C     0.70486   0.17871   0.85338   0.00000  Uiso   1.00
Zn513  Zn    0.93786   0.17284   0.75624   0.00000  Uiso   1.00
Zn514  Zn    0.72881   0.16049   0.74377   0.00000  Uiso   1.00
O515   O     0.94258   0.09629   0.75577   0.00000  Uiso   1.00
O516   O     0.70231   0.08704   0.74643   0.00000  Uiso   1.00
O517   O     0.92537   0.16901   0.67554   0.00000  Uiso   1.00
O518   O     0.68510   0.15976   0.66620   0.00000  Uiso   1.00
C519   C     0.98627   0.06879   0.75410   0.00000  Uiso   1.00
C520   C     0.96320   0.16165   0.64558   0.00000  Uiso   1.00
C521   C     0.94889   0.13586   0.99359   0.00000  Uiso   1.00
H522   H     0.90863   0.15933   0.89069   0.00000  Uiso   1.00
H523   H     0.97195   0.11842   0.96492   0.00000  Uiso   1.00
C524   C     0.94212   0.15903   0.58654   0.00000  Uiso   1.00
C525   C     0.69441   0.21996   0.94323   0.00000  Uiso   1.00
C526   C     0.71611   0.22997   0.99959   0.00000  Uiso   1.00
C527   C     0.77241   0.21745   0.52380   0.00000  Uiso   1.00
C528   C     0.81028   0.20022   0.99062   0.00000  Uiso   1.00
C529   C     0.79055   0.19901   0.93318   0.00000  Uiso   1.00
C530   C     0.86613   0.18202   0.51138   0.00000  Uiso   1.00
C531   C     0.89861   0.16164   0.97447   0.00000  Uiso   1.00
C532   C     0.88209   0.17010   0.91913   0.00000  Uiso   1.00
C533   C     0.83201   0.19470   0.90052   0.00000  Uiso   1.00
C534   C     0.89016   0.18225   0.56715   0.00000  Uiso   1.00
C535   C     0.97065   0.13370   0.54971   0.00000  Uiso   1.00
C536   C     0.73009   0.20007   0.91028   0.00000  Uiso   1.00
H537   H     0.86951   0.20144   0.59631   0.00000  Uiso   1.00
H538   H     0.98308   0.22722   0.92557   0.00000  Uiso   1.00
H539   H     0.78457   0.22153   0.56810   0.00000  Uiso   1.00
H540   H     0.68795   0.24441   0.52507   0.00000  Uiso   1.00
H541   H     0.82547   0.20915   0.86019   0.00000  Uiso   1.00
C542   C     0.68792   0.31930   0.74890   0.00000  Uiso   1.00
H543   H     0.72047   0.00105   0.72743   0.00000  Uiso   1.00
C544   C     0.98275   0.01576   0.76570   0.00000  Uiso   1.00
N545   N     0.81160   0.15223   0.73543   0.00000  Uiso   1.00
N546   N     0.85507   0.18110   0.76458   0.00000  Uiso   1.00
H547   H     0.84334   0.21618   0.77861   0.00000  Uiso   1.00
Br548  Br    0.70486   0.09512   0.57238   0.00000  Uiso   1.00
Br549  Br    0.93034   0.32897   0.81288   0.00000  Uiso   1.00
N550   N     0.82577   0.10352   0.71875   0.00000  Uiso   1.00
O551   O     0.82040   0.06421   0.74870   0.00000  Uiso   1.00
O552   O     0.83086   0.09467   0.66832   0.00000  Uiso   1.00
O553   O     0.29769   0.57963   0.75358   0.00000  Uiso   1.00
O554   O     0.05742   0.57038   0.74424   0.00000  Uiso   1.00
C555   C     0.01517   0.59822   0.75079   0.00000  Uiso   1.00
O556   O     0.31490   0.50691   0.83380   0.00000  Uiso   1.00
O557   O     0.07463   0.49766   0.82446   0.00000  Uiso   1.00
C558   C     0.03819   0.51204   0.85338   0.00000  Uiso   1.00
Zn559  Zn    0.27119   0.50618   0.75624   0.00000  Uiso   1.00
Zn560  Zn    0.06214   0.49382   0.74377   0.00000  Uiso   1.00
O561   O     0.27592   0.42962   0.75577   0.00000  Uiso   1.00
O562   O     0.03565   0.42037   0.74643   0.00000  Uiso   1.00
O563   O     0.25870   0.50234   0.67554   0.00000  Uiso   1.00
O564   O     0.01843   0.49309   0.66620   0.00000  Uiso   1.00
C565   C     0.31960   0.40212   0.75410   0.00000  Uiso   1.00
C566   C     0.29653   0.49498   0.64558   0.00000  Uiso   1.00
C567   C     0.28222   0.46919   0.99359   0.00000  Uiso   1.00
H568   H     0.24196   0.49267   0.89069   0.00000  Uiso   1.00
H569   H     0.30528   0.45175   0.96492   0.00000  Uiso   1.00
C570   C     0.27546   0.49237   0.58654   0.00000  Uiso   1.00
C571   C     0.02774   0.55329   0.94323   0.00000  Uiso   1.00
C572   C     0.04944   0.56330   0.99959   0.00000  Uiso   1.00
C573   C     0.10574   0.55078   0.52380   0.00000  Uiso   1.00
C574   C     0.14361   0.53355   0.99062   0.00000  Uiso   1.00
C575   C     0.12389   0.53235   0.93318   0.00000  Uiso   1.00
C576   C     0.19946   0.51535   0.51138   0.00000  Uiso   1.00
C577   C     0.23195   0.49498   0.97447   0.00000  Uiso   1.00
C578   C     0.21543   0.50343   0.91913   0.00000  Uiso   1.00
C579   C     0.16535   0.52804   0.90052   0.00000  Uiso   1.00
C580   C     0.22349   0.51558   0.56715   0.00000  Uiso   1.00
C581   C     0.30399   0.46703   0.54971   0.00000  Uiso   1.00
C582   C     0.06343   0.53340   0.91028   0.00000  Uiso   1.00
H583   H     0.20285   0.53477   0.59631   0.00000  Uiso   1.00
H584   H     0.31641   0.56056   0.92557   0.00000  Uiso   1.00
H585   H     0.11790   0.55486   0.56810   0.00000  Uiso   1.00
H586   H     0.02128   0.57775   0.52507   0.00000  Uiso   1.00
H587   H     0.15880   0.54249   0.86019   0.00000  Uiso   1.00
C588   C     0.02126   0.65263   0.74890   0.00000  Uiso   1.00
H589   H     0.05380   0.33439   0.72743   0.00000  Uiso   1.00
C590   C     0.31609   0.34910   0.76570   0.00000  Uiso   1.00
N591   N     0.14493   0.48556   0.73543   0.00000  Uiso   1.00
N592   N     0.18840   0.51444   0.76458   0.00000  Uiso   1.00
H593   H     0.17668   0.54951   0.77861   0.00000  Uiso   1.00
Br594  Br    0.03819   0.42846   0.57238   0.00000  Uiso   1.00
Br595  Br    0.26367   0.66231   0.81288   0.00000  Uiso   1.00
N596   N     0.15910   0.43686   0.71875   0.00000  Uiso   1.00
O597   O     0.15373   0.39754   0.74870   0.00000  Uiso   1.00
O598   O     0.16419   0.42800   0.66832   0.00000  Uiso   1.00
O599   O     0.63102   0.57963   0.75358   0.00000  Uiso   1.00
O600   O     0.39075   0.57038   0.74424   0.00000  Uiso   1.00
C601   C     0.34851   0.59822   0.75079   0.00000  Uiso   1.00
O602   O     0.64823   0.50691   0.83380   0.00000  Uiso   1.00
O603   O     0.40796   0.49766   0.82446   0.00000  Uiso   1.00
C604   C     0.37152   0.51204   0.85338   0.00000  Uiso   1.00
Zn605  Zn    0.60453   0.50618   0.75624   0.00000  Uiso   1.00
Zn606  Zn    0.39547   0.49382   0.74377   0.00000  Uiso   1.00
O607   O     0.60925   0.42962   0.75577   0.00000  Uiso   1.00
O608   O     0.36898   0.42037   0.74643   0.00000  Uiso   1.00
O609   O     0.59204   0.50234   0.67554   0.00000  Uiso   1.00
O610   O     0.35177   0.49309   0.66620   0.00000  Uiso   1.00
C611   C     0.65294   0.40212   0.75410   0.00000  Uiso   1.00
C612   C     0.62987   0.49498   0.64558   0.00000  Uiso   1.00
C613   C     0.61555   0.46919   0.99359   0.00000  Uiso   1.00
H614   H     0.57530   0.49267   0.89069   0.00000  Uiso   1.00
H615   H     0.63862   0.45175   0.96492   0.00000  Uiso   1.00
C616   C     0.60879   0.49237   0.58654   0.00000  Uiso   1.00
C617   C     0.36108   0.55329   0.94323   0.00000  Uiso   1.00
C618   C     0.38278   0.56330   0.99959   0.00000  Uiso   1.00
C619   C     0.43908   0.55078   0.52380   0.00000  Uiso   1.00
C620   C     0.47695   0.53355   0.99062   0.00000  Uiso   1.00
C621   C     0.45722   0.53235   0.93318   0.00000  Uiso   1.00
C622   C     0.53279   0.51535   0.51138   0.00000  Uiso   1.00
C623   C     0.56528   0.49498   0.97447   0.00000  Uiso   1.00
C624   C     0.54876   0.50343   0.91913   0.00000  Uiso   1.00
C625   C     0.49868   0.52804   0.90052   0.00000  Uiso   1.00
C626   C     0.55682   0.51558   0.56715   0.00000  Uiso   1.00
C627   C     0.63732   0.46703   0.54971   0.00000  Uiso   1.00
C628   C     0.39676   0.53340   0.91028   0.00000  Uiso   1.00
H629   H     0.53618   0.53477   0.59631   0.00000  Uiso   1.00
H630   H     0.64974   0.56056   0.92557   0.00000  Uiso   1.00
H631   H     0.45124   0.55486   0.56810   0.00000  Uiso   1.00
H632   H     0.35462   0.57775   0.52507   0.00000  Uiso   1.00
H633   H     0.49213   0.54249   0.86019   0.00000  Uiso   1.00
C634   C     0.35459   0.65263   0.74890   0.00000  Uiso   1.00
H635   H     0.38713   0.33439   0.72743   0.00000  Uiso   1.00
C636   C     0.64942   0.34910   0.76570   0.00000  Uiso   1.00
N637   N     0.47827   0.48556   0.73543   0.00000  Uiso   1.00
N638   N     0.52173   0.51444   0.76458   0.00000  Uiso   1.00
H639   H     0.51001   0.54951   0.77861   0.00000  Uiso   1.00
Br640  Br    0.37153   0.42846   0.57238   0.00000  Uiso   1.00
Br641  Br    0.59700   0.66231   0.81288   0.00000  Uiso   1.00
N642   N     0.49243   0.43686   0.71875   0.00000  Uiso   1.00
O643   O     0.48706   0.39754   0.74870   0.00000  Uiso   1.00
O644   O     0.49752   0.42800   0.66832   0.00000  Uiso   1.00
O645   O     0.96435   0.57963   0.75358   0.00000  Uiso   1.00
O646   O     0.72408   0.57038   0.74424   0.00000  Uiso   1.00
C647   C     0.68184   0.59822   0.75079   0.00000  Uiso   1.00
O648   O     0.98157   0.50691   0.83380   0.00000  Uiso   1.00
O649   O     0.74130   0.49766   0.82446   0.00000  Uiso   1.00
C650   C     0.70486   0.51204   0.85338   0.00000  Uiso   1.00
Zn651  Zn    0.93786   0.50618   0.75624   0.00000  Uiso   1.00
Zn652  Zn    0.72881   0.49382   0.74377   0.00000  Uiso   1.00
O653   O     0.94258   0.42962   0.75577   0.00000  Uiso   1.00
O654   O     0.70231   0.42037   0.74643   0.00000  Uiso   1.00
O655   O     0.92537   0.50234   0.67554   0.00000  Uiso   1.00
O656   O     0.68510   0.49309   0.66620   0.00000  Uiso   1.00
C657   C     0.98627   0.40212   0.75410   0.00000  Uiso   1.00
C658   C     0.96320   0.49498   0.64558   0.00000  Uiso   1.00
C659   C     0.94889   0.46919   0.99359   0.00000  Uiso   1.00
H660   H     0.90863   0.49267   0.89069   0.00000  Uiso   1.00
H661   H     0.97195   0.45175   0.96492   0.00000  Uiso   1.00
C662   C     0.94212   0.49237   0.58654   0.00000  Uiso   1.00
C663   C     0.69441   0.55329   0.94323   0.00000  Uiso   1.00
C664   C     0.71611   0.56330   0.99959   0.00000  Uiso   1.00
C665   C     0.77241   0.55078   0.52380   0.00000  Uiso   1.00
C666   C     0.81028   0.53355   0.99062   0.00000  Uiso   1.00
C667   C     0.79055   0.53235   0.93318   0.00000  Uiso   1.00
C668   C     0.86613   0.51535   0.51138   0.00000  Uiso   1.00
C669   C     0.89861   0.49498   0.97447   0.00000  Uiso   1.00
C670   C     0.88209   0.50343   0.91913   0.00000  Uiso   1.00
C671   C     0.83201   0.52804   0.90052   0.00000  Uiso   1.00
C672   C     0.89016   0.51558   0.56715   0.00000  Uiso   1.00
C673   C     0.97065   0.46703   0.54971   0.00000  Uiso   1.00
C674   C     0.73009   0.53340   0.91028   0.00000  Uiso   1.00
H675   H     0.86951   0.53477   0.59631   0.00000  Uiso   1.00
H676   H     0.98308   0.56056   0.92557   0.00000  Uiso   1.00
H677   H     0.78457   0.55486   0.56810   0.00000  Uiso   1.00
H678   H     0.68795   0.57775   0.52507   0.00000  Uiso   1.00
H679   H     0.82547   0.54249   0.86019   0.00000  Uiso   1.00
C680   C     0.68792   0.65263   0.74890   0.00000  Uiso   1.00
H681   H     0.72047   0.33439   0.72743   0.00000  Uiso   1.00
C682   C     0.98275   0.34910   0.76570   0.00000  Uiso   1.00
N683   N     0.81160   0.48556   0.73543   0.00000  Uiso   1.00
N684   N     0.85507   0.51444   0.76458   0.00000  Uiso   1.00
H685   H     0.84334   0.54951   0.77861   0.00000  Uiso   1.00
Br686  Br    0.70486   0.42846   0.57238   0.00000  Uiso   1.00
Br687  Br    0.93034   0.66231   0.81288   0.00000  Uiso   1.00
N688   N     0.82577   0.43686   0.71875   0.00000  Uiso   1.00
O689   O     0.82040   0.39754   0.74870   0.00000  Uiso   1.00
O690   O     0.83086   0.42800   0.66832   0.00000  Uiso   1.00
O691   O     0.29769   0.91296   0.75358   0.00000  Uiso   1.00
O692   O     0.05742   0.90371   0.74424   0.00000  Uiso   1.00
C693   C     0.01517   0.93156   0.75079   0.00000  Uiso   1.00
O694   O     0.31490   0.84024   0.83380   0.00000  Uiso   1.00
O695   O     0.07463   0.83099   0.82446   0.00000  Uiso   1.00
C696   C     0.03819   0.84537   0.85338   0.00000  Uiso   1.00
Zn697  Zn    0.27119   0.83951   0.75624   0.00000  Uiso   1.00
Zn698  Zn    0.06214   0.82716   0.74377   0.00000  Uiso   1.00
O699   O     0.27592   0.76296   0.75577   0.00000  Uiso   1.00
O700   O     0.03565   0.75371   0.74643   0.00000  Uiso   1.00
O701   O     0.25870   0.83567   0.67554   0.00000  Uiso   1.00
O702   O     0.01843   0.82642   0.66620   0.00000  Uiso   1.00
C703   C     0.31960   0.73546   0.75410   0.00000  Uiso   1.00
C704   C     0.29653   0.82831   0.64558   0.00000  Uiso   1.00
C705   C     0.28222   0.80252   0.99359   0.00000  Uiso   1.00
H706   H     0.24196   0.82600   0.89069   0.00000  Uiso   1.00
H707   H     0.30528   0.78508   0.96492   0.00000  Uiso   1.00
C708   C     0.27546   0.82570   0.58654   0.00000  Uiso   1.00
C709   C     0.02774   0.88662   0.94323   0.00000  Uiso   1.00
C710   C     0.04944   0.89664   0.99959   0.00000  Uiso   1.00
C711   C     0.10574   0.88412   0.52380   0.00000  Uiso   1.00
C712   C     0.14361   0.86689   0.99062   0.00000  Uiso   1.00
C713   C     0.12389   0.86568   0.93318   0.00000  Uiso   1.00
C714   C     0.19946   0.84869   0.51138   0.00000  Uiso   1.00
C715   C     0.23195   0.82831   0.97447   0.00000  Uiso   1.00
C716   C     0.21543   0.83677   0.91913   0.00000  Uiso   1.00
C717   C     0.16535   0.86137   0.90052   0.00000  Uiso   1.00
C718   C     0.22349   0.84891   0.56715   0.00000  Uiso   1.00
C719   C     0.30399   0.80037   0.54971   0.00000  Uiso   1.00
C720   C     0.06343   0.86674   0.91028   0.00000  Uiso   1.00
H721   H     0.20285   0.86810   0.59631   0.00000  Uiso   1.00
H722   H     0.31641   0.89389   0.92557   0.00000  Uiso   1.00
H723   H     0.11790   0.88820   0.56810   0.00000  Uiso   1.00
H724   H     0.02128   0.91108   0.52507   0.00000  Uiso   1.00
H725   H     0.15880   0.87582   0.86019   0.00000  Uiso   1.00
C726   C     0.02126   0.98597   0.74890   0.00000  Uiso   1.00
H727   H     0.05380   0.66772   0.72743   0.00000  Uiso   1.00
C728   C     0.31609   0.68243   0.76570   0.00000  Uiso   1.00
N729   N     0.14493   0.81890   0.73543   0.00000  Uiso   1.00
N730   N     0.18840   0.84777   0.76458   0.00000  Uiso   1.00
H731   H     0.17668   0.88285   0.77861   0.00000  Uiso   1.00
Br732  Br    0.03819   0.76179   0.57238   0.00000  Uiso   1.00
Br733  Br    0.26367   0.99564   0.81288   0.00000  Uiso   1.00
N734   N     0.15910   0.77019   0.71875   0.00000  Uiso   1.00
O735   O     0.15373   0.73087   0.74870   0.00000  Uiso   1.00
O736   O     0.16419   0.76134   0.66832   0.00000  Uiso   1.00
O737   O     0.63102   0.91296   0.75358   0.00000  Uiso   1.00
O738   O     0.39075   0.90371   0.74424   0.00000  Uiso   1.00
C739   C     0.34851   0.93156   0.75079   0.00000  Uiso   1.00
O740   O     0.64823   0.84024   0.83380   0.00000  Uiso   1.00
O741   O     0.40796   0.83099   0.82446   0.00000  Uiso   1.00
C742   C     0.37152   0.84537   0.85338   0.00000  Uiso   1.00
Zn743  Zn    0.60453   0.83951   0.75624   0.00000  Uiso   1.00
Zn744  Zn    0.39547   0.82716   0.74377   0.00000  Uiso   1.00
O745   O     0.60925   0.76296   0.75577   0.00000  Uiso   1.00
O746   O     0.36898   0.75371   0.74643   0.00000  Uiso   1.00
O747   O     0.59204   0.83567   0.67554   0.00000  Uiso   1.00
O748   O     0.35177   0.82642   0.66620   0.00000  Uiso   1.00
C749   C     0.65294   0.73546   0.75410   0.00000  Uiso   1.00
C750   C     0.62987   0.82831   0.64558   0.00000  Uiso   1.00
C751   C     0.61555   0.80252   0.99359   0.00000  Uiso   1.00
H752   H     0.57530   0.82600   0.89069   0.00000  Uiso   1.00
H753   H     0.63862   0.78508   0.96492   0.00000  Uiso   1.00
C754   C     0.60879   0.82570   0.58654   0.00000  Uiso   1.00
C755   C     0.36108   0.88662   0.94323   0.00000  Uiso   1.00
C756   C     0.38278   0.89664   0.99959   0.00000  Uiso   1.00
C757   C     0.43908   0.88412   0.52380   0.00000  Uiso   1.00
C758   C     0.47695   0.86689   0.99062   0.00000  Uiso   1.00
C759   C     0.45722   0.86568   0.93318   0.00000  Uiso   1.00
C760   C     0.53279   0.84869   0.51138   0.00000  Uiso   1.00
C761   C     0.56528   0.82831   0.97447   0.00000  Uiso   1.00
C762   C     0.54876   0.83677   0.91913   0.00000  Uiso   1.00
C763   C     0.49868   0.86137   0.90052   0.00000  Uiso   1.00
C764   C     0.55682   0.84891   0.56715   0.00000  Uiso   1.00
C765   C     0.63732   0.80037   0.54971   0.00000  Uiso   1.00
C766   C     0.39676   0.86674   0.91028   0.00000  Uiso   1.00
H767   H     0.53618   0.86810   0.59631   0.00000  Uiso   1.00
H768   H     0.64974   0.89389   0.92557   0.00000  Uiso   1.00
H769   H     0.45124   0.88820   0.56810   0.00000  Uiso   1.00
H770   H     0.35462   0.91108   0.52507   0.00000  Uiso   1.00
H771   H     0.49213   0.87582   0.86019   0.00000  Uiso   1.00
C772   C     0.35459   0.98597   0.74890   0.00000  Uiso   1.00
H773   H     0.38713   0.66772   0.72743   0.00000  Uiso   1.00
C774   C     0.64942   0.68243   0.76570   0.00000  Uiso   1.00
N775   N     0.47827   0.81890   0.73543   0.00000  Uiso   1.00
N776   N     0.52173   0.84777   0.76458   0.00000  Uiso   1.00
H777   H     0.51001   0.88285   0.77861   0.00000  Uiso   1.00
Br778  Br    0.37153   0.76179   0.57238   0.00000  Uiso   1.00
Br779  Br    0.59700   0.99564   0.81288   0.00000  Uiso   1.00
N780   N     0.49243   0.77019   0.71875   0.00000  Uiso   1.00
O781   O     0.48706   0.73087   0.74870   0.00000  Uiso   1.00
O782   O     0.49752   0.76134   0.66832   0.00000  Uiso   1.00
O783   O     0.96435   0.91296   0.75358   0.00000  Uiso   1.00
O784   O     0.72408   0.90371   0.74424   0.00000  Uiso   1.00
C785   C     0.68184   0.93156   0.75079   0.00000  Uiso   1.00
O786   O     0.98157   0.84024   0.83380   0.00000  Uiso   1.00
O787   O     0.74130   0.83099   0.82446   0.00000  Uiso   1.00
C788   C     0.70486   0.84537   0.85338   0.00000  Uiso   1.00
Zn789  Zn    0.93786   0.83951   0.75624   0.00000  Uiso   1.00
Zn790  Zn    0.72881   0.82716   0.74377   0.00000  Uiso   1.00
O791   O     0.94258   0.76296   0.75577   0.00000  Uiso   1.00
O792   O     0.70231   0.75371   0.74643   0.00000  Uiso   1.00
O793   O     0.92537   0.83567   0.67554   0.00000  Uiso   1.00
O794   O     0.68510   0.82642   0.66620   0.00000  Uiso   1.00
C795   C     0.98627   0.73546   0.75410   0.00000  Uiso   1.00
C796   C     0.96320   0.82831   0.64558   0.00000  Uiso   1.00
C797   C     0.94889   0.80252   0.99359   0.00000  Uiso   1.00
H798   H     0.90863   0.82600   0.89069   0.00000  Uiso   1.00
H799   H     0.97195   0.78508   0.96492   0.00000  Uiso   1.00
C800   C     0.94212   0.82570   0.58654   0.00000  Uiso   1.00
C801   C     0.69441   0.88662   0.94323   0.00000  Uiso   1.00
C802   C     0.71611   0.89664   0.99959   0.00000  Uiso   1.00
C803   C     0.77241   0.88412   0.52380   0.00000  Uiso   1.00
C804   C     0.81028   0.86689   0.99062   0.00000  Uiso   1.00
C805   C     0.79055   0.86568   0.93318   0.00000  Uiso   1.00
C806   C     0.86613   0.84869   0.51138   0.00000  Uiso   1.00
C807   C     0.89861   0.82831   0.97447   0.00000  Uiso   1.00
C808   C     0.88209   0.83677   0.91913   0.00000  Uiso   1.00
C809   C     0.83201   0.86137   0.90052   0.00000  Uiso   1.00
C810   C     0.89016   0.84891   0.56715   0.00000  Uiso   1.00
C811   C     0.97065   0.80037   0.54971   0.00000  Uiso   1.00
C812   C     0.73009   0.86674   0.91028   0.00000  Uiso   1.00
H813   H     0.86951   0.86810   0.59631   0.00000  Uiso   1.00
H814   H     0.98308   0.89389   0.92557   0.00000  Uiso   1.00
H815   H     0.78457   0.88820   0.56810   0.00000  Uiso   1.00
H816   H     0.68795   0.91108   0.52507   0.00000  Uiso   1.00
H817   H     0.82547   0.87582   0.86019   0.00000  Uiso   1.00
C818   C     0.68792   0.98597   0.74890   0.00000  Uiso   1.00
H819   H     0.72047   0.66772   0.72743   0.00000  Uiso   1.00
C820   C     0.98275   0.68243   0.76570   0.00000  Uiso   1.00
N821   N     0.81160   0.81890   0.73543   0.00000  Uiso   1.00
N822   N     0.85507   0.84777   0.76458   0.00000  Uiso   1.00
H823   H     0.84334   0.88285   0.77861   0.00000  Uiso   1.00
Br824  Br    0.70486   0.76179   0.57238   0.00000  Uiso   1.00
Br825  Br    0.93034   0.99564   0.81288   0.00000  Uiso   1.00
N826   N     0.82577   0.77019   0.71875   0.00000  Uiso   1.00
O827   O     0.82040   0.73087   0.74870   0.00000  Uiso   1.00
O828   O     0.83086   0.76134   0.66832   0.00000  Uiso   1.00
loop_
_geom_bond_atom_site_label_1
_geom_bond_atom_site_label_2
_geom_bond_distance
_geom_bond_site_symmetry_2
_ccdc_geom_bond_type
O1     Zn7     1.958   .     S
O1     C49     1.276   .     S
O2     C3      1.295   .     A
O2     Zn8     1.977   .     S
C3     C36     1.400   .     S
C3     O93     1.276   1_455 S
O4     Zn7     1.982   .     S
O4     C52     1.311   .     S
O5     Zn8     1.966   .     S
O5     C6      1.294   .     A
C6     C30     1.479   .     S
C6     O96     1.311   1_455 S
Zn7    N40     2.026   .     S
Zn7    O11     1.966   .     S
Zn7    O9      1.977   .     S
Zn8    N39     2.026   .     S
Zn8    O12     1.982   .     S
Zn8    O10     1.958   .     S
O9     C13     1.291   .     A
O10    C105    1.281   1_455 S
O11    C14     1.297   .     A
O12    C106    1.294   1_455 S
C13    C38     1.407   .     S
C13    O56     1.281   .     S
C14    C18     1.444   .     S
C14    O58     1.294   .     S
C15    H17     1.084   .     S
C15    C25     1.396   .     A
C15    C443    1.387   .     S
H16    C26     1.079   .     S
C18    C29     1.409   .     A
C18    C28     1.395   .     A
C19    C20     1.393   .     A
C19    C30     1.398   .     A
C19    H124    1.079   1_455 S
C20    C435    1.395   .     S
C20    H448    1.083   .     S
C21    H33     1.077   .     S
C21    C434    1.395   1_554 S
C21    C436    1.418   1_554 S
C22    C23     1.405   .     A
C22    C435    1.418   .     S
C22    C438    1.421   .     S
C23    C27     1.406   .     A
C23    C30     1.415   .     A
C24    C28     1.382   .     A
C24    C436    1.421   1_554 S
C24    C439    1.420   1_554 S
C25    C26     1.381   .     A
C25    C438    1.420   .     S
C26    C27     1.374   .     A
C27    H35     1.071   .     S
C28    H31     1.076   .     S
C29    C429    1.387   1_554 S
C29    Br88    1.921   .     S
H32    C65     1.079   .     S
H34    C434    1.083   1_554 S
C36    H175    1.087   .     S
C36    C268    1.344   1_455 S
H37    C312    1.087   1_545 S
C38    C358    1.344   1_545 S
C38    Br319   1.943   1_545 S
N39    N44     1.384   .     S
N39    N40     1.286   .     D
N40    H41     1.027   .     S
Br42   C121    1.921   1_455 S
Br43   C176    1.943   .     S
N44    O45     1.300   .     A
N44    O46     1.300   .     A
O47    Zn53    1.958   .     S
O47    C95     1.276   .     S
O48    C49     1.295   .     A
O48    Zn54    1.977   .     S
C49    C82     1.400   .     S
O50    Zn53    1.982   .     S
O50    C98     1.311   .     S
O51    Zn54    1.966   .     S
O51    C52     1.294   .     A
C52    C76     1.479   .     S
Zn53   N86     2.026   .     S
Zn53   O57     1.966   .     S
Zn53   O55     1.977   .     S
Zn54   N85     2.026   .     S
Zn54   O58     1.982   .     S
Zn54   O56     1.958   .     S
O55    C59     1.291   .     A
O57    C60     1.297   .     A
C59    C84     1.407   .     S
C59    O102    1.281   .     S
C60    C64     1.444   .     S
C60    O104    1.294   .     S
C61    H63     1.084   .     S
C61    C71     1.396   .     A
C61    C489    1.387   .     S
H62    C72     1.079   .     S
C64    C75     1.409   .     A
C64    C74     1.395   .     A
C65    C66     1.393   .     A
C65    C76     1.398   .     A
C66    C481    1.395   .     S
C66    H494    1.083   .     S
C67    H79     1.077   .     S
C67    C480    1.395   1_554 S
C67    C482    1.418   1_554 S
C68    C69     1.405   .     A
C68    C481    1.418   .     S
C68    C484    1.421   .     S
C69    C73     1.406   .     A
C69    C76     1.415   .     A
C70    C74     1.382   .     A
C70    C482    1.421   1_554 S
C70    C485    1.420   1_554 S
C71    C72     1.381   .     A
C71    C484    1.420   .     S
C72    C73     1.374   .     A
C73    H81     1.071   .     S
C74    H77     1.076   .     S
C75    C475    1.387   1_554 S
C75    Br134   1.921   .     S
H78    C111    1.079   .     S
H80    C480    1.083   1_554 S
C82    H221    1.087   .     S
C82    C176    1.344   .     S
H83    C358    1.087   1_545 S
C84    C404    1.344   1_545 S
C84    Br365   1.943   1_545 S
N85    N90     1.384   .     S
N85    N86     1.286   .     D
N86    H87     1.027   .     S
Br89   C222    1.943   .     S
N90    O91     1.300   .     A
N90    O92     1.300   .     A
O93    Zn99    1.958   .     S
O93    C3      1.276   1_655 S
O94    C95     1.295   .     A
O94    Zn100   1.977   .     S
C95    C128    1.400   .     S
O96    Zn99    1.982   .     S
O96    C6      1.311   1_655 S
O97    Zn100   1.966   .     S
O97    C98     1.294   .     A
C98    C122    1.479   .     S
Zn99   N132    2.026   .     S
Zn99   O103    1.966   .     S
Zn99   O101    1.977   .     S
Zn100  N131    2.026   .     S
Zn100  O104    1.982   .     S
Zn100  O102    1.958   .     S
O101   C105    1.291   .     A
O103   C106    1.297   .     A
C105   C130    1.407   .     S
C105   O10     1.281   1_655 S
C106   C110    1.444   .     S
C106   O12     1.294   1_655 S
C107   H109    1.084   .     S
C107   C117    1.396   .     A
C107   C535    1.387   .     S
H108   C118    1.079   .     S
C110   C121    1.409   .     A
C110   C120    1.395   .     A
C111   C112    1.393   .     A
C111   C122    1.398   .     A
C112   C527    1.395   .     S
C112   H540    1.083   .     S
C113   H125    1.077   .     S
C113   C526    1.395   1_554 S
C113   C528    1.418   1_554 S
C114   C115    1.405   .     A
C114   C527    1.418   .     S
C114   C530    1.421   .     S
C115   C119    1.406   .     A
C115   C122    1.415   .     A
C116   C120    1.382   .     A
C116   C528    1.421   1_554 S
C116   C531    1.420   1_554 S
C117   C118    1.381   .     A
C117   C530    1.420   .     S
C118   C119    1.374   .     A
C119   H127    1.071   .     S
C120   H123    1.076   .     S
C121   C521    1.387   1_554 S
C121   Br42    1.921   1_655 S
H124   C19     1.079   1_655 S
H126   C526    1.083   1_554 S
C128   H267    1.087   .     S
C128   C222    1.344   .     S
H129   C404    1.087   1_545 S
C130   C312    1.344   1_645 S
C130   Br411   1.943   1_545 S
N131   N136    1.384   .     S
N131   N132    1.286   .     D
N132   H133    1.027   .     S
Br135  C268    1.943   .     S
N136   O137    1.300   .     A
N136   O138    1.300   .     A
O139   Zn145   1.958   .     S
O139   C187    1.276   .     S
O140   C141    1.295   .     A
O140   Zn146   1.977   .     S
C141   C174    1.400   .     S
C141   O231    1.276   1_455 S
O142   Zn145   1.982   .     S
O142   C190    1.311   .     S
O143   Zn146   1.966   .     S
O143   C144    1.294   .     A
C144   C168    1.479   .     S
C144   O234    1.311   1_455 S
Zn145  N178    2.026   .     S
Zn145  O149    1.966   .     S
Zn145  O147    1.977   .     S
Zn146  N177    2.026   .     S
Zn146  O150    1.982   .     S
Zn146  O148    1.958   .     S
O147   C151    1.291   .     A
O148   C243    1.281   1_455 S
O149   C152    1.297   .     A
O150   C244    1.294   1_455 S
C151   C176    1.407   .     S
C151   O194    1.281   .     S
C152   C156    1.444   .     S
C152   O196    1.294   .     S
C153   H155    1.084   .     S
C153   C163    1.396   .     A
C153   C581    1.387   .     S
H154   C164    1.079   .     S
C156   C167    1.409   .     A
C156   C166    1.395   .     A
C157   C158    1.393   .     A
C157   C168    1.398   .     A
C157   H262    1.079   1_455 S
C158   C573    1.395   .     S
C158   H586    1.083   .     S
C159   H171    1.077   .     S
C159   C572    1.395   1_554 S
C159   C574    1.418   1_554 S
C160   C161    1.405   .     A
C160   C573    1.418   .     S
C160   C576    1.421   .     S
C161   C165    1.406   .     A
C161   C168    1.415   .     A
C162   C166    1.382   .     A
C162   C574    1.421   1_554 S
C162   C577    1.420   1_554 S
C163   C164    1.381   .     A
C163   C576    1.420   .     S
C164   C165    1.374   .     A
C165   H173    1.071   .     S
C166   H169    1.076   .     S
C167   C567    1.387   1_554 S
C167   Br226   1.921   .     S
H170   C203    1.079   .     S
H172   C572    1.083   1_554 S
C174   H313    1.087   .     S
C174   C406    1.344   1_455 S
N177   N182    1.384   .     S
N177   N178    1.286   .     D
N178   H179    1.027   .     S
Br180  C259    1.921   1_455 S
Br181  C314    1.943   .     S
N182   O183    1.300   .     A
N182   O184    1.300   .     A
O185   Zn191   1.958   .     S
O185   C233    1.276   .     S
O186   C187    1.295   .     A
O186   Zn192   1.977   .     S
C187   C220    1.400   .     S
O188   Zn191   1.982   .     S
O188   C236    1.311   .     S
O189   Zn192   1.966   .     S
O189   C190    1.294   .     A
C190   C214    1.479   .     S
Zn191  N224    2.026   .     S
Zn191  O195    1.966   .     S
Zn191  O193    1.977   .     S
Zn192  N223    2.026   .     S
Zn192  O196    1.982   .     S
Zn192  O194    1.958   .     S
O193   C197    1.291   .     A
O195   C198    1.297   .     A
C197   C222    1.407   .     S
C197   O240    1.281   .     S
C198   C202    1.444   .     S
C198   O242    1.294   .     S
C199   H201    1.084   .     S
C199   C209    1.396   .     A
C199   C627    1.387   .     S
H200   C210    1.079   .     S
C202   C213    1.409   .     A
C202   C212    1.395   .     A
C203   C204    1.393   .     A
C203   C214    1.398   .     A
C204   C619    1.395   .     S
C204   H632    1.083   .     S
C205   H217    1.077   .     S
C205   C618    1.395   1_554 S
C205   C620    1.418   1_554 S
C206   C207    1.405   .     A
C206   C619    1.418   .     S
C206   C622    1.421   .     S
C207   C211    1.406   .     A
C207   C214    1.415   .     A
C208   C212    1.382   .     A
C208   C620    1.421   1_554 S
C208   C623    1.420   1_554 S
C209   C210    1.381   .     A
C209   C622    1.420   .     S
C210   C211    1.374   .     A
C211   H219    1.071   .     S
C212   H215    1.076   .     S
C213   C613    1.387   1_554 S
C213   Br272   1.921   .     S
H216   C249    1.079   .     S
H218   C618    1.083   1_554 S
C220   H359    1.087   .     S
C220   C314    1.344   .     S
N223   N228    1.384   .     S
N223   N224    1.286   .     D
N224   H225    1.027   .     S
Br227  C360    1.943   .     S
N228   O229    1.300   .     A
N228   O230    1.300   .     A
O231   Zn237   1.958   .     S
O231   C141    1.276   1_655 S
O232   C233    1.295   .     A
O232   Zn238   1.977   .     S
C233   C266    1.400   .     S
O234   Zn237   1.982   .     S
O234   C144    1.311   1_655 S
O235   Zn238   1.966   .     S
O235   C236    1.294   .     A
C236   C260    1.479   .     S
Zn237  N270    2.026   .     S
Zn237  O241    1.966   .     S
Zn237  O239    1.977   .     S
Zn238  N269    2.026   .     S
Zn238  O242    1.982   .     S
Zn238  O240    1.958   .     S
O239   C243    1.291   .     A
O241   C244    1.297   .     A
C243   C268    1.407   .     S
C243   O148    1.281   1_655 S
C244   C248    1.444   .     S
C244   O150    1.294   1_655 S
C245   H247    1.084   .     S
C245   C255    1.396   .     A
C245   C673    1.387   .     S
H246   C256    1.079   .     S
C248   C259    1.409   .     A
C248   C258    1.395   .     A
C249   C250    1.393   .     A
C249   C260    1.398   .     A
C250   C665    1.395   .     S
C250   H678    1.083   .     S
C251   H263    1.077   .     S
C251   C664    1.395   1_554 S
C251   C666    1.418   1_554 S
C252   C253    1.405   .     A
C252   C665    1.418   .     S
C252   C668    1.421   .     S
C253   C257    1.406   .     A
C253   C260    1.415   .     A
C254   C258    1.382   .     A
C254   C666    1.421   1_554 S
C254   C669    1.420   1_554 S
C255   C256    1.381   .     A
C255   C668    1.420   .     S
C256   C257    1.374   .     A
C257   H265    1.071   .     S
C258   H261    1.076   .     S
C259   C659    1.387   1_554 S
C259   Br180   1.921   1_655 S
H262   C157    1.079   1_655 S
H264   C664    1.083   1_554 S
C266   H405    1.087   .     S
C266   C360    1.344   .     S
C268   C36     1.344   1_655 S
N269   N274    1.384   .     S
N269   N270    1.286   .     D
N270   H271    1.027   .     S
Br273  C406    1.943   .     S
N274   O275    1.300   .     A
N274   O276    1.300   .     A
O277   Zn283   1.958   .     S
O277   C325    1.276   .     S
O278   C279    1.295   .     A
O278   Zn284   1.977   .     S
C279   C312    1.400   .     S
C279   O369    1.276   1_455 S
O280   Zn283   1.982   .     S
O280   C328    1.311   .     S
O281   Zn284   1.966   .     S
O281   C282    1.294   .     A
C282   C306    1.479   .     S
C282   O372    1.311   1_455 S
Zn283  N316    2.026   .     S
Zn283  O287    1.966   .     S
Zn283  O285    1.977   .     S
Zn284  N315    2.026   .     S
Zn284  O288    1.982   .     S
Zn284  O286    1.958   .     S
O285   C289    1.291   .     A
O286   C381    1.281   1_455 S
O287   C290    1.297   .     A
O288   C382    1.294   1_455 S
C289   C314    1.407   .     S
C289   O332    1.281   .     S
C290   C294    1.444   .     S
C290   O334    1.294   .     S
C291   H293    1.084   .     S
C291   C301    1.396   .     A
C291   C719    1.387   .     S
H292   C302    1.079   .     S
C294   C305    1.409   .     A
C294   C304    1.395   .     A
C295   C296    1.393   .     A
C295   C306    1.398   .     A
C295   H400    1.079   1_455 S
C296   C711    1.395   .     S
C296   H724    1.083   .     S
C297   H309    1.077   .     S
C297   C710    1.395   1_554 S
C297   C712    1.418   1_554 S
C298   C299    1.405   .     A
C298   C711    1.418   .     S
C298   C714    1.421   .     S
C299   C303    1.406   .     A
C299   C306    1.415   .     A
C300   C304    1.382   .     A
C300   C712    1.421   1_554 S
C300   C715    1.420   1_554 S
C301   C302    1.381   .     A
C301   C714    1.420   .     S
C302   C303    1.374   .     A
C303   H311    1.071   .     S
C304   H307    1.076   .     S
C305   C705    1.387   1_554 S
C305   Br364   1.921   .     S
H308   C341    1.079   .     S
H310   C710    1.083   1_554 S
C312   H37     1.087   1_565 S
C312   C130    1.344   1_465 S
N315   N320    1.384   .     S
N315   N316    1.286   .     D
N316   H317    1.027   .     S
Br318  C397    1.921   1_455 S
Br319  C38     1.943   1_565 S
N320   O321    1.300   .     A
N320   O322    1.300   .     A
O323   Zn329   1.958   .     S
O323   C371    1.276   .     S
O324   C325    1.295   .     A
O324   Zn330   1.977   .     S
C325   C358    1.400   .     S
O326   Zn329   1.982   .     S
O326   C374    1.311   .     S
O327   Zn330   1.966   .     S
O327   C328    1.294   .     A
C328   C352    1.479   .     S
Zn329  N362    2.026   .     S
Zn329  O333    1.966   .     S
Zn329  O331    1.977   .     S
Zn330  N361    2.026   .     S
Zn330  O334    1.982   .     S
Zn330  O332    1.958   .     S
O331   C335    1.291   .     A
O333   C336    1.297   .     A
C335   C360    1.407   .     S
C335   O378    1.281   .     S
C336   C340    1.444   .     S
C336   O380    1.294   .     S
C337   H339    1.084   .     S
C337   C347    1.396   .     A
C337   C765    1.387   .     S
H338   C348    1.079   .     S
C340   C351    1.409   .     A
C340   C350    1.395   .     A
C341   C342    1.393   .     A
C341   C352    1.398   .     A
C342   C757    1.395   .     S
C342   H770    1.083   .     S
C343   H355    1.077   .     S
C343   C756    1.395   1_554 S
C343   C758    1.418   1_554 S
C344   C345    1.405   .     A
C344   C757    1.418   .     S
C344   C760    1.421   .     S
C345   C349    1.406   .     A
C345   C352    1.415   .     A
C346   C350    1.382   .     A
C346   C758    1.421   1_554 S
C346   C761    1.420   1_554 S
C347   C348    1.381   .     A
C347   C760    1.420   .     S
C348   C349    1.374   .     A
C349   H357    1.071   .     S
C350   H353    1.076   .     S
C351   C751    1.387   1_554 S
C351   Br410   1.921   .     S
H354   C387    1.079   .     S
H356   C756    1.083   1_554 S
C358   H83     1.087   1_565 S
C358   C38     1.344   1_565 S
N361   N366    1.384   .     S
N361   N362    1.286   .     D
N362   H363    1.027   .     S
Br365  C84     1.943   1_565 S
N366   O367    1.300   .     A
N366   O368    1.300   .     A
O369   Zn375   1.958   .     S
O369   C279    1.276   1_655 S
O370   C371    1.295   .     A
O370   Zn376   1.977   .     S
C371   C404    1.400   .     S
O372   Zn375   1.982   .     S
O372   C282    1.311   1_655 S
O373   Zn376   1.966   .     S
O373   C374    1.294   .     A
C374   C398    1.479   .     S
Zn375  N408    2.026   .     S
Zn375  O379    1.966   .     S
Zn375  O377    1.977   .     S
Zn376  N407    2.026   .     S
Zn376  O380    1.982   .     S
Zn376  O378    1.958   .     S
O377   C381    1.291   .     A
O379   C382    1.297   .     A
C381   C406    1.407   .     S
C381   O286    1.281   1_655 S
C382   C386    1.444   .     S
C382   O288    1.294   1_655 S
C383   H385    1.084   .     S
C383   C393    1.396   .     A
C383   C811    1.387   .     S
H384   C394    1.079   .     S
C386   C397    1.409   .     A
C386   C396    1.395   .     A
C387   C388    1.393   .     A
C387   C398    1.398   .     A
C388   C803    1.395   .     S
C388   H816    1.083   .     S
C389   H401    1.077   .     S
C389   C802    1.395   1_554 S
C389   C804    1.418   1_554 S
C390   C391    1.405   .     A
C390   C803    1.418   .     S
C390   C806    1.421   .     S
C391   C395    1.406   .     A
C391   C398    1.415   .     A
C392   C396    1.382   .     A
C392   C804    1.421   1_554 S
C392   C807    1.420   1_554 S
C393   C394    1.381   .     A
C393   C806    1.420   .     S
C394   C395    1.374   .     A
C395   H403    1.071   .     S
C396   H399    1.076   .     S
C397   C797    1.387   1_554 S
C397   Br318   1.921   1_655 S
H400   C295    1.079   1_655 S
H402   C802    1.083   1_554 S
C404   H129    1.087   1_565 S
C404   C84     1.344   1_565 S
C406   C174    1.344   1_655 S
N407   N412    1.384   .     S
N407   N408    1.286   .     D
N408   H409    1.027   .     S
Br411  C130    1.943   1_565 S
N412   O413    1.300   .     A
N412   O414    1.300   .     A
O415   Zn421   1.958   .     S
O415   C463    1.276   .     S
O416   C417    1.295   .     A
O416   Zn422   1.977   .     S
C417   C450    1.400   .     S
C417   O507    1.276   1_455 S
O418   Zn421   1.982   .     S
O418   C466    1.311   .     S
O419   Zn422   1.966   .     S
O419   C420    1.294   .     A
C420   C444    1.479   .     S
C420   O510    1.311   1_455 S
Zn421  N454    2.026   .     S
Zn421  O425    1.966   .     S
Zn421  O423    1.977   .     S
Zn422  N453    2.026   .     S
Zn422  O426    1.982   .     S
Zn422  O424    1.958   .     S
O423   C427    1.291   .     A
O424   C519    1.281   1_455 S
O425   C428    1.297   .     A
O426   C520    1.294   1_455 S
C427   C452    1.407   .     S
C427   O470    1.281   .     S
C428   C432    1.444   .     S
C428   O472    1.294   .     S
C429   H431    1.084   .     S
C429   C439    1.396   .     A
C429   C29     1.387   1_556 S
H430   C440    1.079   .     S
C432   C443    1.409   .     A
C432   C442    1.395   .     A
C433   C434    1.393   .     A
C433   C444    1.398   .     A
C433   H538    1.079   1_455 S
C434   C21     1.395   1_556 S
C434   H34     1.083   1_556 S
C435   H447    1.077   .     S
C436   C437    1.405   .     A
C436   C21     1.418   1_556 S
C436   C24     1.421   1_556 S
C437   C441    1.406   .     A
C437   C444    1.415   .     A
C438   C442    1.382   .     A
C439   C440    1.381   .     A
C439   C24     1.420   1_556 S
C440   C441    1.374   .     A
C441   H449    1.071   .     S
C442   H445    1.076   .     S
C443   Br502   1.921   .     S
H446   C479    1.079   .     S
C450   H589    1.087   .     S
C450   C682    1.344   1_455 S
H451   C726    1.087   1_545 S
C452   C772    1.344   1_545 S
C452   Br733   1.943   1_545 S
N453   N458    1.384   .     S
N453   N454    1.286   .     D
N454   H455    1.027   .     S
Br456  C535    1.921   1_455 S
Br457  C590    1.943   .     S
N458   O459    1.300   .     A
N458   O460    1.300   .     A
O461   Zn467   1.958   .     S
O461   C509    1.276   .     S
O462   C463    1.295   .     A
O462   Zn468   1.977   .     S
C463   C496    1.400   .     S
O464   Zn467   1.982   .     S
O464   C512    1.311   .     S
O465   Zn468   1.966   .     S
O465   C466    1.294   .     A
C466   C490    1.479   .     S
Zn467  N500    2.026   .     S
Zn467  O471    1.966   .     S
Zn467  O469    1.977   .     S
Zn468  N499    2.026   .     S
Zn468  O472    1.982   .     S
Zn468  O470    1.958   .     S
O469   C473    1.291   .     A
O471   C474    1.297   .     A
C473   C498    1.407   .     S
C473   O516    1.281   .     S
C474   C478    1.444   .     S
C474   O518    1.294   .     S
C475   H477    1.084   .     S
C475   C485    1.396   .     A
C475   C75     1.387   1_556 S
H476   C486    1.079   .     S
C478   C489    1.409   .     A
C478   C488    1.395   .     A
C479   C480    1.393   .     A
C479   C490    1.398   .     A
C480   C67     1.395   1_556 S
C480   H80     1.083   1_556 S
C481   H493    1.077   .     S
C482   C483    1.405   .     A
C482   C67     1.418   1_556 S
C482   C70     1.421   1_556 S
C483   C487    1.406   .     A
C483   C490    1.415   .     A
C484   C488    1.382   .     A
C485   C486    1.381   .     A
C485   C70     1.420   1_556 S
C486   C487    1.374   .     A
C487   H495    1.071   .     S
C488   H491    1.076   .     S
C489   Br548   1.921   .     S
H492   C525    1.079   .     S
C496   H635    1.087   .     S
C496   C590    1.344   .     S
H497   C772    1.087   1_545 S
C498   C818    1.344   1_545 S
C498   Br779   1.943   1_545 S
N499   N504    1.384   .     S
N499   N500    1.286   .     D
N500   H501    1.027   .     S
Br503  C636    1.943   .     S
N504   O505    1.300   .     A
N504   O506    1.300   .     A
O507   Zn513   1.958   .     S
O507   C417    1.276   1_655 S
O508   C509    1.295   .     A
O508   Zn514   1.977   .     S
C509   C542    1.400   .     S
O510   Zn513   1.982   .     S
O510   C420    1.311   1_655 S
O511   Zn514   1.966   .     S
O511   C512    1.294   .     A
C512   C536    1.479   .     S
Zn513  N546    2.026   .     S
Zn513  O517    1.966   .     S
Zn513  O515    1.977   .     S
Zn514  N545    2.026   .     S
Zn514  O518    1.982   .     S
Zn514  O516    1.958   .     S
O515   C519    1.291   .     A
O517   C520    1.297   .     A
C519   C544    1.407   .     S
C519   O424    1.281   1_655 S
C520   C524    1.444   .     S
C520   O426    1.294   1_655 S
C521   H523    1.084   .     S
C521   C531    1.396   .     A
C521   C121    1.387   1_556 S
H522   C532    1.079   .     S
C524   C535    1.409   .     A
C524   C534    1.395   .     A
C525   C526    1.393   .     A
C525   C536    1.398   .     A
C526   C113    1.395   1_556 S
C526   H126    1.083   1_556 S
C527   H539    1.077   .     S
C528   C529    1.405   .     A
C528   C113    1.418   1_556 S
C528   C116    1.421   1_556 S
C529   C533    1.406   .     A
C529   C536    1.415   .     A
C530   C534    1.382   .     A
C531   C532    1.381   .     A
C531   C116    1.420   1_556 S
C532   C533    1.374   .     A
C533   H541    1.071   .     S
C534   H537    1.076   .     S
C535   Br456   1.921   1_655 S
H538   C433    1.079   1_655 S
C542   H681    1.087   .     S
C542   C636    1.344   .     S
H543   C818    1.087   1_545 S
C544   C726    1.344   1_645 S
C544   Br825   1.943   1_545 S
N545   N550    1.384   .     S
N545   N546    1.286   .     D
N546   H547    1.027   .     S
Br549  C682    1.943   .     S
N550   O551    1.300   .     A
N550   O552    1.300   .     A
O553   Zn559   1.958   .     S
O553   C601    1.276   .     S
O554   C555    1.295   .     A
O554   Zn560   1.977   .     S
C555   C588    1.400   .     S
C555   O645    1.276   1_455 S
O556   Zn559   1.982   .     S
O556   C604    1.311   .     S
O557   Zn560   1.966   .     S
O557   C558    1.294   .     A
C558   C582    1.479   .     S
C558   O648    1.311   1_455 S
Zn559  N592    2.026   .     S
Zn559  O563    1.966   .     S
Zn559  O561    1.977   .     S
Zn560  N591    2.026   .     S
Zn560  O564    1.982   .     S
Zn560  O562    1.958   .     S
O561   C565    1.291   .     A
O562   C657    1.281   1_455 S
O563   C566    1.297   .     A
O564   C658    1.294   1_455 S
C565   C590    1.407   .     S
C565   O608    1.281   .     S
C566   C570    1.444   .     S
C566   O610    1.294   .     S
C567   H569    1.084   .     S
C567   C577    1.396   .     A
C567   C167    1.387   1_556 S
H568   C578    1.079   .     S
C570   C581    1.409   .     A
C570   C580    1.395   .     A
C571   C572    1.393   .     A
C571   C582    1.398   .     A
C571   H676    1.079   1_455 S
C572   C159    1.395   1_556 S
C572   H172    1.083   1_556 S
C573   H585    1.077   .     S
C574   C575    1.405   .     A
C574   C159    1.418   1_556 S
C574   C162    1.421   1_556 S
C575   C579    1.406   .     A
C575   C582    1.415   .     A
C576   C580    1.382   .     A
C577   C578    1.381   .     A
C577   C162    1.420   1_556 S
C578   C579    1.374   .     A
C579   H587    1.071   .     S
C580   H583    1.076   .     S
C581   Br640   1.921   .     S
H584   C617    1.079   .     S
C588   H727    1.087   .     S
C588   C820    1.344   1_455 S
N591   N596    1.384   .     S
N591   N592    1.286   .     D
N592   H593    1.027   .     S
Br594  C673    1.921   1_455 S
Br595  C728    1.943   .     S
N596   O597    1.300   .     A
N596   O598    1.300   .     A
O599   Zn605   1.958   .     S
O599   C647    1.276   .     S
O600   C601    1.295   .     A
O600   Zn606   1.977   .     S
C601   C634    1.400   .     S
O602   Zn605   1.982   .     S
O602   C650    1.311   .     S
O603   Zn606   1.966   .     S
O603   C604    1.294   .     A
C604   C628    1.479   .     S
Zn605  N638    2.026   .     S
Zn605  O609    1.966   .     S
Zn605  O607    1.977   .     S
Zn606  N637    2.026   .     S
Zn606  O610    1.982   .     S
Zn606  O608    1.958   .     S
O607   C611    1.291   .     A
O609   C612    1.297   .     A
C611   C636    1.407   .     S
C611   O654    1.281   .     S
C612   C616    1.444   .     S
C612   O656    1.294   .     S
C613   H615    1.084   .     S
C613   C623    1.396   .     A
C613   C213    1.387   1_556 S
H614   C624    1.079   .     S
C616   C627    1.409   .     A
C616   C626    1.395   .     A
C617   C618    1.393   .     A
C617   C628    1.398   .     A
C618   C205    1.395   1_556 S
C618   H218    1.083   1_556 S
C619   H631    1.077   .     S
C620   C621    1.405   .     A
C620   C205    1.418   1_556 S
C620   C208    1.421   1_556 S
C621   C625    1.406   .     A
C621   C628    1.415   .     A
C622   C626    1.382   .     A
C623   C624    1.381   .     A
C623   C208    1.420   1_556 S
C624   C625    1.374   .     A
C625   H633    1.071   .     S
C626   H629    1.076   .     S
C627   Br686   1.921   .     S
H630   C663    1.079   .     S
C634   H773    1.087   .     S
C634   C728    1.344   .     S
N637   N642    1.384   .     S
N637   N638    1.286   .     D
N638   H639    1.027   .     S
Br641  C774    1.943   .     S
N642   O643    1.300   .     A
N642   O644    1.300   .     A
O645   Zn651   1.958   .     S
O645   C555    1.276   1_655 S
O646   C647    1.295   .     A
O646   Zn652   1.977   .     S
C647   C680    1.400   .     S
O648   Zn651   1.982   .     S
O648   C558    1.311   1_655 S
O649   Zn652   1.966   .     S
O649   C650    1.294   .     A
C650   C674    1.479   .     S
Zn651  N684    2.026   .     S
Zn651  O655    1.966   .     S
Zn651  O653    1.977   .     S
Zn652  N683    2.026   .     S
Zn652  O656    1.982   .     S
Zn652  O654    1.958   .     S
O653   C657    1.291   .     A
O655   C658    1.297   .     A
C657   C682    1.407   .     S
C657   O562    1.281   1_655 S
C658   C662    1.444   .     S
C658   O564    1.294   1_655 S
C659   H661    1.084   .     S
C659   C669    1.396   .     A
C659   C259    1.387   1_556 S
H660   C670    1.079   .     S
C662   C673    1.409   .     A
C662   C672    1.395   .     A
C663   C664    1.393   .     A
C663   C674    1.398   .     A
C664   C251    1.395   1_556 S
C664   H264    1.083   1_556 S
C665   H677    1.077   .     S
C666   C667    1.405   .     A
C666   C251    1.418   1_556 S
C666   C254    1.421   1_556 S
C667   C671    1.406   .     A
C667   C674    1.415   .     A
C668   C672    1.382   .     A
C669   C670    1.381   .     A
C669   C254    1.420   1_556 S
C670   C671    1.374   .     A
C671   H679    1.071   .     S
C672   H675    1.076   .     S
C673   Br594   1.921   1_655 S
H676   C571    1.079   1_655 S
C680   H819    1.087   .     S
C680   C774    1.344   .     S
C682   C450    1.344   1_655 S
N683   N688    1.384   .     S
N683   N684    1.286   .     D
N684   H685    1.027   .     S
Br687  C820    1.943   .     S
N688   O689    1.300   .     A
N688   O690    1.300   .     A
O691   Zn697   1.958   .     S
O691   C739    1.276   .     S
O692   C693    1.295   .     A
O692   Zn698   1.977   .     S
C693   C726    1.400   .     S
C693   O783    1.276   1_455 S
O694   Zn697   1.982   .     S
O694   C742    1.311   .     S
O695   Zn698   1.966   .     S
O695   C696    1.294   .     A
C696   C720    1.479   .     S
C696   O786    1.311   1_455 S
Zn697  N730    2.026   .     S
Zn697  O701    1.966   .     S
Zn697  O699    1.977   .     S
Zn698  N729    2.026   .     S
Zn698  O702    1.982   .     S
Zn698  O700    1.958   .     S
O699   C703    1.291   .     A
O700   C795    1.281   1_455 S
O701   C704    1.297   .     A
O702   C796    1.294   1_455 S
C703   C728    1.407   .     S
C703   O746    1.281   .     S
C704   C708    1.444   .     S
C704   O748    1.294   .     S
C705   H707    1.084   .     S
C705   C715    1.396   .     A
C705   C305    1.387   1_556 S
H706   C716    1.079   .     S
C708   C719    1.409   .     A
C708   C718    1.395   .     A
C709   C710    1.393   .     A
C709   C720    1.398   .     A
C709   H814    1.079   1_455 S
C710   C297    1.395   1_556 S
C710   H310    1.083   1_556 S
C711   H723    1.077   .     S
C712   C713    1.405   .     A
C712   C297    1.418   1_556 S
C712   C300    1.421   1_556 S
C713   C717    1.406   .     A
C713   C720    1.415   .     A
C714   C718    1.382   .     A
C715   C716    1.381   .     A
C715   C300    1.420   1_556 S
C716   C717    1.374   .     A
C717   H725    1.071   .     S
C718   H721    1.076   .     S
C719   Br778   1.921   .     S
H722   C755    1.079   .     S
C726   H451    1.087   1_565 S
C726   C544    1.344   1_465 S
N729   N734    1.384   .     S
N729   N730    1.286   .     D
N730   H731    1.027   .     S
Br732  C811    1.921   1_455 S
Br733  C452    1.943   1_565 S
N734   O735    1.300   .     A
N734   O736    1.300   .     A
O737   Zn743   1.958   .     S
O737   C785    1.276   .     S
O738   C739    1.295   .     A
O738   Zn744   1.977   .     S
C739   C772    1.400   .     S
O740   Zn743   1.982   .     S
O740   C788    1.311   .     S
O741   Zn744   1.966   .     S
O741   C742    1.294   .     A
C742   C766    1.479   .     S
Zn743  N776    2.026   .     S
Zn743  O747    1.966   .     S
Zn743  O745    1.977   .     S
Zn744  N775    2.026   .     S
Zn744  O748    1.982   .     S
Zn744  O746    1.958   .     S
O745   C749    1.291   .     A
O747   C750    1.297   .     A
C749   C774    1.407   .     S
C749   O792    1.281   .     S
C750   C754    1.444   .     S
C750   O794    1.294   .     S
C751   H753    1.084   .     S
C751   C761    1.396   .     A
C751   C351    1.387   1_556 S
H752   C762    1.079   .     S
C754   C765    1.409   .     A
C754   C764    1.395   .     A
C755   C756    1.393   .     A
C755   C766    1.398   .     A
C756   C343    1.395   1_556 S
C756   H356    1.083   1_556 S
C757   H769    1.077   .     S
C758   C759    1.405   .     A
C758   C343    1.418   1_556 S
C758   C346    1.421   1_556 S
C759   C763    1.406   .     A
C759   C766    1.415   .     A
C760   C764    1.382   .     A
C761   C762    1.381   .     A
C761   C346    1.420   1_556 S
C762   C763    1.374   .     A
C763   H771    1.071   .     S
C764   H767    1.076   .     S
C765   Br824   1.921   .     S
H768   C801    1.079   .     S
C772   H497    1.087   1_565 S
C772   C452    1.344   1_565 S
N775   N780    1.384   .     S
N775   N776    1.286   .     D
N776   H777    1.027   .     S
Br779  C498    1.943   1_565 S
N780   O781    1.300   .     A
N780   O782    1.300   .     A
O783   Zn789   1.958   .     S
O783   C693    1.276   1_655 S
O784   C785    1.295   .     A
O784   Zn790   1.977   .     S
C785   C818    1.400   .     S
O786   Zn789   1.982   .     S
O786   C696    1.311   1_655 S
O787   Zn790   1.966   .     S
O787   C788    1.294   .     A
C788   C812    1.479   .     S
Zn789  N822    2.026   .     S
Zn789  O793    1.966   .     S
Zn789  O791    1.977   .     S
Zn790  N821    2.026   .     S
Zn790  O794    1.982   .     S
Zn790  O792    1.958   .     S
O791   C795    1.291   .     A
O793   C796    1.297   .     A
C795   C820    1.407   .     S
C795   O700    1.281   1_655 S
C796   C800    1.444   .     S
C796   O702    1.294   1_655 S
C797   H799    1.084   .     S
C797   C807    1.396   .     A
C797   C397    1.387   1_556 S
H798   C808    1.079   .     S
C800   C811    1.409   .     A
C800   C810    1.395   .     A
C801   C802    1.393   .     A
C801   C812    1.398   .     A
C802   C389    1.395   1_556 S
C802   H402    1.083   1_556 S
C803   H815    1.077   .     S
C804   C805    1.405   .     A
C804   C389    1.418   1_556 S
C804   C392    1.421   1_556 S
C805   C809    1.406   .     A
C805   C812    1.415   .     A
C806   C810    1.382   .     A
C807   C808    1.381   .     A
C807   C392    1.420   1_556 S
C808   C809    1.374   .     A
C809   H817    1.071   .     S
C810   H813    1.076   .     S
C811   Br732   1.921   1_655 S
H814   C709    1.079   1_655 S
C818   H543    1.087   1_565 S
C818   C498    1.344   1_565 S
C820   C588    1.344   1_655 S
N821   N826    1.384   .     S
N821   N822    1.286   .     D
N822   H823    1.027   .     S
Br825  C544    1.943   1_565 S
N826   O827    1.300   .     A
N826   O828    1.300   .     A
