data_str_m3_o10_o18_pcu_sym.65
_audit_creation_date              2020-01-03
_audit_creation_method            'Materials Studio'
_symmetry_space_group_name_H-M    'P1'
_symmetry_Int_Tables_number       1
_symmetry_cell_setting            triclinic
loop_
_symmetry_equiv_pos_as_xyz
  x,y,z
_cell_length_a                    23.9824
_cell_length_b                    25.7907
_cell_length_c                    27.5761
_cell_angle_alpha                 95.1296
_cell_angle_beta                  93.1482
_cell_angle_gamma                 92.9001
loop_
_atom_site_label
_atom_site_type_symbol
_atom_site_fract_x
_atom_site_fract_y
_atom_site_fract_z
_atom_site_U_iso_or_equiv
_atom_site_adp_type
_atom_site_occupancy
C1     C     0.01384   0.26429   0.24756   0.00000  Uiso   1.00
C2     C     0.31218   0.16185   0.15911   0.00000  Uiso   1.00
C3     C     0.03175   0.17418   0.39365   0.00000  Uiso   1.00
C4     C     0.30049   0.15361   0.10654   0.00000  Uiso   1.00
C5     C     0.01431   0.21043   0.47467   0.00000  Uiso   1.00
C6     C     0.30948   0.10250   0.03005   0.00000  Uiso   1.00
C7     C     0.33028   0.20009   0.42566   0.00000  Uiso   1.00
C8     C     0.33040   0.11926   0.07720   0.00000  Uiso   1.00
C9     C     0.08115   0.15466   0.41148   0.00000  Uiso   1.00
C10    C     0.25193   0.17354   0.08766   0.00000  Uiso   1.00
C11    C     0.09955   0.16431   0.46050   0.00000  Uiso   1.00
C12    C     0.31955   0.06913   0.25292   0.00000  Uiso   1.00
C13    C     0.22739   0.15392   0.04215   0.00000  Uiso   1.00
C14    C     0.06627   0.19445   0.49180   0.00000  Uiso   1.00
C15    C     0.25754   0.11847   0.01283   0.00000  Uiso   1.00
C16    C     0.15178   0.14778   0.47827   0.00000  Uiso   1.00
C17    C     0.17314   0.16714   0.02582   0.00000  Uiso   1.00
C18    C     0.03747   0.32836   0.18712   0.00000  Uiso   1.00
C19    C     0.01910   0.28698   0.14559   0.00000  Uiso   1.00
C20    C     0.29554   0.00542   0.31352   0.00000  Uiso   1.00
C21    C     0.31826   0.04484   0.35543   0.00000  Uiso   1.00
C22    C     0.16204   0.10618   0.20787   0.00000  Uiso   1.00
C23    C     0.13871   0.19753   0.05596   0.00000  Uiso   1.00
C24    C     0.13362   0.10301   0.15707   0.00000  Uiso   1.00
C25    C     0.17160   0.22618   0.29365   0.00000  Uiso   1.00
C26    C     0.19766   0.22582   0.34514   0.00000  Uiso   1.00
C27    C     0.18303   0.11224   0.45020   0.00000  Uiso   1.00
C28    C     0.08583   0.20963   0.03941   0.00000  Uiso   1.00
C29    C     0.23487   0.09804   0.46733   0.00000  Uiso   1.00
C30    C     0.01510   0.31675   0.23640   0.00000  Uiso   1.00
C31    C     0.31816   0.01666   0.26420   0.00000  Uiso   1.00
C32    C     0.02109   0.17095   0.34091   0.00000  Uiso   1.00
H33    H     0.06057   0.23224   0.06362   0.00000  Uiso   1.00
H34    H     0.16770   0.09281   0.41548   0.00000  Uiso   1.00
H35    H     0.04363   0.25205   0.14857   0.00000  Uiso   1.00
H36    H     0.30700   0.27643   0.14604   0.00000  Uiso   1.00
H37    H     0.02706   0.30260   0.11021   0.00000  Uiso   1.00
H38    H     0.02166   0.03138   0.17446   0.00000  Uiso   1.00
H39    H     0.08386   0.33214   0.19072   0.00000  Uiso   1.00
H40    H     0.03019   0.05456   0.35238   0.00000  Uiso   1.00
H41    H     0.29446   0.08056   0.35563   0.00000  Uiso   1.00
H42    H     0.31323   0.02797   0.39067   0.00000  Uiso   1.00
H43    H     0.24916   0.00528   0.31078   0.00000  Uiso   1.00
H44    H     0.25688   0.07008   0.44517   0.00000  Uiso   1.00
H45    H     0.30757   0.30073   0.32511   0.00000  Uiso   1.00
H46    H     0.08972   0.08894   0.15820   0.00000  Uiso   1.00
H47    H     0.13601   0.14167   0.14247   0.00000  Uiso   1.00
H48    H     0.15426   0.07472   0.13212   0.00000  Uiso   1.00
H49    H     0.20603   0.10603   0.20187   0.00000  Uiso   1.00
H50    H     0.15007   0.07085   0.22595   0.00000  Uiso   1.00
H51    H     0.19572   0.18577   0.35706   0.00000  Uiso   1.00
H52    H     0.24134   0.24168   0.34674   0.00000  Uiso   1.00
H53    H     0.17491   0.25143   0.37094   0.00000  Uiso   1.00
H54    H     0.18594   0.26228   0.27784   0.00000  Uiso   1.00
H55    H     0.23296   0.20275   0.11065   0.00000  Uiso   1.00
H56    H     0.12734   0.22764   0.29789   0.00000  Uiso   1.00
H57    H     0.10654   0.13496   0.38550   0.00000  Uiso   1.00
H58    H     0.03500   0.10363   0.09112   0.00000  Uiso   1.00
H59    H     0.29135   0.21467   0.41266   0.00000  Uiso   1.00
H60    H     0.32145   0.23247   0.49880   0.00000  Uiso   1.00
H61    H     0.33270   0.07539   0.00781   0.00000  Uiso   1.00
H62    H     0.15047   0.21186   0.09311   0.00000  Uiso   1.00
N63    N     0.14695   0.15216   0.23739   0.00000  Uiso   1.00
N64    N     0.18638   0.18117   0.26260   0.00000  Uiso   1.00
O65    O     0.29719   0.24631   0.25309   0.00000  Uiso   1.00
O66    O     0.03614   0.08702   0.24690   0.00000  Uiso   1.00
O67    O     0.05822   0.23702   0.24501   0.00000  Uiso   1.00
O68    O     0.27512   0.09632   0.25498   0.00000  Uiso   1.00
O69    O     0.30328   0.17397   0.32247   0.00000  Uiso   1.00
O70    O     0.03005   0.15937   0.17753   0.00000  Uiso   1.00
O71    O     0.06431   0.16467   0.31439   0.00000  Uiso   1.00
O72    O     0.26902   0.16866   0.18561   0.00000  Uiso   1.00
Zn73   Zn    0.27033   0.17287   0.25539   0.00000  Uiso   1.00
Zn74   Zn    0.06300   0.16046   0.24460   0.00000  Uiso   1.00
C75    C     0.34717   0.26429   0.24756   0.00000  Uiso   1.00
C76    C     0.64551   0.16185   0.15911   0.00000  Uiso   1.00
C77    C     0.36508   0.17418   0.39365   0.00000  Uiso   1.00
C78    C     0.63382   0.15361   0.10654   0.00000  Uiso   1.00
C79    C     0.34765   0.21043   0.47467   0.00000  Uiso   1.00
C80    C     0.64281   0.10250   0.03005   0.00000  Uiso   1.00
C81    C     0.66361   0.20009   0.42566   0.00000  Uiso   1.00
C82    C     0.66373   0.11926   0.07720   0.00000  Uiso   1.00
C83    C     0.41449   0.15466   0.41148   0.00000  Uiso   1.00
C84    C     0.58527   0.17354   0.08766   0.00000  Uiso   1.00
C85    C     0.43288   0.16431   0.46050   0.00000  Uiso   1.00
C86    C     0.65288   0.06913   0.25292   0.00000  Uiso   1.00
C87    C     0.56072   0.15392   0.04215   0.00000  Uiso   1.00
C88    C     0.39961   0.19445   0.49180   0.00000  Uiso   1.00
C89    C     0.59087   0.11847   0.01283   0.00000  Uiso   1.00
C90    C     0.48512   0.14778   0.47827   0.00000  Uiso   1.00
C91    C     0.50647   0.16714   0.02582   0.00000  Uiso   1.00
C92    C     0.37081   0.32836   0.18712   0.00000  Uiso   1.00
C93    C     0.35243   0.28698   0.14559   0.00000  Uiso   1.00
C94    C     0.62887   0.00542   0.31352   0.00000  Uiso   1.00
C95    C     0.65160   0.04484   0.35543   0.00000  Uiso   1.00
C96    C     0.49537   0.10618   0.20787   0.00000  Uiso   1.00
C97    C     0.47205   0.19753   0.05596   0.00000  Uiso   1.00
C98    C     0.46695   0.10301   0.15707   0.00000  Uiso   1.00
C99    C     0.50493   0.22618   0.29365   0.00000  Uiso   1.00
C100   C     0.53099   0.22582   0.34514   0.00000  Uiso   1.00
C101   C     0.51637   0.11224   0.45020   0.00000  Uiso   1.00
C102   C     0.41917   0.20963   0.03941   0.00000  Uiso   1.00
C103   C     0.56820   0.09804   0.46733   0.00000  Uiso   1.00
C104   C     0.34843   0.31675   0.23640   0.00000  Uiso   1.00
C105   C     0.65150   0.01666   0.26420   0.00000  Uiso   1.00
C106   C     0.35442   0.17095   0.34091   0.00000  Uiso   1.00
H107   H     0.39390   0.23224   0.06362   0.00000  Uiso   1.00
H108   H     0.50104   0.09281   0.41548   0.00000  Uiso   1.00
H109   H     0.37697   0.25205   0.14857   0.00000  Uiso   1.00
H110   H     0.64033   0.27643   0.14604   0.00000  Uiso   1.00
H111   H     0.36040   0.30260   0.11021   0.00000  Uiso   1.00
H112   H     0.35499   0.03138   0.17446   0.00000  Uiso   1.00
H113   H     0.41720   0.33214   0.19072   0.00000  Uiso   1.00
H114   H     0.36352   0.05456   0.35238   0.00000  Uiso   1.00
H115   H     0.62779   0.08056   0.35563   0.00000  Uiso   1.00
H116   H     0.64657   0.02797   0.39067   0.00000  Uiso   1.00
H117   H     0.58249   0.00528   0.31078   0.00000  Uiso   1.00
H118   H     0.59021   0.07008   0.44517   0.00000  Uiso   1.00
H119   H     0.64090   0.30073   0.32511   0.00000  Uiso   1.00
H120   H     0.42305   0.08894   0.15820   0.00000  Uiso   1.00
H121   H     0.46935   0.14167   0.14247   0.00000  Uiso   1.00
H122   H     0.48759   0.07472   0.13212   0.00000  Uiso   1.00
H123   H     0.53936   0.10603   0.20187   0.00000  Uiso   1.00
H124   H     0.48340   0.07085   0.22595   0.00000  Uiso   1.00
H125   H     0.52905   0.18577   0.35706   0.00000  Uiso   1.00
H126   H     0.57467   0.24168   0.34674   0.00000  Uiso   1.00
H127   H     0.50824   0.25143   0.37094   0.00000  Uiso   1.00
H128   H     0.51927   0.26228   0.27784   0.00000  Uiso   1.00
H129   H     0.56629   0.20275   0.11065   0.00000  Uiso   1.00
H130   H     0.46068   0.22764   0.29789   0.00000  Uiso   1.00
H131   H     0.43988   0.13496   0.38550   0.00000  Uiso   1.00
H132   H     0.36833   0.10363   0.09112   0.00000  Uiso   1.00
H133   H     0.62469   0.21467   0.41266   0.00000  Uiso   1.00
H134   H     0.65478   0.23247   0.49880   0.00000  Uiso   1.00
H135   H     0.66603   0.07539   0.00781   0.00000  Uiso   1.00
H136   H     0.48380   0.21186   0.09311   0.00000  Uiso   1.00
N137   N     0.48029   0.15216   0.23739   0.00000  Uiso   1.00
N138   N     0.51971   0.18117   0.26260   0.00000  Uiso   1.00
O139   O     0.63052   0.24631   0.25309   0.00000  Uiso   1.00
O140   O     0.36948   0.08702   0.24690   0.00000  Uiso   1.00
O141   O     0.39155   0.23702   0.24501   0.00000  Uiso   1.00
O142   O     0.60845   0.09632   0.25498   0.00000  Uiso   1.00
O143   O     0.63662   0.17397   0.32247   0.00000  Uiso   1.00
O144   O     0.36338   0.15937   0.17753   0.00000  Uiso   1.00
O145   O     0.39764   0.16467   0.31439   0.00000  Uiso   1.00
O146   O     0.60236   0.16866   0.18561   0.00000  Uiso   1.00
Zn147  Zn    0.60366   0.17287   0.25539   0.00000  Uiso   1.00
Zn148  Zn    0.39634   0.16046   0.24460   0.00000  Uiso   1.00
C149   C     0.68050   0.26429   0.24756   0.00000  Uiso   1.00
C150   C     0.97885   0.16185   0.15911   0.00000  Uiso   1.00
C151   C     0.69841   0.17418   0.39365   0.00000  Uiso   1.00
C152   C     0.96716   0.15361   0.10654   0.00000  Uiso   1.00
C153   C     0.68098   0.21043   0.47467   0.00000  Uiso   1.00
C154   C     0.97615   0.10250   0.03005   0.00000  Uiso   1.00
C155   C     0.99694   0.20009   0.42566   0.00000  Uiso   1.00
C156   C     0.99707   0.11926   0.07720   0.00000  Uiso   1.00
C157   C     0.74782   0.15466   0.41148   0.00000  Uiso   1.00
C158   C     0.91860   0.17354   0.08766   0.00000  Uiso   1.00
C159   C     0.76622   0.16431   0.46050   0.00000  Uiso   1.00
C160   C     0.98621   0.06913   0.25292   0.00000  Uiso   1.00
C161   C     0.89405   0.15392   0.04215   0.00000  Uiso   1.00
C162   C     0.73294   0.19445   0.49180   0.00000  Uiso   1.00
C163   C     0.92420   0.11847   0.01283   0.00000  Uiso   1.00
C164   C     0.81845   0.14778   0.47827   0.00000  Uiso   1.00
C165   C     0.83981   0.16714   0.02582   0.00000  Uiso   1.00
C166   C     0.70414   0.32836   0.18712   0.00000  Uiso   1.00
C167   C     0.68576   0.28698   0.14559   0.00000  Uiso   1.00
C168   C     0.96221   0.00542   0.31352   0.00000  Uiso   1.00
C169   C     0.98493   0.04484   0.35543   0.00000  Uiso   1.00
C170   C     0.82870   0.10618   0.20787   0.00000  Uiso   1.00
C171   C     0.80538   0.19753   0.05596   0.00000  Uiso   1.00
C172   C     0.80028   0.10301   0.15707   0.00000  Uiso   1.00
C173   C     0.83826   0.22618   0.29365   0.00000  Uiso   1.00
C174   C     0.86432   0.22582   0.34514   0.00000  Uiso   1.00
C175   C     0.84970   0.11224   0.45020   0.00000  Uiso   1.00
C176   C     0.75250   0.20963   0.03941   0.00000  Uiso   1.00
C177   C     0.90153   0.09804   0.46733   0.00000  Uiso   1.00
C178   C     0.68177   0.31675   0.23640   0.00000  Uiso   1.00
C179   C     0.98483   0.01666   0.26420   0.00000  Uiso   1.00
C180   C     0.68775   0.17095   0.34091   0.00000  Uiso   1.00
H181   H     0.72724   0.23224   0.06362   0.00000  Uiso   1.00
H182   H     0.83437   0.09281   0.41548   0.00000  Uiso   1.00
H183   H     0.71030   0.25205   0.14857   0.00000  Uiso   1.00
H184   H     0.97367   0.27643   0.14604   0.00000  Uiso   1.00
H185   H     0.69373   0.30260   0.11021   0.00000  Uiso   1.00
H186   H     0.68833   0.03138   0.17446   0.00000  Uiso   1.00
H187   H     0.75053   0.33214   0.19072   0.00000  Uiso   1.00
H188   H     0.69686   0.05456   0.35238   0.00000  Uiso   1.00
H189   H     0.96112   0.08056   0.35563   0.00000  Uiso   1.00
H190   H     0.97990   0.02797   0.39067   0.00000  Uiso   1.00
H191   H     0.91582   0.00528   0.31078   0.00000  Uiso   1.00
H192   H     0.92355   0.07008   0.44517   0.00000  Uiso   1.00
H193   H     0.97423   0.30073   0.32511   0.00000  Uiso   1.00
H194   H     0.75638   0.08894   0.15820   0.00000  Uiso   1.00
H195   H     0.80268   0.14167   0.14247   0.00000  Uiso   1.00
H196   H     0.82092   0.07472   0.13212   0.00000  Uiso   1.00
H197   H     0.87269   0.10603   0.20187   0.00000  Uiso   1.00
H198   H     0.81674   0.07085   0.22595   0.00000  Uiso   1.00
H199   H     0.86238   0.18577   0.35706   0.00000  Uiso   1.00
H200   H     0.90801   0.24168   0.34674   0.00000  Uiso   1.00
H201   H     0.84158   0.25143   0.37094   0.00000  Uiso   1.00
H202   H     0.85260   0.26228   0.27784   0.00000  Uiso   1.00
H203   H     0.89962   0.20275   0.11065   0.00000  Uiso   1.00
H204   H     0.79401   0.22764   0.29789   0.00000  Uiso   1.00
H205   H     0.77321   0.13496   0.38550   0.00000  Uiso   1.00
H206   H     0.70166   0.10363   0.09112   0.00000  Uiso   1.00
H207   H     0.95802   0.21467   0.41266   0.00000  Uiso   1.00
H208   H     0.98811   0.23247   0.49880   0.00000  Uiso   1.00
H209   H     0.99937   0.07539   0.00781   0.00000  Uiso   1.00
H210   H     0.81714   0.21186   0.09311   0.00000  Uiso   1.00
N211   N     0.81362   0.15216   0.23739   0.00000  Uiso   1.00
N212   N     0.85305   0.18117   0.26260   0.00000  Uiso   1.00
O213   O     0.96386   0.24631   0.25309   0.00000  Uiso   1.00
O214   O     0.70281   0.08702   0.24690   0.00000  Uiso   1.00
O215   O     0.72488   0.23702   0.24501   0.00000  Uiso   1.00
O216   O     0.94178   0.09632   0.25498   0.00000  Uiso   1.00
O217   O     0.96995   0.17397   0.32247   0.00000  Uiso   1.00
O218   O     0.69672   0.15937   0.17753   0.00000  Uiso   1.00
O219   O     0.73098   0.16467   0.31439   0.00000  Uiso   1.00
O220   O     0.93569   0.16866   0.18561   0.00000  Uiso   1.00
Zn221  Zn    0.93700   0.17287   0.25539   0.00000  Uiso   1.00
Zn222  Zn    0.72967   0.16046   0.24460   0.00000  Uiso   1.00
C223   C     0.01384   0.59762   0.24756   0.00000  Uiso   1.00
C224   C     0.31218   0.49518   0.15911   0.00000  Uiso   1.00
C225   C     0.03175   0.50751   0.39365   0.00000  Uiso   1.00
C226   C     0.30049   0.48694   0.10654   0.00000  Uiso   1.00
C227   C     0.01431   0.54376   0.47467   0.00000  Uiso   1.00
C228   C     0.30948   0.43583   0.03005   0.00000  Uiso   1.00
C229   C     0.33028   0.53342   0.42566   0.00000  Uiso   1.00
C230   C     0.33040   0.45259   0.07720   0.00000  Uiso   1.00
C231   C     0.08115   0.48800   0.41148   0.00000  Uiso   1.00
C232   C     0.25193   0.50688   0.08766   0.00000  Uiso   1.00
C233   C     0.09955   0.49764   0.46050   0.00000  Uiso   1.00
C234   C     0.31955   0.40246   0.25292   0.00000  Uiso   1.00
C235   C     0.22739   0.48726   0.04215   0.00000  Uiso   1.00
C236   C     0.06627   0.52779   0.49180   0.00000  Uiso   1.00
C237   C     0.25754   0.45180   0.01283   0.00000  Uiso   1.00
C238   C     0.15178   0.48111   0.47827   0.00000  Uiso   1.00
C239   C     0.17314   0.50048   0.02582   0.00000  Uiso   1.00
C240   C     0.03747   0.66170   0.18712   0.00000  Uiso   1.00
C241   C     0.01910   0.62031   0.14559   0.00000  Uiso   1.00
C242   C     0.29554   0.33875   0.31352   0.00000  Uiso   1.00
C243   C     0.31826   0.37818   0.35543   0.00000  Uiso   1.00
C244   C     0.16204   0.43952   0.20787   0.00000  Uiso   1.00
C245   C     0.13871   0.53086   0.05596   0.00000  Uiso   1.00
C246   C     0.13362   0.43634   0.15707   0.00000  Uiso   1.00
C247   C     0.17160   0.55952   0.29365   0.00000  Uiso   1.00
C248   C     0.19766   0.55916   0.34514   0.00000  Uiso   1.00
C249   C     0.18303   0.44558   0.45020   0.00000  Uiso   1.00
C250   C     0.08583   0.54296   0.03941   0.00000  Uiso   1.00
C251   C     0.23487   0.43138   0.46733   0.00000  Uiso   1.00
C252   C     0.01510   0.65008   0.23640   0.00000  Uiso   1.00
C253   C     0.31816   0.34999   0.26420   0.00000  Uiso   1.00
C254   C     0.02109   0.50428   0.34091   0.00000  Uiso   1.00
H255   H     0.06057   0.56557   0.06362   0.00000  Uiso   1.00
H256   H     0.16770   0.42614   0.41548   0.00000  Uiso   1.00
H257   H     0.04363   0.58538   0.14857   0.00000  Uiso   1.00
H258   H     0.30700   0.60976   0.14604   0.00000  Uiso   1.00
H259   H     0.02706   0.63593   0.11021   0.00000  Uiso   1.00
H260   H     0.02166   0.36471   0.17446   0.00000  Uiso   1.00
H261   H     0.08386   0.66548   0.19072   0.00000  Uiso   1.00
H262   H     0.03019   0.38789   0.35238   0.00000  Uiso   1.00
H263   H     0.29446   0.41389   0.35563   0.00000  Uiso   1.00
H264   H     0.31323   0.36130   0.39067   0.00000  Uiso   1.00
H265   H     0.24916   0.33862   0.31078   0.00000  Uiso   1.00
H266   H     0.25688   0.40341   0.44517   0.00000  Uiso   1.00
H267   H     0.30757   0.63406   0.32511   0.00000  Uiso   1.00
H268   H     0.08972   0.42227   0.15820   0.00000  Uiso   1.00
H269   H     0.13601   0.47500   0.14247   0.00000  Uiso   1.00
H270   H     0.15426   0.40806   0.13212   0.00000  Uiso   1.00
H271   H     0.20603   0.43936   0.20187   0.00000  Uiso   1.00
H272   H     0.15007   0.40418   0.22595   0.00000  Uiso   1.00
H273   H     0.19572   0.51910   0.35706   0.00000  Uiso   1.00
H274   H     0.24134   0.57501   0.34674   0.00000  Uiso   1.00
H275   H     0.17491   0.58477   0.37094   0.00000  Uiso   1.00
H276   H     0.18594   0.59561   0.27784   0.00000  Uiso   1.00
H277   H     0.23296   0.53609   0.11065   0.00000  Uiso   1.00
H278   H     0.12734   0.56097   0.29789   0.00000  Uiso   1.00
H279   H     0.10654   0.46830   0.38550   0.00000  Uiso   1.00
H280   H     0.03500   0.43697   0.09112   0.00000  Uiso   1.00
H281   H     0.29135   0.54800   0.41266   0.00000  Uiso   1.00
H282   H     0.32145   0.56580   0.49880   0.00000  Uiso   1.00
H283   H     0.33270   0.40873   0.00781   0.00000  Uiso   1.00
H284   H     0.15047   0.54520   0.09311   0.00000  Uiso   1.00
N285   N     0.14695   0.48550   0.23739   0.00000  Uiso   1.00
N286   N     0.18638   0.51450   0.26260   0.00000  Uiso   1.00
O287   O     0.29719   0.57964   0.25309   0.00000  Uiso   1.00
O288   O     0.03614   0.42036   0.24690   0.00000  Uiso   1.00
O289   O     0.05822   0.57035   0.24501   0.00000  Uiso   1.00
O290   O     0.27512   0.42965   0.25498   0.00000  Uiso   1.00
O291   O     0.30328   0.50730   0.32247   0.00000  Uiso   1.00
O292   O     0.03005   0.49270   0.17753   0.00000  Uiso   1.00
O293   O     0.06431   0.49801   0.31439   0.00000  Uiso   1.00
O294   O     0.26902   0.50199   0.18561   0.00000  Uiso   1.00
Zn295  Zn    0.27033   0.50621   0.25539   0.00000  Uiso   1.00
Zn296  Zn    0.06300   0.49379   0.24460   0.00000  Uiso   1.00
C297   C     0.34717   0.59762   0.24756   0.00000  Uiso   1.00
C298   C     0.64551   0.49518   0.15911   0.00000  Uiso   1.00
C299   C     0.36508   0.50751   0.39365   0.00000  Uiso   1.00
C300   C     0.63382   0.48694   0.10654   0.00000  Uiso   1.00
C301   C     0.34765   0.54376   0.47467   0.00000  Uiso   1.00
C302   C     0.64281   0.43583   0.03005   0.00000  Uiso   1.00
C303   C     0.66361   0.53342   0.42566   0.00000  Uiso   1.00
C304   C     0.66373   0.45259   0.07720   0.00000  Uiso   1.00
C305   C     0.41449   0.48800   0.41148   0.00000  Uiso   1.00
C306   C     0.58527   0.50688   0.08766   0.00000  Uiso   1.00
C307   C     0.43288   0.49764   0.46050   0.00000  Uiso   1.00
C308   C     0.65288   0.40246   0.25292   0.00000  Uiso   1.00
C309   C     0.56072   0.48726   0.04215   0.00000  Uiso   1.00
C310   C     0.39961   0.52779   0.49180   0.00000  Uiso   1.00
C311   C     0.59087   0.45180   0.01283   0.00000  Uiso   1.00
C312   C     0.48512   0.48111   0.47827   0.00000  Uiso   1.00
C313   C     0.50647   0.50048   0.02582   0.00000  Uiso   1.00
C314   C     0.37081   0.66170   0.18712   0.00000  Uiso   1.00
C315   C     0.35243   0.62031   0.14559   0.00000  Uiso   1.00
C316   C     0.62887   0.33875   0.31352   0.00000  Uiso   1.00
C317   C     0.65160   0.37818   0.35543   0.00000  Uiso   1.00
C318   C     0.49537   0.43952   0.20787   0.00000  Uiso   1.00
C319   C     0.47205   0.53086   0.05596   0.00000  Uiso   1.00
C320   C     0.46695   0.43634   0.15707   0.00000  Uiso   1.00
C321   C     0.50493   0.55952   0.29365   0.00000  Uiso   1.00
C322   C     0.53099   0.55916   0.34514   0.00000  Uiso   1.00
C323   C     0.51637   0.44558   0.45020   0.00000  Uiso   1.00
C324   C     0.41917   0.54296   0.03941   0.00000  Uiso   1.00
C325   C     0.56820   0.43138   0.46733   0.00000  Uiso   1.00
C326   C     0.34843   0.65008   0.23640   0.00000  Uiso   1.00
C327   C     0.65150   0.34999   0.26420   0.00000  Uiso   1.00
C328   C     0.35442   0.50428   0.34091   0.00000  Uiso   1.00
H329   H     0.39390   0.56557   0.06362   0.00000  Uiso   1.00
H330   H     0.50104   0.42614   0.41548   0.00000  Uiso   1.00
H331   H     0.37697   0.58538   0.14857   0.00000  Uiso   1.00
H332   H     0.64033   0.60976   0.14604   0.00000  Uiso   1.00
H333   H     0.36040   0.63593   0.11021   0.00000  Uiso   1.00
H334   H     0.35499   0.36471   0.17446   0.00000  Uiso   1.00
H335   H     0.41720   0.66548   0.19072   0.00000  Uiso   1.00
H336   H     0.36352   0.38789   0.35238   0.00000  Uiso   1.00
H337   H     0.62779   0.41389   0.35563   0.00000  Uiso   1.00
H338   H     0.64657   0.36130   0.39067   0.00000  Uiso   1.00
H339   H     0.58249   0.33862   0.31078   0.00000  Uiso   1.00
H340   H     0.59021   0.40341   0.44517   0.00000  Uiso   1.00
H341   H     0.64090   0.63406   0.32511   0.00000  Uiso   1.00
H342   H     0.42305   0.42227   0.15820   0.00000  Uiso   1.00
H343   H     0.46935   0.47500   0.14247   0.00000  Uiso   1.00
H344   H     0.48759   0.40806   0.13212   0.00000  Uiso   1.00
H345   H     0.53936   0.43936   0.20187   0.00000  Uiso   1.00
H346   H     0.48340   0.40418   0.22595   0.00000  Uiso   1.00
H347   H     0.52905   0.51910   0.35706   0.00000  Uiso   1.00
H348   H     0.57467   0.57501   0.34674   0.00000  Uiso   1.00
H349   H     0.50824   0.58477   0.37094   0.00000  Uiso   1.00
H350   H     0.51927   0.59561   0.27784   0.00000  Uiso   1.00
H351   H     0.56629   0.53609   0.11065   0.00000  Uiso   1.00
H352   H     0.46068   0.56097   0.29789   0.00000  Uiso   1.00
H353   H     0.43988   0.46830   0.38550   0.00000  Uiso   1.00
H354   H     0.36833   0.43697   0.09112   0.00000  Uiso   1.00
H355   H     0.62469   0.54800   0.41266   0.00000  Uiso   1.00
H356   H     0.65478   0.56580   0.49880   0.00000  Uiso   1.00
H357   H     0.66603   0.40873   0.00781   0.00000  Uiso   1.00
H358   H     0.48380   0.54520   0.09311   0.00000  Uiso   1.00
N359   N     0.48029   0.48550   0.23739   0.00000  Uiso   1.00
N360   N     0.51971   0.51450   0.26260   0.00000  Uiso   1.00
O361   O     0.63052   0.57964   0.25309   0.00000  Uiso   1.00
O362   O     0.36948   0.42036   0.24690   0.00000  Uiso   1.00
O363   O     0.39155   0.57035   0.24501   0.00000  Uiso   1.00
O364   O     0.60845   0.42965   0.25498   0.00000  Uiso   1.00
O365   O     0.63662   0.50730   0.32247   0.00000  Uiso   1.00
O366   O     0.36338   0.49270   0.17753   0.00000  Uiso   1.00
O367   O     0.39764   0.49801   0.31439   0.00000  Uiso   1.00
O368   O     0.60236   0.50199   0.18561   0.00000  Uiso   1.00
Zn369  Zn    0.60366   0.50621   0.25539   0.00000  Uiso   1.00
Zn370  Zn    0.39634   0.49379   0.24460   0.00000  Uiso   1.00
C371   C     0.68050   0.59762   0.24756   0.00000  Uiso   1.00
C372   C     0.97885   0.49518   0.15911   0.00000  Uiso   1.00
C373   C     0.69841   0.50751   0.39365   0.00000  Uiso   1.00
C374   C     0.96716   0.48694   0.10654   0.00000  Uiso   1.00
C375   C     0.68098   0.54376   0.47467   0.00000  Uiso   1.00
C376   C     0.97615   0.43583   0.03005   0.00000  Uiso   1.00
C377   C     0.99694   0.53342   0.42566   0.00000  Uiso   1.00
C378   C     0.99707   0.45259   0.07720   0.00000  Uiso   1.00
C379   C     0.74782   0.48800   0.41148   0.00000  Uiso   1.00
C380   C     0.91860   0.50688   0.08766   0.00000  Uiso   1.00
C381   C     0.76622   0.49764   0.46050   0.00000  Uiso   1.00
C382   C     0.98621   0.40246   0.25292   0.00000  Uiso   1.00
C383   C     0.89405   0.48726   0.04215   0.00000  Uiso   1.00
C384   C     0.73294   0.52779   0.49180   0.00000  Uiso   1.00
C385   C     0.92420   0.45180   0.01283   0.00000  Uiso   1.00
C386   C     0.81845   0.48111   0.47827   0.00000  Uiso   1.00
C387   C     0.83981   0.50048   0.02582   0.00000  Uiso   1.00
C388   C     0.70414   0.66170   0.18712   0.00000  Uiso   1.00
C389   C     0.68576   0.62031   0.14559   0.00000  Uiso   1.00
C390   C     0.96221   0.33875   0.31352   0.00000  Uiso   1.00
C391   C     0.98493   0.37818   0.35543   0.00000  Uiso   1.00
C392   C     0.82870   0.43952   0.20787   0.00000  Uiso   1.00
C393   C     0.80538   0.53086   0.05596   0.00000  Uiso   1.00
C394   C     0.80028   0.43634   0.15707   0.00000  Uiso   1.00
C395   C     0.83826   0.55952   0.29365   0.00000  Uiso   1.00
C396   C     0.86432   0.55916   0.34514   0.00000  Uiso   1.00
C397   C     0.84970   0.44558   0.45020   0.00000  Uiso   1.00
C398   C     0.75250   0.54296   0.03941   0.00000  Uiso   1.00
C399   C     0.90153   0.43138   0.46733   0.00000  Uiso   1.00
C400   C     0.68177   0.65008   0.23640   0.00000  Uiso   1.00
C401   C     0.98483   0.34999   0.26420   0.00000  Uiso   1.00
C402   C     0.68775   0.50428   0.34091   0.00000  Uiso   1.00
H403   H     0.72724   0.56557   0.06362   0.00000  Uiso   1.00
H404   H     0.83437   0.42614   0.41548   0.00000  Uiso   1.00
H405   H     0.71030   0.58538   0.14857   0.00000  Uiso   1.00
H406   H     0.97367   0.60976   0.14604   0.00000  Uiso   1.00
H407   H     0.69373   0.63593   0.11021   0.00000  Uiso   1.00
H408   H     0.68833   0.36471   0.17446   0.00000  Uiso   1.00
H409   H     0.75053   0.66548   0.19072   0.00000  Uiso   1.00
H410   H     0.69686   0.38789   0.35238   0.00000  Uiso   1.00
H411   H     0.96112   0.41389   0.35563   0.00000  Uiso   1.00
H412   H     0.97990   0.36130   0.39067   0.00000  Uiso   1.00
H413   H     0.91582   0.33862   0.31078   0.00000  Uiso   1.00
H414   H     0.92355   0.40341   0.44517   0.00000  Uiso   1.00
H415   H     0.97423   0.63406   0.32511   0.00000  Uiso   1.00
H416   H     0.75638   0.42227   0.15820   0.00000  Uiso   1.00
H417   H     0.80268   0.47500   0.14247   0.00000  Uiso   1.00
H418   H     0.82092   0.40806   0.13212   0.00000  Uiso   1.00
H419   H     0.87269   0.43936   0.20187   0.00000  Uiso   1.00
H420   H     0.81674   0.40418   0.22595   0.00000  Uiso   1.00
H421   H     0.86238   0.51910   0.35706   0.00000  Uiso   1.00
H422   H     0.90801   0.57501   0.34674   0.00000  Uiso   1.00
H423   H     0.84158   0.58477   0.37094   0.00000  Uiso   1.00
H424   H     0.85260   0.59561   0.27784   0.00000  Uiso   1.00
H425   H     0.89962   0.53609   0.11065   0.00000  Uiso   1.00
H426   H     0.79401   0.56097   0.29789   0.00000  Uiso   1.00
H427   H     0.77321   0.46830   0.38550   0.00000  Uiso   1.00
H428   H     0.70166   0.43697   0.09112   0.00000  Uiso   1.00
H429   H     0.95802   0.54800   0.41266   0.00000  Uiso   1.00
H430   H     0.98811   0.56580   0.49880   0.00000  Uiso   1.00
H431   H     0.99937   0.40873   0.00781   0.00000  Uiso   1.00
H432   H     0.81714   0.54520   0.09311   0.00000  Uiso   1.00
N433   N     0.81362   0.48550   0.23739   0.00000  Uiso   1.00
N434   N     0.85305   0.51450   0.26260   0.00000  Uiso   1.00
O435   O     0.96386   0.57964   0.25309   0.00000  Uiso   1.00
O436   O     0.70281   0.42036   0.24690   0.00000  Uiso   1.00
O437   O     0.72488   0.57035   0.24501   0.00000  Uiso   1.00
O438   O     0.94178   0.42965   0.25498   0.00000  Uiso   1.00
O439   O     0.96995   0.50730   0.32247   0.00000  Uiso   1.00
O440   O     0.69672   0.49270   0.17753   0.00000  Uiso   1.00
O441   O     0.73098   0.49801   0.31439   0.00000  Uiso   1.00
O442   O     0.93569   0.50199   0.18561   0.00000  Uiso   1.00
Zn443  Zn    0.93700   0.50621   0.25539   0.00000  Uiso   1.00
Zn444  Zn    0.72967   0.49379   0.24460   0.00000  Uiso   1.00
C445   C     0.01384   0.93095   0.24756   0.00000  Uiso   1.00
C446   C     0.31218   0.82851   0.15911   0.00000  Uiso   1.00
C447   C     0.03175   0.84084   0.39365   0.00000  Uiso   1.00
C448   C     0.30049   0.82028   0.10654   0.00000  Uiso   1.00
C449   C     0.01431   0.87710   0.47467   0.00000  Uiso   1.00
C450   C     0.30948   0.76916   0.03005   0.00000  Uiso   1.00
C451   C     0.33028   0.86676   0.42566   0.00000  Uiso   1.00
C452   C     0.33040   0.78593   0.07720   0.00000  Uiso   1.00
C453   C     0.08115   0.82133   0.41148   0.00000  Uiso   1.00
C454   C     0.25193   0.84021   0.08766   0.00000  Uiso   1.00
C455   C     0.09955   0.83097   0.46050   0.00000  Uiso   1.00
C456   C     0.31955   0.73579   0.25292   0.00000  Uiso   1.00
C457   C     0.22739   0.82059   0.04215   0.00000  Uiso   1.00
C458   C     0.06627   0.86112   0.49180   0.00000  Uiso   1.00
C459   C     0.25754   0.78513   0.01283   0.00000  Uiso   1.00
C460   C     0.15178   0.81444   0.47827   0.00000  Uiso   1.00
C461   C     0.17314   0.83381   0.02582   0.00000  Uiso   1.00
C462   C     0.03747   0.99503   0.18712   0.00000  Uiso   1.00
C463   C     0.01910   0.95364   0.14559   0.00000  Uiso   1.00
C464   C     0.29554   0.67208   0.31352   0.00000  Uiso   1.00
C465   C     0.31826   0.71151   0.35543   0.00000  Uiso   1.00
C466   C     0.16204   0.77285   0.20787   0.00000  Uiso   1.00
C467   C     0.13871   0.86420   0.05596   0.00000  Uiso   1.00
C468   C     0.13362   0.76968   0.15707   0.00000  Uiso   1.00
C469   C     0.17160   0.89285   0.29365   0.00000  Uiso   1.00
C470   C     0.19766   0.89249   0.34514   0.00000  Uiso   1.00
C471   C     0.18303   0.77891   0.45020   0.00000  Uiso   1.00
C472   C     0.08583   0.87630   0.03941   0.00000  Uiso   1.00
C473   C     0.23487   0.76471   0.46733   0.00000  Uiso   1.00
C474   C     0.01510   0.98342   0.23640   0.00000  Uiso   1.00
C475   C     0.31816   0.68332   0.26420   0.00000  Uiso   1.00
C476   C     0.02109   0.83762   0.34091   0.00000  Uiso   1.00
H477   H     0.06057   0.89891   0.06362   0.00000  Uiso   1.00
H478   H     0.16770   0.75947   0.41548   0.00000  Uiso   1.00
H479   H     0.04363   0.91872   0.14857   0.00000  Uiso   1.00
H480   H     0.30700   0.94310   0.14604   0.00000  Uiso   1.00
H481   H     0.02706   0.96926   0.11021   0.00000  Uiso   1.00
H482   H     0.02166   0.69804   0.17446   0.00000  Uiso   1.00
H483   H     0.08386   0.99881   0.19072   0.00000  Uiso   1.00
H484   H     0.03019   0.72123   0.35238   0.00000  Uiso   1.00
H485   H     0.29446   0.74723   0.35563   0.00000  Uiso   1.00
H486   H     0.31323   0.69464   0.39067   0.00000  Uiso   1.00
H487   H     0.24916   0.67195   0.31078   0.00000  Uiso   1.00
H488   H     0.25688   0.73674   0.44517   0.00000  Uiso   1.00
H489   H     0.30757   0.96740   0.32511   0.00000  Uiso   1.00
H490   H     0.08972   0.75561   0.15820   0.00000  Uiso   1.00
H491   H     0.13601   0.80833   0.14247   0.00000  Uiso   1.00
H492   H     0.15426   0.74139   0.13212   0.00000  Uiso   1.00
H493   H     0.20603   0.77270   0.20187   0.00000  Uiso   1.00
H494   H     0.15007   0.73751   0.22595   0.00000  Uiso   1.00
H495   H     0.19572   0.85244   0.35706   0.00000  Uiso   1.00
H496   H     0.24134   0.90834   0.34674   0.00000  Uiso   1.00
H497   H     0.17491   0.91810   0.37094   0.00000  Uiso   1.00
H498   H     0.18594   0.92895   0.27784   0.00000  Uiso   1.00
H499   H     0.23296   0.86942   0.11065   0.00000  Uiso   1.00
H500   H     0.12734   0.89431   0.29789   0.00000  Uiso   1.00
H501   H     0.10654   0.80163   0.38550   0.00000  Uiso   1.00
H502   H     0.03500   0.77030   0.09112   0.00000  Uiso   1.00
H503   H     0.29135   0.88133   0.41266   0.00000  Uiso   1.00
H504   H     0.32145   0.89914   0.49880   0.00000  Uiso   1.00
H505   H     0.33270   0.74206   0.00781   0.00000  Uiso   1.00
H506   H     0.15047   0.87853   0.09311   0.00000  Uiso   1.00
N507   N     0.14695   0.81883   0.23739   0.00000  Uiso   1.00
N508   N     0.18638   0.84784   0.26260   0.00000  Uiso   1.00
O509   O     0.29719   0.91298   0.25309   0.00000  Uiso   1.00
O510   O     0.03614   0.75369   0.24690   0.00000  Uiso   1.00
O511   O     0.05822   0.90368   0.24501   0.00000  Uiso   1.00
O512   O     0.27512   0.76298   0.25498   0.00000  Uiso   1.00
O513   O     0.30328   0.84063   0.32247   0.00000  Uiso   1.00
O514   O     0.03005   0.82603   0.17753   0.00000  Uiso   1.00
O515   O     0.06431   0.83134   0.31439   0.00000  Uiso   1.00
O516   O     0.26902   0.83533   0.18561   0.00000  Uiso   1.00
Zn517  Zn    0.27033   0.83954   0.25539   0.00000  Uiso   1.00
Zn518  Zn    0.06300   0.82713   0.24460   0.00000  Uiso   1.00
C519   C     0.34717   0.93095   0.24756   0.00000  Uiso   1.00
C520   C     0.64551   0.82851   0.15911   0.00000  Uiso   1.00
C521   C     0.36508   0.84084   0.39365   0.00000  Uiso   1.00
C522   C     0.63382   0.82028   0.10654   0.00000  Uiso   1.00
C523   C     0.34765   0.87710   0.47467   0.00000  Uiso   1.00
C524   C     0.64281   0.76916   0.03005   0.00000  Uiso   1.00
C525   C     0.66361   0.86676   0.42566   0.00000  Uiso   1.00
C526   C     0.66373   0.78593   0.07720   0.00000  Uiso   1.00
C527   C     0.41449   0.82133   0.41148   0.00000  Uiso   1.00
C528   C     0.58527   0.84021   0.08766   0.00000  Uiso   1.00
C529   C     0.43288   0.83097   0.46050   0.00000  Uiso   1.00
C530   C     0.65288   0.73579   0.25292   0.00000  Uiso   1.00
C531   C     0.56072   0.82059   0.04215   0.00000  Uiso   1.00
C532   C     0.39961   0.86112   0.49180   0.00000  Uiso   1.00
C533   C     0.59087   0.78513   0.01283   0.00000  Uiso   1.00
C534   C     0.48512   0.81444   0.47827   0.00000  Uiso   1.00
C535   C     0.50647   0.83381   0.02582   0.00000  Uiso   1.00
C536   C     0.37081   0.99503   0.18712   0.00000  Uiso   1.00
C537   C     0.35243   0.95364   0.14559   0.00000  Uiso   1.00
C538   C     0.62887   0.67208   0.31352   0.00000  Uiso   1.00
C539   C     0.65160   0.71151   0.35543   0.00000  Uiso   1.00
C540   C     0.49537   0.77285   0.20787   0.00000  Uiso   1.00
C541   C     0.47205   0.86420   0.05596   0.00000  Uiso   1.00
C542   C     0.46695   0.76968   0.15707   0.00000  Uiso   1.00
C543   C     0.50493   0.89285   0.29365   0.00000  Uiso   1.00
C544   C     0.53099   0.89249   0.34514   0.00000  Uiso   1.00
C545   C     0.51637   0.77891   0.45020   0.00000  Uiso   1.00
C546   C     0.41917   0.87630   0.03941   0.00000  Uiso   1.00
C547   C     0.56820   0.76471   0.46733   0.00000  Uiso   1.00
C548   C     0.34843   0.98342   0.23640   0.00000  Uiso   1.00
C549   C     0.65150   0.68332   0.26420   0.00000  Uiso   1.00
C550   C     0.35442   0.83762   0.34091   0.00000  Uiso   1.00
H551   H     0.39390   0.89891   0.06362   0.00000  Uiso   1.00
H552   H     0.50104   0.75947   0.41548   0.00000  Uiso   1.00
H553   H     0.37697   0.91872   0.14857   0.00000  Uiso   1.00
H554   H     0.64033   0.94310   0.14604   0.00000  Uiso   1.00
H555   H     0.36040   0.96926   0.11021   0.00000  Uiso   1.00
H556   H     0.35499   0.69804   0.17446   0.00000  Uiso   1.00
H557   H     0.41720   0.99881   0.19072   0.00000  Uiso   1.00
H558   H     0.36352   0.72123   0.35238   0.00000  Uiso   1.00
H559   H     0.62779   0.74723   0.35563   0.00000  Uiso   1.00
H560   H     0.64657   0.69464   0.39067   0.00000  Uiso   1.00
H561   H     0.58249   0.67195   0.31078   0.00000  Uiso   1.00
H562   H     0.59021   0.73674   0.44517   0.00000  Uiso   1.00
H563   H     0.64090   0.96740   0.32511   0.00000  Uiso   1.00
H564   H     0.42305   0.75561   0.15820   0.00000  Uiso   1.00
H565   H     0.46935   0.80833   0.14247   0.00000  Uiso   1.00
H566   H     0.48759   0.74139   0.13212   0.00000  Uiso   1.00
H567   H     0.53936   0.77270   0.20187   0.00000  Uiso   1.00
H568   H     0.48340   0.73751   0.22595   0.00000  Uiso   1.00
H569   H     0.52905   0.85244   0.35706   0.00000  Uiso   1.00
H570   H     0.57467   0.90834   0.34674   0.00000  Uiso   1.00
H571   H     0.50824   0.91810   0.37094   0.00000  Uiso   1.00
H572   H     0.51927   0.92895   0.27784   0.00000  Uiso   1.00
H573   H     0.56629   0.86942   0.11065   0.00000  Uiso   1.00
H574   H     0.46068   0.89431   0.29789   0.00000  Uiso   1.00
H575   H     0.43988   0.80163   0.38550   0.00000  Uiso   1.00
H576   H     0.36833   0.77030   0.09112   0.00000  Uiso   1.00
H577   H     0.62469   0.88133   0.41266   0.00000  Uiso   1.00
H578   H     0.65478   0.89914   0.49880   0.00000  Uiso   1.00
H579   H     0.66603   0.74206   0.00781   0.00000  Uiso   1.00
H580   H     0.48380   0.87853   0.09311   0.00000  Uiso   1.00
N581   N     0.48029   0.81883   0.23739   0.00000  Uiso   1.00
N582   N     0.51971   0.84784   0.26260   0.00000  Uiso   1.00
O583   O     0.63052   0.91298   0.25309   0.00000  Uiso   1.00
O584   O     0.36948   0.75369   0.24690   0.00000  Uiso   1.00
O585   O     0.39155   0.90368   0.24501   0.00000  Uiso   1.00
O586   O     0.60845   0.76298   0.25498   0.00000  Uiso   1.00
O587   O     0.63662   0.84063   0.32247   0.00000  Uiso   1.00
O588   O     0.36338   0.82603   0.17753   0.00000  Uiso   1.00
O589   O     0.39764   0.83134   0.31439   0.00000  Uiso   1.00
O590   O     0.60236   0.83533   0.18561   0.00000  Uiso   1.00
Zn591  Zn    0.60366   0.83954   0.25539   0.00000  Uiso   1.00
Zn592  Zn    0.39634   0.82713   0.24460   0.00000  Uiso   1.00
C593   C     0.68050   0.93095   0.24756   0.00000  Uiso   1.00
C594   C     0.97885   0.82851   0.15911   0.00000  Uiso   1.00
C595   C     0.69841   0.84084   0.39365   0.00000  Uiso   1.00
C596   C     0.96716   0.82028   0.10654   0.00000  Uiso   1.00
C597   C     0.68098   0.87710   0.47467   0.00000  Uiso   1.00
C598   C     0.97615   0.76916   0.03005   0.00000  Uiso   1.00
C599   C     0.99694   0.86676   0.42566   0.00000  Uiso   1.00
C600   C     0.99707   0.78593   0.07720   0.00000  Uiso   1.00
C601   C     0.74782   0.82133   0.41148   0.00000  Uiso   1.00
C602   C     0.91860   0.84021   0.08766   0.00000  Uiso   1.00
C603   C     0.76622   0.83097   0.46050   0.00000  Uiso   1.00
C604   C     0.98621   0.73579   0.25292   0.00000  Uiso   1.00
C605   C     0.89405   0.82059   0.04215   0.00000  Uiso   1.00
C606   C     0.73294   0.86112   0.49180   0.00000  Uiso   1.00
C607   C     0.92420   0.78513   0.01283   0.00000  Uiso   1.00
C608   C     0.81845   0.81444   0.47827   0.00000  Uiso   1.00
C609   C     0.83981   0.83381   0.02582   0.00000  Uiso   1.00
C610   C     0.70414   0.99503   0.18712   0.00000  Uiso   1.00
C611   C     0.68576   0.95364   0.14559   0.00000  Uiso   1.00
C612   C     0.96221   0.67208   0.31352   0.00000  Uiso   1.00
C613   C     0.98493   0.71151   0.35543   0.00000  Uiso   1.00
C614   C     0.82870   0.77285   0.20787   0.00000  Uiso   1.00
C615   C     0.80538   0.86420   0.05596   0.00000  Uiso   1.00
C616   C     0.80028   0.76968   0.15707   0.00000  Uiso   1.00
C617   C     0.83826   0.89285   0.29365   0.00000  Uiso   1.00
C618   C     0.86432   0.89249   0.34514   0.00000  Uiso   1.00
C619   C     0.84970   0.77891   0.45020   0.00000  Uiso   1.00
C620   C     0.75250   0.87630   0.03941   0.00000  Uiso   1.00
C621   C     0.90153   0.76471   0.46733   0.00000  Uiso   1.00
C622   C     0.68177   0.98342   0.23640   0.00000  Uiso   1.00
C623   C     0.98483   0.68332   0.26420   0.00000  Uiso   1.00
C624   C     0.68775   0.83762   0.34091   0.00000  Uiso   1.00
H625   H     0.72724   0.89891   0.06362   0.00000  Uiso   1.00
H626   H     0.83437   0.75947   0.41548   0.00000  Uiso   1.00
H627   H     0.71030   0.91872   0.14857   0.00000  Uiso   1.00
H628   H     0.97367   0.94310   0.14604   0.00000  Uiso   1.00
H629   H     0.69373   0.96926   0.11021   0.00000  Uiso   1.00
H630   H     0.68833   0.69804   0.17446   0.00000  Uiso   1.00
H631   H     0.75053   0.99881   0.19072   0.00000  Uiso   1.00
H632   H     0.69686   0.72123   0.35238   0.00000  Uiso   1.00
H633   H     0.96112   0.74723   0.35563   0.00000  Uiso   1.00
H634   H     0.97990   0.69464   0.39067   0.00000  Uiso   1.00
H635   H     0.91582   0.67195   0.31078   0.00000  Uiso   1.00
H636   H     0.92355   0.73674   0.44517   0.00000  Uiso   1.00
H637   H     0.97423   0.96740   0.32511   0.00000  Uiso   1.00
H638   H     0.75638   0.75561   0.15820   0.00000  Uiso   1.00
H639   H     0.80268   0.80833   0.14247   0.00000  Uiso   1.00
H640   H     0.82092   0.74139   0.13212   0.00000  Uiso   1.00
H641   H     0.87269   0.77270   0.20187   0.00000  Uiso   1.00
H642   H     0.81674   0.73751   0.22595   0.00000  Uiso   1.00
H643   H     0.86238   0.85244   0.35706   0.00000  Uiso   1.00
H644   H     0.90801   0.90834   0.34674   0.00000  Uiso   1.00
H645   H     0.84158   0.91810   0.37094   0.00000  Uiso   1.00
H646   H     0.85260   0.92895   0.27784   0.00000  Uiso   1.00
H647   H     0.89962   0.86942   0.11065   0.00000  Uiso   1.00
H648   H     0.79401   0.89431   0.29789   0.00000  Uiso   1.00
H649   H     0.77321   0.80163   0.38550   0.00000  Uiso   1.00
H650   H     0.70166   0.77030   0.09112   0.00000  Uiso   1.00
H651   H     0.95802   0.88133   0.41266   0.00000  Uiso   1.00
H652   H     0.98811   0.89914   0.49880   0.00000  Uiso   1.00
H653   H     0.99937   0.74206   0.00781   0.00000  Uiso   1.00
H654   H     0.81714   0.87853   0.09311   0.00000  Uiso   1.00
N655   N     0.81362   0.81883   0.23739   0.00000  Uiso   1.00
N656   N     0.85305   0.84784   0.26260   0.00000  Uiso   1.00
O657   O     0.96386   0.91298   0.25309   0.00000  Uiso   1.00
O658   O     0.70281   0.75369   0.24690   0.00000  Uiso   1.00
O659   O     0.72488   0.90368   0.24501   0.00000  Uiso   1.00
O660   O     0.94178   0.76298   0.25498   0.00000  Uiso   1.00
O661   O     0.96995   0.84063   0.32247   0.00000  Uiso   1.00
O662   O     0.69672   0.82603   0.17753   0.00000  Uiso   1.00
O663   O     0.73098   0.83134   0.31439   0.00000  Uiso   1.00
O664   O     0.93569   0.83533   0.18561   0.00000  Uiso   1.00
Zn665  Zn    0.93700   0.83954   0.25539   0.00000  Uiso   1.00
Zn666  Zn    0.72967   0.82713   0.24460   0.00000  Uiso   1.00
C667   C     0.01384   0.26429   0.74756   0.00000  Uiso   1.00
C668   C     0.31218   0.16185   0.65911   0.00000  Uiso   1.00
C669   C     0.03175   0.17418   0.89365   0.00000  Uiso   1.00
C670   C     0.30049   0.15361   0.60654   0.00000  Uiso   1.00
C671   C     0.01431   0.21043   0.97467   0.00000  Uiso   1.00
C672   C     0.30948   0.10250   0.53005   0.00000  Uiso   1.00
C673   C     0.33028   0.20009   0.92566   0.00000  Uiso   1.00
C674   C     0.33040   0.11926   0.57720   0.00000  Uiso   1.00
C675   C     0.08115   0.15466   0.91148   0.00000  Uiso   1.00
C676   C     0.25193   0.17354   0.58766   0.00000  Uiso   1.00
C677   C     0.09955   0.16431   0.96050   0.00000  Uiso   1.00
C678   C     0.31955   0.06913   0.75292   0.00000  Uiso   1.00
C679   C     0.22739   0.15392   0.54215   0.00000  Uiso   1.00
C680   C     0.06627   0.19445   0.99180   0.00000  Uiso   1.00
C681   C     0.25754   0.11847   0.51283   0.00000  Uiso   1.00
C682   C     0.15178   0.14778   0.97827   0.00000  Uiso   1.00
C683   C     0.17314   0.16714   0.52582   0.00000  Uiso   1.00
C684   C     0.03747   0.32836   0.68712   0.00000  Uiso   1.00
C685   C     0.01910   0.28698   0.64559   0.00000  Uiso   1.00
C686   C     0.29554   0.00542   0.81352   0.00000  Uiso   1.00
C687   C     0.31826   0.04484   0.85543   0.00000  Uiso   1.00
C688   C     0.16204   0.10618   0.70787   0.00000  Uiso   1.00
C689   C     0.13871   0.19753   0.55596   0.00000  Uiso   1.00
C690   C     0.13362   0.10301   0.65707   0.00000  Uiso   1.00
C691   C     0.17160   0.22618   0.79365   0.00000  Uiso   1.00
C692   C     0.19766   0.22582   0.84514   0.00000  Uiso   1.00
C693   C     0.18303   0.11224   0.95020   0.00000  Uiso   1.00
C694   C     0.08583   0.20963   0.53941   0.00000  Uiso   1.00
C695   C     0.23487   0.09804   0.96733   0.00000  Uiso   1.00
C696   C     0.01510   0.31675   0.73640   0.00000  Uiso   1.00
C697   C     0.31816   0.01666   0.76420   0.00000  Uiso   1.00
C698   C     0.02109   0.17095   0.84091   0.00000  Uiso   1.00
H699   H     0.06057   0.23224   0.56362   0.00000  Uiso   1.00
H700   H     0.16770   0.09281   0.91548   0.00000  Uiso   1.00
H701   H     0.04363   0.25205   0.64857   0.00000  Uiso   1.00
H702   H     0.30700   0.27643   0.64604   0.00000  Uiso   1.00
H703   H     0.02706   0.30260   0.61021   0.00000  Uiso   1.00
H704   H     0.02166   0.03138   0.67446   0.00000  Uiso   1.00
H705   H     0.08386   0.33214   0.69072   0.00000  Uiso   1.00
H706   H     0.03019   0.05456   0.85238   0.00000  Uiso   1.00
H707   H     0.29446   0.08056   0.85563   0.00000  Uiso   1.00
H708   H     0.31323   0.02797   0.89067   0.00000  Uiso   1.00
H709   H     0.24916   0.00528   0.81078   0.00000  Uiso   1.00
H710   H     0.25688   0.07008   0.94517   0.00000  Uiso   1.00
H711   H     0.30757   0.30073   0.82511   0.00000  Uiso   1.00
H712   H     0.08972   0.08894   0.65820   0.00000  Uiso   1.00
H713   H     0.13601   0.14167   0.64247   0.00000  Uiso   1.00
H714   H     0.15426   0.07472   0.63212   0.00000  Uiso   1.00
H715   H     0.20603   0.10603   0.70187   0.00000  Uiso   1.00
H716   H     0.15007   0.07085   0.72595   0.00000  Uiso   1.00
H717   H     0.19572   0.18577   0.85706   0.00000  Uiso   1.00
H718   H     0.24134   0.24168   0.84674   0.00000  Uiso   1.00
H719   H     0.17491   0.25143   0.87094   0.00000  Uiso   1.00
H720   H     0.18594   0.26228   0.77784   0.00000  Uiso   1.00
H721   H     0.23296   0.20275   0.61065   0.00000  Uiso   1.00
H722   H     0.12734   0.22764   0.79789   0.00000  Uiso   1.00
H723   H     0.10654   0.13496   0.88550   0.00000  Uiso   1.00
H724   H     0.03500   0.10363   0.59112   0.00000  Uiso   1.00
H725   H     0.29135   0.21467   0.91266   0.00000  Uiso   1.00
H726   H     0.32145   0.23247   0.99880   0.00000  Uiso   1.00
H727   H     0.33270   0.07539   0.50781   0.00000  Uiso   1.00
H728   H     0.15047   0.21186   0.59311   0.00000  Uiso   1.00
N729   N     0.14695   0.15216   0.73739   0.00000  Uiso   1.00
N730   N     0.18638   0.18117   0.76260   0.00000  Uiso   1.00
O731   O     0.29719   0.24631   0.75309   0.00000  Uiso   1.00
O732   O     0.03614   0.08702   0.74690   0.00000  Uiso   1.00
O733   O     0.05822   0.23702   0.74501   0.00000  Uiso   1.00
O734   O     0.27512   0.09632   0.75498   0.00000  Uiso   1.00
O735   O     0.30328   0.17397   0.82247   0.00000  Uiso   1.00
O736   O     0.03005   0.15937   0.67753   0.00000  Uiso   1.00
O737   O     0.06431   0.16467   0.81439   0.00000  Uiso   1.00
O738   O     0.26902   0.16866   0.68561   0.00000  Uiso   1.00
Zn739  Zn    0.27033   0.17287   0.75539   0.00000  Uiso   1.00
Zn740  Zn    0.06300   0.16046   0.74460   0.00000  Uiso   1.00
C741   C     0.34717   0.26429   0.74756   0.00000  Uiso   1.00
C742   C     0.64551   0.16185   0.65911   0.00000  Uiso   1.00
C743   C     0.36508   0.17418   0.89365   0.00000  Uiso   1.00
C744   C     0.63382   0.15361   0.60654   0.00000  Uiso   1.00
C745   C     0.34765   0.21043   0.97467   0.00000  Uiso   1.00
C746   C     0.64281   0.10250   0.53005   0.00000  Uiso   1.00
C747   C     0.66361   0.20009   0.92566   0.00000  Uiso   1.00
C748   C     0.66373   0.11926   0.57720   0.00000  Uiso   1.00
C749   C     0.41449   0.15466   0.91148   0.00000  Uiso   1.00
C750   C     0.58527   0.17354   0.58766   0.00000  Uiso   1.00
C751   C     0.43288   0.16431   0.96050   0.00000  Uiso   1.00
C752   C     0.65288   0.06913   0.75292   0.00000  Uiso   1.00
C753   C     0.56072   0.15392   0.54215   0.00000  Uiso   1.00
C754   C     0.39961   0.19445   0.99180   0.00000  Uiso   1.00
C755   C     0.59087   0.11847   0.51283   0.00000  Uiso   1.00
C756   C     0.48512   0.14778   0.97827   0.00000  Uiso   1.00
C757   C     0.50647   0.16714   0.52582   0.00000  Uiso   1.00
C758   C     0.37081   0.32836   0.68712   0.00000  Uiso   1.00
C759   C     0.35243   0.28698   0.64559   0.00000  Uiso   1.00
C760   C     0.62887   0.00542   0.81352   0.00000  Uiso   1.00
C761   C     0.65160   0.04484   0.85543   0.00000  Uiso   1.00
C762   C     0.49537   0.10618   0.70787   0.00000  Uiso   1.00
C763   C     0.47205   0.19753   0.55596   0.00000  Uiso   1.00
C764   C     0.46695   0.10301   0.65707   0.00000  Uiso   1.00
C765   C     0.50493   0.22618   0.79365   0.00000  Uiso   1.00
C766   C     0.53099   0.22582   0.84514   0.00000  Uiso   1.00
C767   C     0.51637   0.11224   0.95020   0.00000  Uiso   1.00
C768   C     0.41917   0.20963   0.53941   0.00000  Uiso   1.00
C769   C     0.56820   0.09804   0.96733   0.00000  Uiso   1.00
C770   C     0.34843   0.31675   0.73640   0.00000  Uiso   1.00
C771   C     0.65150   0.01666   0.76420   0.00000  Uiso   1.00
C772   C     0.35442   0.17095   0.84091   0.00000  Uiso   1.00
H773   H     0.39390   0.23224   0.56362   0.00000  Uiso   1.00
H774   H     0.50104   0.09281   0.91548   0.00000  Uiso   1.00
H775   H     0.37697   0.25205   0.64857   0.00000  Uiso   1.00
H776   H     0.64033   0.27643   0.64604   0.00000  Uiso   1.00
H777   H     0.36040   0.30260   0.61021   0.00000  Uiso   1.00
H778   H     0.35499   0.03138   0.67446   0.00000  Uiso   1.00
H779   H     0.41720   0.33214   0.69072   0.00000  Uiso   1.00
H780   H     0.36352   0.05456   0.85238   0.00000  Uiso   1.00
H781   H     0.62779   0.08056   0.85563   0.00000  Uiso   1.00
H782   H     0.64657   0.02797   0.89067   0.00000  Uiso   1.00
H783   H     0.58249   0.00528   0.81078   0.00000  Uiso   1.00
H784   H     0.59021   0.07008   0.94517   0.00000  Uiso   1.00
H785   H     0.64090   0.30073   0.82511   0.00000  Uiso   1.00
H786   H     0.42305   0.08894   0.65820   0.00000  Uiso   1.00
H787   H     0.46935   0.14167   0.64247   0.00000  Uiso   1.00
H788   H     0.48759   0.07472   0.63212   0.00000  Uiso   1.00
H789   H     0.53936   0.10603   0.70187   0.00000  Uiso   1.00
H790   H     0.48340   0.07085   0.72595   0.00000  Uiso   1.00
H791   H     0.52905   0.18577   0.85706   0.00000  Uiso   1.00
H792   H     0.57467   0.24168   0.84674   0.00000  Uiso   1.00
H793   H     0.50824   0.25143   0.87094   0.00000  Uiso   1.00
H794   H     0.51927   0.26228   0.77784   0.00000  Uiso   1.00
H795   H     0.56629   0.20275   0.61065   0.00000  Uiso   1.00
H796   H     0.46068   0.22764   0.79789   0.00000  Uiso   1.00
H797   H     0.43988   0.13496   0.88550   0.00000  Uiso   1.00
H798   H     0.36833   0.10363   0.59112   0.00000  Uiso   1.00
H799   H     0.62469   0.21467   0.91266   0.00000  Uiso   1.00
H800   H     0.65478   0.23247   0.99880   0.00000  Uiso   1.00
H801   H     0.66603   0.07539   0.50781   0.00000  Uiso   1.00
H802   H     0.48380   0.21186   0.59311   0.00000  Uiso   1.00
N803   N     0.48029   0.15216   0.73739   0.00000  Uiso   1.00
N804   N     0.51971   0.18117   0.76260   0.00000  Uiso   1.00
O805   O     0.63052   0.24631   0.75309   0.00000  Uiso   1.00
O806   O     0.36948   0.08702   0.74690   0.00000  Uiso   1.00
O807   O     0.39155   0.23702   0.74501   0.00000  Uiso   1.00
O808   O     0.60845   0.09632   0.75498   0.00000  Uiso   1.00
O809   O     0.63662   0.17397   0.82247   0.00000  Uiso   1.00
O810   O     0.36338   0.15937   0.67753   0.00000  Uiso   1.00
O811   O     0.39764   0.16467   0.81439   0.00000  Uiso   1.00
O812   O     0.60236   0.16866   0.68561   0.00000  Uiso   1.00
Zn813  Zn    0.60366   0.17287   0.75539   0.00000  Uiso   1.00
Zn814  Zn    0.39634   0.16046   0.74460   0.00000  Uiso   1.00
C815   C     0.68050   0.26429   0.74756   0.00000  Uiso   1.00
C816   C     0.97885   0.16185   0.65911   0.00000  Uiso   1.00
C817   C     0.69841   0.17418   0.89365   0.00000  Uiso   1.00
C818   C     0.96716   0.15361   0.60654   0.00000  Uiso   1.00
C819   C     0.68098   0.21043   0.97467   0.00000  Uiso   1.00
C820   C     0.97615   0.10250   0.53005   0.00000  Uiso   1.00
C821   C     0.99694   0.20009   0.92566   0.00000  Uiso   1.00
C822   C     0.99707   0.11926   0.57720   0.00000  Uiso   1.00
C823   C     0.74782   0.15466   0.91148   0.00000  Uiso   1.00
C824   C     0.91860   0.17354   0.58766   0.00000  Uiso   1.00
C825   C     0.76622   0.16431   0.96050   0.00000  Uiso   1.00
C826   C     0.98621   0.06913   0.75292   0.00000  Uiso   1.00
C827   C     0.89405   0.15392   0.54215   0.00000  Uiso   1.00
C828   C     0.73294   0.19445   0.99180   0.00000  Uiso   1.00
C829   C     0.92420   0.11847   0.51283   0.00000  Uiso   1.00
C830   C     0.81845   0.14778   0.97827   0.00000  Uiso   1.00
C831   C     0.83981   0.16714   0.52582   0.00000  Uiso   1.00
C832   C     0.70414   0.32836   0.68712   0.00000  Uiso   1.00
C833   C     0.68576   0.28698   0.64559   0.00000  Uiso   1.00
C834   C     0.96221   0.00542   0.81352   0.00000  Uiso   1.00
C835   C     0.98493   0.04484   0.85543   0.00000  Uiso   1.00
C836   C     0.82870   0.10618   0.70787   0.00000  Uiso   1.00
C837   C     0.80538   0.19753   0.55596   0.00000  Uiso   1.00
C838   C     0.80028   0.10301   0.65707   0.00000  Uiso   1.00
C839   C     0.83826   0.22618   0.79365   0.00000  Uiso   1.00
C840   C     0.86432   0.22582   0.84514   0.00000  Uiso   1.00
C841   C     0.84970   0.11224   0.95020   0.00000  Uiso   1.00
C842   C     0.75250   0.20963   0.53941   0.00000  Uiso   1.00
C843   C     0.90153   0.09804   0.96733   0.00000  Uiso   1.00
C844   C     0.68177   0.31675   0.73640   0.00000  Uiso   1.00
C845   C     0.98483   0.01666   0.76420   0.00000  Uiso   1.00
C846   C     0.68775   0.17095   0.84091   0.00000  Uiso   1.00
H847   H     0.72724   0.23224   0.56362   0.00000  Uiso   1.00
H848   H     0.83437   0.09281   0.91548   0.00000  Uiso   1.00
H849   H     0.71030   0.25205   0.64857   0.00000  Uiso   1.00
H850   H     0.97367   0.27643   0.64604   0.00000  Uiso   1.00
H851   H     0.69373   0.30260   0.61021   0.00000  Uiso   1.00
H852   H     0.68833   0.03138   0.67446   0.00000  Uiso   1.00
H853   H     0.75053   0.33214   0.69072   0.00000  Uiso   1.00
H854   H     0.69686   0.05456   0.85238   0.00000  Uiso   1.00
H855   H     0.96112   0.08056   0.85563   0.00000  Uiso   1.00
H856   H     0.97990   0.02797   0.89067   0.00000  Uiso   1.00
H857   H     0.91582   0.00528   0.81078   0.00000  Uiso   1.00
H858   H     0.92355   0.07008   0.94517   0.00000  Uiso   1.00
H859   H     0.97423   0.30073   0.82511   0.00000  Uiso   1.00
H860   H     0.75638   0.08894   0.65820   0.00000  Uiso   1.00
H861   H     0.80268   0.14167   0.64247   0.00000  Uiso   1.00
H862   H     0.82092   0.07472   0.63212   0.00000  Uiso   1.00
H863   H     0.87269   0.10603   0.70187   0.00000  Uiso   1.00
H864   H     0.81674   0.07085   0.72595   0.00000  Uiso   1.00
H865   H     0.86238   0.18577   0.85706   0.00000  Uiso   1.00
H866   H     0.90801   0.24168   0.84674   0.00000  Uiso   1.00
H867   H     0.84158   0.25143   0.87094   0.00000  Uiso   1.00
H868   H     0.85260   0.26228   0.77784   0.00000  Uiso   1.00
H869   H     0.89962   0.20275   0.61065   0.00000  Uiso   1.00
H870   H     0.79401   0.22764   0.79789   0.00000  Uiso   1.00
H871   H     0.77321   0.13496   0.88550   0.00000  Uiso   1.00
H872   H     0.70166   0.10363   0.59112   0.00000  Uiso   1.00
H873   H     0.95802   0.21467   0.91266   0.00000  Uiso   1.00
H874   H     0.98811   0.23247   0.99880   0.00000  Uiso   1.00
H875   H     0.99937   0.07539   0.50781   0.00000  Uiso   1.00
H876   H     0.81714   0.21186   0.59311   0.00000  Uiso   1.00
N877   N     0.81362   0.15216   0.73739   0.00000  Uiso   1.00
N878   N     0.85305   0.18117   0.76260   0.00000  Uiso   1.00
O879   O     0.96386   0.24631   0.75309   0.00000  Uiso   1.00
O880   O     0.70281   0.08702   0.74690   0.00000  Uiso   1.00
O881   O     0.72488   0.23702   0.74501   0.00000  Uiso   1.00
O882   O     0.94178   0.09632   0.75498   0.00000  Uiso   1.00
O883   O     0.96995   0.17397   0.82247   0.00000  Uiso   1.00
O884   O     0.69672   0.15937   0.67753   0.00000  Uiso   1.00
O885   O     0.73098   0.16467   0.81439   0.00000  Uiso   1.00
O886   O     0.93569   0.16866   0.68561   0.00000  Uiso   1.00
Zn887  Zn    0.93700   0.17287   0.75539   0.00000  Uiso   1.00
Zn888  Zn    0.72967   0.16046   0.74460   0.00000  Uiso   1.00
C889   C     0.01384   0.59762   0.74756   0.00000  Uiso   1.00
C890   C     0.31218   0.49518   0.65911   0.00000  Uiso   1.00
C891   C     0.03175   0.50751   0.89365   0.00000  Uiso   1.00
C892   C     0.30049   0.48694   0.60654   0.00000  Uiso   1.00
C893   C     0.01431   0.54376   0.97467   0.00000  Uiso   1.00
C894   C     0.30948   0.43583   0.53005   0.00000  Uiso   1.00
C895   C     0.33028   0.53342   0.92566   0.00000  Uiso   1.00
C896   C     0.33040   0.45259   0.57720   0.00000  Uiso   1.00
C897   C     0.08115   0.48800   0.91148   0.00000  Uiso   1.00
C898   C     0.25193   0.50688   0.58766   0.00000  Uiso   1.00
C899   C     0.09955   0.49764   0.96050   0.00000  Uiso   1.00
C900   C     0.31955   0.40246   0.75292   0.00000  Uiso   1.00
C901   C     0.22739   0.48726   0.54215   0.00000  Uiso   1.00
C902   C     0.06627   0.52779   0.99180   0.00000  Uiso   1.00
C903   C     0.25754   0.45180   0.51283   0.00000  Uiso   1.00
C904   C     0.15178   0.48111   0.97827   0.00000  Uiso   1.00
C905   C     0.17314   0.50048   0.52582   0.00000  Uiso   1.00
C906   C     0.03747   0.66170   0.68712   0.00000  Uiso   1.00
C907   C     0.01910   0.62031   0.64559   0.00000  Uiso   1.00
C908   C     0.29554   0.33875   0.81352   0.00000  Uiso   1.00
C909   C     0.31826   0.37818   0.85543   0.00000  Uiso   1.00
C910   C     0.16204   0.43952   0.70787   0.00000  Uiso   1.00
C911   C     0.13871   0.53086   0.55596   0.00000  Uiso   1.00
C912   C     0.13362   0.43634   0.65707   0.00000  Uiso   1.00
C913   C     0.17160   0.55952   0.79365   0.00000  Uiso   1.00
C914   C     0.19766   0.55916   0.84514   0.00000  Uiso   1.00
C915   C     0.18303   0.44558   0.95020   0.00000  Uiso   1.00
C916   C     0.08583   0.54296   0.53941   0.00000  Uiso   1.00
C917   C     0.23487   0.43138   0.96733   0.00000  Uiso   1.00
C918   C     0.01510   0.65008   0.73640   0.00000  Uiso   1.00
C919   C     0.31816   0.34999   0.76420   0.00000  Uiso   1.00
C920   C     0.02109   0.50428   0.84091   0.00000  Uiso   1.00
H921   H     0.06057   0.56557   0.56362   0.00000  Uiso   1.00
H922   H     0.16770   0.42614   0.91548   0.00000  Uiso   1.00
H923   H     0.04363   0.58538   0.64857   0.00000  Uiso   1.00
H924   H     0.30700   0.60976   0.64604   0.00000  Uiso   1.00
H925   H     0.02706   0.63593   0.61021   0.00000  Uiso   1.00
H926   H     0.02166   0.36471   0.67446   0.00000  Uiso   1.00
H927   H     0.08386   0.66548   0.69072   0.00000  Uiso   1.00
H928   H     0.03019   0.38789   0.85238   0.00000  Uiso   1.00
H929   H     0.29446   0.41389   0.85563   0.00000  Uiso   1.00
H930   H     0.31323   0.36130   0.89067   0.00000  Uiso   1.00
H931   H     0.24916   0.33862   0.81078   0.00000  Uiso   1.00
H932   H     0.25688   0.40341   0.94517   0.00000  Uiso   1.00
H933   H     0.30757   0.63406   0.82511   0.00000  Uiso   1.00
H934   H     0.08972   0.42227   0.65820   0.00000  Uiso   1.00
H935   H     0.13601   0.47500   0.64247   0.00000  Uiso   1.00
H936   H     0.15426   0.40806   0.63212   0.00000  Uiso   1.00
H937   H     0.20603   0.43936   0.70187   0.00000  Uiso   1.00
H938   H     0.15007   0.40418   0.72595   0.00000  Uiso   1.00
H939   H     0.19572   0.51910   0.85706   0.00000  Uiso   1.00
H940   H     0.24134   0.57501   0.84674   0.00000  Uiso   1.00
H941   H     0.17491   0.58477   0.87094   0.00000  Uiso   1.00
H942   H     0.18594   0.59561   0.77784   0.00000  Uiso   1.00
H943   H     0.23296   0.53609   0.61065   0.00000  Uiso   1.00
H944   H     0.12734   0.56097   0.79789   0.00000  Uiso   1.00
H945   H     0.10654   0.46830   0.88550   0.00000  Uiso   1.00
H946   H     0.03500   0.43697   0.59112   0.00000  Uiso   1.00
H947   H     0.29135   0.54800   0.91266   0.00000  Uiso   1.00
H948   H     0.32145   0.56580   0.99880   0.00000  Uiso   1.00
H949   H     0.33270   0.40873   0.50781   0.00000  Uiso   1.00
H950   H     0.15047   0.54520   0.59311   0.00000  Uiso   1.00
N951   N     0.14695   0.48550   0.73739   0.00000  Uiso   1.00
N952   N     0.18638   0.51450   0.76260   0.00000  Uiso   1.00
O953   O     0.29719   0.57964   0.75309   0.00000  Uiso   1.00
O954   O     0.03614   0.42036   0.74690   0.00000  Uiso   1.00
O955   O     0.05822   0.57035   0.74501   0.00000  Uiso   1.00
O956   O     0.27512   0.42965   0.75498   0.00000  Uiso   1.00
O957   O     0.30328   0.50730   0.82247   0.00000  Uiso   1.00
O958   O     0.03005   0.49270   0.67753   0.00000  Uiso   1.00
O959   O     0.06431   0.49801   0.81439   0.00000  Uiso   1.00
O960   O     0.26902   0.50199   0.68561   0.00000  Uiso   1.00
Zn961  Zn    0.27033   0.50621   0.75539   0.00000  Uiso   1.00
Zn962  Zn    0.06300   0.49379   0.74460   0.00000  Uiso   1.00
C963   C     0.34717   0.59762   0.74756   0.00000  Uiso   1.00
C964   C     0.64551   0.49518   0.65911   0.00000  Uiso   1.00
C965   C     0.36508   0.50751   0.89365   0.00000  Uiso   1.00
C966   C     0.63382   0.48694   0.60654   0.00000  Uiso   1.00
C967   C     0.34765   0.54376   0.97467   0.00000  Uiso   1.00
C968   C     0.64281   0.43583   0.53005   0.00000  Uiso   1.00
C969   C     0.66361   0.53342   0.92566   0.00000  Uiso   1.00
C970   C     0.66373   0.45259   0.57720   0.00000  Uiso   1.00
C971   C     0.41449   0.48800   0.91148   0.00000  Uiso   1.00
C972   C     0.58527   0.50688   0.58766   0.00000  Uiso   1.00
C973   C     0.43288   0.49764   0.96050   0.00000  Uiso   1.00
C974   C     0.65288   0.40246   0.75292   0.00000  Uiso   1.00
C975   C     0.56072   0.48726   0.54215   0.00000  Uiso   1.00
C976   C     0.39961   0.52779   0.99180   0.00000  Uiso   1.00
C977   C     0.59087   0.45180   0.51283   0.00000  Uiso   1.00
C978   C     0.48512   0.48111   0.97827   0.00000  Uiso   1.00
C979   C     0.50647   0.50048   0.52582   0.00000  Uiso   1.00
C980   C     0.37081   0.66170   0.68712   0.00000  Uiso   1.00
C981   C     0.35243   0.62031   0.64559   0.00000  Uiso   1.00
C982   C     0.62887   0.33875   0.81352   0.00000  Uiso   1.00
C983   C     0.65160   0.37818   0.85543   0.00000  Uiso   1.00
C984   C     0.49537   0.43952   0.70787   0.00000  Uiso   1.00
C985   C     0.47205   0.53086   0.55596   0.00000  Uiso   1.00
C986   C     0.46695   0.43634   0.65707   0.00000  Uiso   1.00
C987   C     0.50493   0.55952   0.79365   0.00000  Uiso   1.00
C988   C     0.53099   0.55916   0.84514   0.00000  Uiso   1.00
C989   C     0.51637   0.44558   0.95020   0.00000  Uiso   1.00
C990   C     0.41917   0.54296   0.53941   0.00000  Uiso   1.00
C991   C     0.56820   0.43138   0.96733   0.00000  Uiso   1.00
C992   C     0.34843   0.65008   0.73640   0.00000  Uiso   1.00
C993   C     0.65150   0.34999   0.76420   0.00000  Uiso   1.00
C994   C     0.35442   0.50428   0.84091   0.00000  Uiso   1.00
H995   H     0.39390   0.56557   0.56362   0.00000  Uiso   1.00
H996   H     0.50104   0.42614   0.91548   0.00000  Uiso   1.00
H997   H     0.37697   0.58538   0.64857   0.00000  Uiso   1.00
H998   H     0.64033   0.60976   0.64604   0.00000  Uiso   1.00
H999   H     0.36040   0.63593   0.61021   0.00000  Uiso   1.00
H1000  H     0.35499   0.36471   0.67446   0.00000  Uiso   1.00
H1001  H     0.41720   0.66548   0.69072   0.00000  Uiso   1.00
H1002  H     0.36352   0.38789   0.85238   0.00000  Uiso   1.00
H1003  H     0.62779   0.41389   0.85563   0.00000  Uiso   1.00
H1004  H     0.64657   0.36130   0.89067   0.00000  Uiso   1.00
H1005  H     0.58249   0.33862   0.81078   0.00000  Uiso   1.00
H1006  H     0.59021   0.40341   0.94517   0.00000  Uiso   1.00
H1007  H     0.64090   0.63406   0.82511   0.00000  Uiso   1.00
H1008  H     0.42305   0.42227   0.65820   0.00000  Uiso   1.00
H1009  H     0.46935   0.47500   0.64247   0.00000  Uiso   1.00
H1010  H     0.48759   0.40806   0.63212   0.00000  Uiso   1.00
H1011  H     0.53936   0.43936   0.70187   0.00000  Uiso   1.00
H1012  H     0.48340   0.40418   0.72595   0.00000  Uiso   1.00
H1013  H     0.52905   0.51910   0.85706   0.00000  Uiso   1.00
H1014  H     0.57467   0.57501   0.84674   0.00000  Uiso   1.00
H1015  H     0.50824   0.58477   0.87094   0.00000  Uiso   1.00
H1016  H     0.51927   0.59561   0.77784   0.00000  Uiso   1.00
H1017  H     0.56629   0.53609   0.61065   0.00000  Uiso   1.00
H1018  H     0.46068   0.56097   0.79789   0.00000  Uiso   1.00
H1019  H     0.43988   0.46830   0.88550   0.00000  Uiso   1.00
H1020  H     0.36833   0.43697   0.59112   0.00000  Uiso   1.00
H1021  H     0.62469   0.54800   0.91266   0.00000  Uiso   1.00
H1022  H     0.65478   0.56580   0.99880   0.00000  Uiso   1.00
H1023  H     0.66603   0.40873   0.50781   0.00000  Uiso   1.00
H1024  H     0.48380   0.54520   0.59311   0.00000  Uiso   1.00
N1025  N     0.48029   0.48550   0.73739   0.00000  Uiso   1.00
N1026  N     0.51971   0.51450   0.76260   0.00000  Uiso   1.00
O1027  O     0.63052   0.57964   0.75309   0.00000  Uiso   1.00
O1028  O     0.36948   0.42036   0.74690   0.00000  Uiso   1.00
O1029  O     0.39155   0.57035   0.74501   0.00000  Uiso   1.00
O1030  O     0.60845   0.42965   0.75498   0.00000  Uiso   1.00
O1031  O     0.63662   0.50730   0.82247   0.00000  Uiso   1.00
O1032  O     0.36338   0.49270   0.67753   0.00000  Uiso   1.00
O1033  O     0.39764   0.49801   0.81439   0.00000  Uiso   1.00
O1034  O     0.60236   0.50199   0.68561   0.00000  Uiso   1.00
Zn1035 Zn    0.60366   0.50621   0.75539   0.00000  Uiso   1.00
Zn1036 Zn    0.39634   0.49379   0.74460   0.00000  Uiso   1.00
C1037  C     0.68050   0.59762   0.74756   0.00000  Uiso   1.00
C1038  C     0.97885   0.49518   0.65911   0.00000  Uiso   1.00
C1039  C     0.69841   0.50751   0.89365   0.00000  Uiso   1.00
C1040  C     0.96716   0.48694   0.60654   0.00000  Uiso   1.00
C1041  C     0.68098   0.54376   0.97467   0.00000  Uiso   1.00
C1042  C     0.97615   0.43583   0.53005   0.00000  Uiso   1.00
C1043  C     0.99694   0.53342   0.92566   0.00000  Uiso   1.00
C1044  C     0.99707   0.45259   0.57720   0.00000  Uiso   1.00
C1045  C     0.74782   0.48800   0.91148   0.00000  Uiso   1.00
C1046  C     0.91860   0.50688   0.58766   0.00000  Uiso   1.00
C1047  C     0.76622   0.49764   0.96050   0.00000  Uiso   1.00
C1048  C     0.98621   0.40246   0.75292   0.00000  Uiso   1.00
C1049  C     0.89405   0.48726   0.54215   0.00000  Uiso   1.00
C1050  C     0.73294   0.52779   0.99180   0.00000  Uiso   1.00
C1051  C     0.92420   0.45180   0.51283   0.00000  Uiso   1.00
C1052  C     0.81845   0.48111   0.97827   0.00000  Uiso   1.00
C1053  C     0.83981   0.50048   0.52582   0.00000  Uiso   1.00
C1054  C     0.70414   0.66170   0.68712   0.00000  Uiso   1.00
C1055  C     0.68576   0.62031   0.64559   0.00000  Uiso   1.00
C1056  C     0.96221   0.33875   0.81352   0.00000  Uiso   1.00
C1057  C     0.98493   0.37818   0.85543   0.00000  Uiso   1.00
C1058  C     0.82870   0.43952   0.70787   0.00000  Uiso   1.00
C1059  C     0.80538   0.53086   0.55596   0.00000  Uiso   1.00
C1060  C     0.80028   0.43634   0.65707   0.00000  Uiso   1.00
C1061  C     0.83826   0.55952   0.79365   0.00000  Uiso   1.00
C1062  C     0.86432   0.55916   0.84514   0.00000  Uiso   1.00
C1063  C     0.84970   0.44558   0.95020   0.00000  Uiso   1.00
C1064  C     0.75250   0.54296   0.53941   0.00000  Uiso   1.00
C1065  C     0.90153   0.43138   0.96733   0.00000  Uiso   1.00
C1066  C     0.68177   0.65008   0.73640   0.00000  Uiso   1.00
C1067  C     0.98483   0.34999   0.76420   0.00000  Uiso   1.00
C1068  C     0.68775   0.50428   0.84091   0.00000  Uiso   1.00
H1069  H     0.72724   0.56557   0.56362   0.00000  Uiso   1.00
H1070  H     0.83437   0.42614   0.91548   0.00000  Uiso   1.00
H1071  H     0.71030   0.58538   0.64857   0.00000  Uiso   1.00
H1072  H     0.97367   0.60976   0.64604   0.00000  Uiso   1.00
H1073  H     0.69373   0.63593   0.61021   0.00000  Uiso   1.00
H1074  H     0.68833   0.36471   0.67446   0.00000  Uiso   1.00
H1075  H     0.75053   0.66548   0.69072   0.00000  Uiso   1.00
H1076  H     0.69686   0.38789   0.85238   0.00000  Uiso   1.00
H1077  H     0.96112   0.41389   0.85563   0.00000  Uiso   1.00
H1078  H     0.97990   0.36130   0.89067   0.00000  Uiso   1.00
H1079  H     0.91582   0.33862   0.81078   0.00000  Uiso   1.00
H1080  H     0.92355   0.40341   0.94517   0.00000  Uiso   1.00
H1081  H     0.97423   0.63406   0.82511   0.00000  Uiso   1.00
H1082  H     0.75638   0.42227   0.65820   0.00000  Uiso   1.00
H1083  H     0.80268   0.47500   0.64247   0.00000  Uiso   1.00
H1084  H     0.82092   0.40806   0.63212   0.00000  Uiso   1.00
H1085  H     0.87269   0.43936   0.70187   0.00000  Uiso   1.00
H1086  H     0.81674   0.40418   0.72595   0.00000  Uiso   1.00
H1087  H     0.86238   0.51910   0.85706   0.00000  Uiso   1.00
H1088  H     0.90801   0.57501   0.84674   0.00000  Uiso   1.00
H1089  H     0.84158   0.58477   0.87094   0.00000  Uiso   1.00
H1090  H     0.85260   0.59561   0.77784   0.00000  Uiso   1.00
H1091  H     0.89962   0.53609   0.61065   0.00000  Uiso   1.00
H1092  H     0.79401   0.56097   0.79789   0.00000  Uiso   1.00
H1093  H     0.77321   0.46830   0.88550   0.00000  Uiso   1.00
H1094  H     0.70166   0.43697   0.59112   0.00000  Uiso   1.00
H1095  H     0.95802   0.54800   0.91266   0.00000  Uiso   1.00
H1096  H     0.98811   0.56580   0.99880   0.00000  Uiso   1.00
H1097  H     0.99937   0.40873   0.50781   0.00000  Uiso   1.00
H1098  H     0.81714   0.54520   0.59311   0.00000  Uiso   1.00
N1099  N     0.81362   0.48550   0.73739   0.00000  Uiso   1.00
N1100  N     0.85305   0.51450   0.76260   0.00000  Uiso   1.00
O1101  O     0.96386   0.57964   0.75309   0.00000  Uiso   1.00
O1102  O     0.70281   0.42036   0.74690   0.00000  Uiso   1.00
O1103  O     0.72488   0.57035   0.74501   0.00000  Uiso   1.00
O1104  O     0.94178   0.42965   0.75498   0.00000  Uiso   1.00
O1105  O     0.96995   0.50730   0.82247   0.00000  Uiso   1.00
O1106  O     0.69672   0.49270   0.67753   0.00000  Uiso   1.00
O1107  O     0.73098   0.49801   0.81439   0.00000  Uiso   1.00
O1108  O     0.93569   0.50199   0.68561   0.00000  Uiso   1.00
Zn1109 Zn    0.93700   0.50621   0.75539   0.00000  Uiso   1.00
Zn1110 Zn    0.72967   0.49379   0.74460   0.00000  Uiso   1.00
C1111  C     0.01384   0.93095   0.74756   0.00000  Uiso   1.00
C1112  C     0.31218   0.82851   0.65911   0.00000  Uiso   1.00
C1113  C     0.03175   0.84084   0.89365   0.00000  Uiso   1.00
C1114  C     0.30049   0.82028   0.60654   0.00000  Uiso   1.00
C1115  C     0.01431   0.87710   0.97467   0.00000  Uiso   1.00
C1116  C     0.30948   0.76916   0.53005   0.00000  Uiso   1.00
C1117  C     0.33028   0.86676   0.92566   0.00000  Uiso   1.00
C1118  C     0.33040   0.78593   0.57720   0.00000  Uiso   1.00
C1119  C     0.08115   0.82133   0.91148   0.00000  Uiso   1.00
C1120  C     0.25193   0.84021   0.58766   0.00000  Uiso   1.00
C1121  C     0.09955   0.83097   0.96050   0.00000  Uiso   1.00
C1122  C     0.31955   0.73579   0.75292   0.00000  Uiso   1.00
C1123  C     0.22739   0.82059   0.54215   0.00000  Uiso   1.00
C1124  C     0.06627   0.86112   0.99180   0.00000  Uiso   1.00
C1125  C     0.25754   0.78513   0.51283   0.00000  Uiso   1.00
C1126  C     0.15178   0.81444   0.97827   0.00000  Uiso   1.00
C1127  C     0.17314   0.83381   0.52582   0.00000  Uiso   1.00
C1128  C     0.03747   0.99503   0.68712   0.00000  Uiso   1.00
C1129  C     0.01910   0.95364   0.64559   0.00000  Uiso   1.00
C1130  C     0.29554   0.67208   0.81352   0.00000  Uiso   1.00
C1131  C     0.31826   0.71151   0.85543   0.00000  Uiso   1.00
C1132  C     0.16204   0.77285   0.70787   0.00000  Uiso   1.00
C1133  C     0.13871   0.86420   0.55596   0.00000  Uiso   1.00
C1134  C     0.13362   0.76968   0.65707   0.00000  Uiso   1.00
C1135  C     0.17160   0.89285   0.79365   0.00000  Uiso   1.00
C1136  C     0.19766   0.89249   0.84514   0.00000  Uiso   1.00
C1137  C     0.18303   0.77891   0.95020   0.00000  Uiso   1.00
C1138  C     0.08583   0.87630   0.53941   0.00000  Uiso   1.00
C1139  C     0.23487   0.76471   0.96733   0.00000  Uiso   1.00
C1140  C     0.01510   0.98342   0.73640   0.00000  Uiso   1.00
C1141  C     0.31816   0.68332   0.76420   0.00000  Uiso   1.00
C1142  C     0.02109   0.83762   0.84091   0.00000  Uiso   1.00
H1143  H     0.06057   0.89891   0.56362   0.00000  Uiso   1.00
H1144  H     0.16770   0.75947   0.91548   0.00000  Uiso   1.00
H1145  H     0.04363   0.91872   0.64857   0.00000  Uiso   1.00
H1146  H     0.30700   0.94310   0.64604   0.00000  Uiso   1.00
H1147  H     0.02706   0.96926   0.61021   0.00000  Uiso   1.00
H1148  H     0.02166   0.69804   0.67446   0.00000  Uiso   1.00
H1149  H     0.08386   0.99881   0.69072   0.00000  Uiso   1.00
H1150  H     0.03019   0.72123   0.85238   0.00000  Uiso   1.00
H1151  H     0.29446   0.74723   0.85563   0.00000  Uiso   1.00
H1152  H     0.31323   0.69464   0.89067   0.00000  Uiso   1.00
H1153  H     0.24916   0.67195   0.81078   0.00000  Uiso   1.00
H1154  H     0.25688   0.73674   0.94517   0.00000  Uiso   1.00
H1155  H     0.30757   0.96740   0.82511   0.00000  Uiso   1.00
H1156  H     0.08972   0.75561   0.65820   0.00000  Uiso   1.00
H1157  H     0.13601   0.80833   0.64247   0.00000  Uiso   1.00
H1158  H     0.15426   0.74139   0.63212   0.00000  Uiso   1.00
H1159  H     0.20603   0.77270   0.70187   0.00000  Uiso   1.00
H1160  H     0.15007   0.73751   0.72595   0.00000  Uiso   1.00
H1161  H     0.19572   0.85244   0.85706   0.00000  Uiso   1.00
H1162  H     0.24134   0.90834   0.84674   0.00000  Uiso   1.00
H1163  H     0.17491   0.91810   0.87094   0.00000  Uiso   1.00
H1164  H     0.18594   0.92895   0.77784   0.00000  Uiso   1.00
H1165  H     0.23296   0.86942   0.61065   0.00000  Uiso   1.00
H1166  H     0.12734   0.89431   0.79789   0.00000  Uiso   1.00
H1167  H     0.10654   0.80163   0.88550   0.00000  Uiso   1.00
H1168  H     0.03500   0.77030   0.59112   0.00000  Uiso   1.00
H1169  H     0.29135   0.88133   0.91266   0.00000  Uiso   1.00
H1170  H     0.32145   0.89914   0.99880   0.00000  Uiso   1.00
H1171  H     0.33270   0.74206   0.50781   0.00000  Uiso   1.00
H1172  H     0.15047   0.87853   0.59311   0.00000  Uiso   1.00
N1173  N     0.14695   0.81883   0.73739   0.00000  Uiso   1.00
N1174  N     0.18638   0.84784   0.76260   0.00000  Uiso   1.00
O1175  O     0.29719   0.91298   0.75309   0.00000  Uiso   1.00
O1176  O     0.03614   0.75369   0.74690   0.00000  Uiso   1.00
O1177  O     0.05822   0.90368   0.74501   0.00000  Uiso   1.00
O1178  O     0.27512   0.76298   0.75498   0.00000  Uiso   1.00
O1179  O     0.30328   0.84063   0.82247   0.00000  Uiso   1.00
O1180  O     0.03005   0.82603   0.67753   0.00000  Uiso   1.00
O1181  O     0.06431   0.83134   0.81439   0.00000  Uiso   1.00
O1182  O     0.26902   0.83533   0.68561   0.00000  Uiso   1.00
Zn1183 Zn    0.27033   0.83954   0.75539   0.00000  Uiso   1.00
Zn1184 Zn    0.06300   0.82713   0.74460   0.00000  Uiso   1.00
C1185  C     0.34717   0.93095   0.74756   0.00000  Uiso   1.00
C1186  C     0.64551   0.82851   0.65911   0.00000  Uiso   1.00
C1187  C     0.36508   0.84084   0.89365   0.00000  Uiso   1.00
C1188  C     0.63382   0.82028   0.60654   0.00000  Uiso   1.00
C1189  C     0.34765   0.87710   0.97467   0.00000  Uiso   1.00
C1190  C     0.64281   0.76916   0.53005   0.00000  Uiso   1.00
C1191  C     0.66361   0.86676   0.92566   0.00000  Uiso   1.00
C1192  C     0.66373   0.78593   0.57720   0.00000  Uiso   1.00
C1193  C     0.41449   0.82133   0.91148   0.00000  Uiso   1.00
C1194  C     0.58527   0.84021   0.58766   0.00000  Uiso   1.00
C1195  C     0.43288   0.83097   0.96050   0.00000  Uiso   1.00
C1196  C     0.65288   0.73579   0.75292   0.00000  Uiso   1.00
C1197  C     0.56072   0.82059   0.54215   0.00000  Uiso   1.00
C1198  C     0.39961   0.86112   0.99180   0.00000  Uiso   1.00
C1199  C     0.59087   0.78513   0.51283   0.00000  Uiso   1.00
C1200  C     0.48512   0.81444   0.97827   0.00000  Uiso   1.00
C1201  C     0.50647   0.83381   0.52582   0.00000  Uiso   1.00
C1202  C     0.37081   0.99503   0.68712   0.00000  Uiso   1.00
C1203  C     0.35243   0.95364   0.64559   0.00000  Uiso   1.00
C1204  C     0.62887   0.67208   0.81352   0.00000  Uiso   1.00
C1205  C     0.65160   0.71151   0.85543   0.00000  Uiso   1.00
C1206  C     0.49537   0.77285   0.70787   0.00000  Uiso   1.00
C1207  C     0.47205   0.86420   0.55596   0.00000  Uiso   1.00
C1208  C     0.46695   0.76968   0.65707   0.00000  Uiso   1.00
C1209  C     0.50493   0.89285   0.79365   0.00000  Uiso   1.00
C1210  C     0.53099   0.89249   0.84514   0.00000  Uiso   1.00
C1211  C     0.51637   0.77891   0.95020   0.00000  Uiso   1.00
C1212  C     0.41917   0.87630   0.53941   0.00000  Uiso   1.00
C1213  C     0.56820   0.76471   0.96733   0.00000  Uiso   1.00
C1214  C     0.34843   0.98342   0.73640   0.00000  Uiso   1.00
C1215  C     0.65150   0.68332   0.76420   0.00000  Uiso   1.00
C1216  C     0.35442   0.83762   0.84091   0.00000  Uiso   1.00
H1217  H     0.39390   0.89891   0.56362   0.00000  Uiso   1.00
H1218  H     0.50104   0.75947   0.91548   0.00000  Uiso   1.00
H1219  H     0.37697   0.91872   0.64857   0.00000  Uiso   1.00
H1220  H     0.64033   0.94310   0.64604   0.00000  Uiso   1.00
H1221  H     0.36040   0.96926   0.61021   0.00000  Uiso   1.00
H1222  H     0.35499   0.69804   0.67446   0.00000  Uiso   1.00
H1223  H     0.41720   0.99881   0.69072   0.00000  Uiso   1.00
H1224  H     0.36352   0.72123   0.85238   0.00000  Uiso   1.00
H1225  H     0.62779   0.74723   0.85563   0.00000  Uiso   1.00
H1226  H     0.64657   0.69464   0.89067   0.00000  Uiso   1.00
H1227  H     0.58249   0.67195   0.81078   0.00000  Uiso   1.00
H1228  H     0.59021   0.73674   0.94517   0.00000  Uiso   1.00
H1229  H     0.64090   0.96740   0.82511   0.00000  Uiso   1.00
H1230  H     0.42305   0.75561   0.65820   0.00000  Uiso   1.00
H1231  H     0.46935   0.80833   0.64247   0.00000  Uiso   1.00
H1232  H     0.48759   0.74139   0.63212   0.00000  Uiso   1.00
H1233  H     0.53936   0.77270   0.70187   0.00000  Uiso   1.00
H1234  H     0.48340   0.73751   0.72595   0.00000  Uiso   1.00
H1235  H     0.52905   0.85244   0.85706   0.00000  Uiso   1.00
H1236  H     0.57467   0.90834   0.84674   0.00000  Uiso   1.00
H1237  H     0.50824   0.91810   0.87094   0.00000  Uiso   1.00
H1238  H     0.51927   0.92895   0.77784   0.00000  Uiso   1.00
H1239  H     0.56629   0.86942   0.61065   0.00000  Uiso   1.00
H1240  H     0.46068   0.89431   0.79789   0.00000  Uiso   1.00
H1241  H     0.43988   0.80163   0.88550   0.00000  Uiso   1.00
H1242  H     0.36833   0.77030   0.59112   0.00000  Uiso   1.00
H1243  H     0.62469   0.88133   0.91266   0.00000  Uiso   1.00
H1244  H     0.65478   0.89914   0.99880   0.00000  Uiso   1.00
H1245  H     0.66603   0.74206   0.50781   0.00000  Uiso   1.00
H1246  H     0.48380   0.87853   0.59311   0.00000  Uiso   1.00
N1247  N     0.48029   0.81883   0.73739   0.00000  Uiso   1.00
N1248  N     0.51971   0.84784   0.76260   0.00000  Uiso   1.00
O1249  O     0.63052   0.91298   0.75309   0.00000  Uiso   1.00
O1250  O     0.36948   0.75369   0.74690   0.00000  Uiso   1.00
O1251  O     0.39155   0.90368   0.74501   0.00000  Uiso   1.00
O1252  O     0.60845   0.76298   0.75498   0.00000  Uiso   1.00
O1253  O     0.63662   0.84063   0.82247   0.00000  Uiso   1.00
O1254  O     0.36338   0.82603   0.67753   0.00000  Uiso   1.00
O1255  O     0.39764   0.83134   0.81439   0.00000  Uiso   1.00
O1256  O     0.60236   0.83533   0.68561   0.00000  Uiso   1.00
Zn1257 Zn    0.60366   0.83954   0.75539   0.00000  Uiso   1.00
Zn1258 Zn    0.39634   0.82713   0.74460   0.00000  Uiso   1.00
C1259  C     0.68050   0.93095   0.74756   0.00000  Uiso   1.00
C1260  C     0.97885   0.82851   0.65911   0.00000  Uiso   1.00
C1261  C     0.69841   0.84084   0.89365   0.00000  Uiso   1.00
C1262  C     0.96716   0.82028   0.60654   0.00000  Uiso   1.00
C1263  C     0.68098   0.87710   0.97467   0.00000  Uiso   1.00
C1264  C     0.97615   0.76916   0.53005   0.00000  Uiso   1.00
C1265  C     0.99694   0.86676   0.92566   0.00000  Uiso   1.00
C1266  C     0.99707   0.78593   0.57720   0.00000  Uiso   1.00
C1267  C     0.74782   0.82133   0.91148   0.00000  Uiso   1.00
C1268  C     0.91860   0.84021   0.58766   0.00000  Uiso   1.00
C1269  C     0.76622   0.83097   0.96050   0.00000  Uiso   1.00
C1270  C     0.98621   0.73579   0.75292   0.00000  Uiso   1.00
C1271  C     0.89405   0.82059   0.54215   0.00000  Uiso   1.00
C1272  C     0.73294   0.86112   0.99180   0.00000  Uiso   1.00
C1273  C     0.92420   0.78513   0.51283   0.00000  Uiso   1.00
C1274  C     0.81845   0.81444   0.97827   0.00000  Uiso   1.00
C1275  C     0.83981   0.83381   0.52582   0.00000  Uiso   1.00
C1276  C     0.70414   0.99503   0.68712   0.00000  Uiso   1.00
C1277  C     0.68576   0.95364   0.64559   0.00000  Uiso   1.00
C1278  C     0.96221   0.67208   0.81352   0.00000  Uiso   1.00
C1279  C     0.98493   0.71151   0.85543   0.00000  Uiso   1.00
C1280  C     0.82870   0.77285   0.70787   0.00000  Uiso   1.00
C1281  C     0.80538   0.86420   0.55596   0.00000  Uiso   1.00
C1282  C     0.80028   0.76968   0.65707   0.00000  Uiso   1.00
C1283  C     0.83826   0.89285   0.79365   0.00000  Uiso   1.00
C1284  C     0.86432   0.89249   0.84514   0.00000  Uiso   1.00
C1285  C     0.84970   0.77891   0.95020   0.00000  Uiso   1.00
C1286  C     0.75250   0.87630   0.53941   0.00000  Uiso   1.00
C1287  C     0.90153   0.76471   0.96733   0.00000  Uiso   1.00
C1288  C     0.68177   0.98342   0.73640   0.00000  Uiso   1.00
C1289  C     0.98483   0.68332   0.76420   0.00000  Uiso   1.00
C1290  C     0.68775   0.83762   0.84091   0.00000  Uiso   1.00
H1291  H     0.72724   0.89891   0.56362   0.00000  Uiso   1.00
H1292  H     0.83437   0.75947   0.91548   0.00000  Uiso   1.00
H1293  H     0.71030   0.91872   0.64857   0.00000  Uiso   1.00
H1294  H     0.97367   0.94310   0.64604   0.00000  Uiso   1.00
H1295  H     0.69373   0.96926   0.61021   0.00000  Uiso   1.00
H1296  H     0.68833   0.69804   0.67446   0.00000  Uiso   1.00
H1297  H     0.75053   0.99881   0.69072   0.00000  Uiso   1.00
H1298  H     0.69686   0.72123   0.85238   0.00000  Uiso   1.00
H1299  H     0.96112   0.74723   0.85563   0.00000  Uiso   1.00
H1300  H     0.97990   0.69464   0.89067   0.00000  Uiso   1.00
H1301  H     0.91582   0.67195   0.81078   0.00000  Uiso   1.00
H1302  H     0.92355   0.73674   0.94517   0.00000  Uiso   1.00
H1303  H     0.97423   0.96740   0.82511   0.00000  Uiso   1.00
H1304  H     0.75638   0.75561   0.65820   0.00000  Uiso   1.00
H1305  H     0.80268   0.80833   0.64247   0.00000  Uiso   1.00
H1306  H     0.82092   0.74139   0.63212   0.00000  Uiso   1.00
H1307  H     0.87269   0.77270   0.70187   0.00000  Uiso   1.00
H1308  H     0.81674   0.73751   0.72595   0.00000  Uiso   1.00
H1309  H     0.86238   0.85244   0.85706   0.00000  Uiso   1.00
H1310  H     0.90801   0.90834   0.84674   0.00000  Uiso   1.00
H1311  H     0.84158   0.91810   0.87094   0.00000  Uiso   1.00
H1312  H     0.85260   0.92895   0.77784   0.00000  Uiso   1.00
H1313  H     0.89962   0.86942   0.61065   0.00000  Uiso   1.00
H1314  H     0.79401   0.89431   0.79789   0.00000  Uiso   1.00
H1315  H     0.77321   0.80163   0.88550   0.00000  Uiso   1.00
H1316  H     0.70166   0.77030   0.59112   0.00000  Uiso   1.00
H1317  H     0.95802   0.88133   0.91266   0.00000  Uiso   1.00
H1318  H     0.98811   0.89914   0.99880   0.00000  Uiso   1.00
H1319  H     0.99937   0.74206   0.50781   0.00000  Uiso   1.00
H1320  H     0.81714   0.87853   0.59311   0.00000  Uiso   1.00
N1321  N     0.81362   0.81883   0.73739   0.00000  Uiso   1.00
N1322  N     0.85305   0.84784   0.76260   0.00000  Uiso   1.00
O1323  O     0.96386   0.91298   0.75309   0.00000  Uiso   1.00
O1324  O     0.70281   0.75369   0.74690   0.00000  Uiso   1.00
O1325  O     0.72488   0.90368   0.74501   0.00000  Uiso   1.00
O1326  O     0.94178   0.76298   0.75498   0.00000  Uiso   1.00
O1327  O     0.96995   0.84063   0.82247   0.00000  Uiso   1.00
O1328  O     0.69672   0.82603   0.67753   0.00000  Uiso   1.00
O1329  O     0.73098   0.83134   0.81439   0.00000  Uiso   1.00
O1330  O     0.93569   0.83533   0.68561   0.00000  Uiso   1.00
Zn1331 Zn    0.93700   0.83954   0.75539   0.00000  Uiso   1.00
Zn1332 Zn    0.72967   0.82713   0.74460   0.00000  Uiso   1.00
loop_
_geom_bond_atom_site_label_1
_geom_bond_atom_site_label_2
_geom_bond_distance
_geom_bond_site_symmetry_2
_ccdc_geom_bond_type
C1     C30     1.413   .     S
C1     O67     1.307   .     A
C1     O213    1.285   1_455 S
C2     C4      1.456   .     S
C2     O72     1.309   .     A
C2     O144    1.310   .     S
C3     C9      1.393   .     A
C3     C32     1.457   .     S
C3     C155    1.398   1_455 S
C4     C10     1.390   .     A
C4     C8      1.398   .     A
C5     C14     1.403   .     A
C5     C155    1.391   1_455 S
C5     H208    1.084   1_455 S
C6     H61     1.084   .     S
C6     C15     1.403   .     A
C6     C8      1.391   .     A
C7     H59     1.079   .     S
C7     C77     1.398   .     S
C7     C79     1.391   .     S
C8     H132    1.079   .     S
C9     C11     1.395   .     A
C9     H57     1.075   .     S
C10    H55     1.076   .     S
C10    C13     1.398   .     A
C11    C16     1.419   .     A
C11    C14     1.416   .     A
C12    O68     1.306   .     A
C12    C31     1.415   .     S
C12    O140    1.286   .     S
C13    C17     1.421   .     A
C13    C15     1.418   .     A
C14    C694    1.385   .     S
C15    C695    1.387   1_554 S
C16    C27     1.417   .     A
C16    C683    1.419   .     S
C17    C23     1.418   .     A
C17    C682    1.419   1_554 S
C18    C30     1.537   .     S
C18    C19     1.524   .     S
C18    H39     1.110   .     S
C18    H260    1.106   .     S
C19    H35     1.107   .     S
C19    H37     1.111   .     S
C19    H184    1.111   1_455 S
C20    H43     1.111   .     S
C20    C21     1.527   .     S
C20    C31     1.537   .     S
C20    H489    1.105   1_545 S
C21    H41     1.108   .     S
C21    H42     1.110   .     S
C21    H114    1.111   .     S
C22    H50     1.110   .     S
C22    H49     1.077   .     S
C22    C24     1.517   .     S
C22    N63     1.450   .     S
C23    C28     1.384   .     A
C23    H62     1.075   .     S
C24    H46     1.099   .     S
C24    H47     1.108   .     S
C24    H48     1.111   .     S
C25    N64     1.450   .     S
C25    H56     1.076   .     S
C25    H54     1.110   .     S
C25    C26     1.521   .     S
C26    H52     1.102   .     S
C26    H51     1.111   .     S
C26    H53     1.111   .     S
C27    C29     1.384   .     A
C27    H34     1.077   .     S
C28    H33     1.079   .     S
C28    C680    1.385   1_554 S
C29    H44     1.081   .     S
C29    C681    1.387   .     S
C30    C401    1.362   1_455 S
C31    C548    1.362   1_545 S
C32    O71     1.309   .     A
C32    O217    1.310   1_455 S
H36    C93     1.111   .     S
H38    C462    1.106   1_545 S
H40    C169    1.111   1_455 S
H45    C242    1.105   .     S
H58    C156    1.079   1_455 S
H60    C79     1.084   .     S
N63    Zn74    2.054   .     S
N63    N64     1.304   .     D
N64    Zn73    2.054   .     S
O65    Zn73    1.977   .     S
O65    C75     1.285   .     S
O66    Zn74    1.977   .     S
O66    C160    1.286   1_455 S
O67    Zn74    1.983   .     S
O68    Zn73    1.983   .     S
O69    Zn73    1.968   .     S
O69    C106    1.310   .     S
O70    Zn74    1.968   .     S
O70    C150    1.310   1_455 S
O71    Zn74    1.916   .     S
O72    Zn73    1.916   .     S
C75    C104    1.413   .     S
C75    O141    1.307   .     A
C76    C78     1.456   .     S
C76    O146    1.309   .     A
C76    O218    1.310   .     S
C77    C83     1.393   .     A
C77    C106    1.457   .     S
C78    C84     1.390   .     A
C78    C82     1.398   .     A
C79    C88     1.403   .     A
C80    H135    1.084   .     S
C80    C89     1.403   .     A
C80    C82     1.391   .     A
C81    H133    1.079   .     S
C81    C151    1.398   .     S
C81    C153    1.391   .     S
C82    H206    1.079   .     S
C83    C85     1.395   .     A
C83    H131    1.075   .     S
C84    H129    1.076   .     S
C84    C87     1.398   .     A
C85    C90     1.419   .     A
C85    C88     1.416   .     A
C86    O142    1.306   .     A
C86    C105    1.415   .     S
C86    O214    1.286   .     S
C87    C91     1.421   .     A
C87    C89     1.418   .     A
C88    C768    1.385   .     S
C89    C769    1.387   1_554 S
C90    C101    1.417   .     A
C90    C757    1.419   .     S
C91    C97     1.418   .     A
C91    C756    1.419   1_554 S
C92    C104    1.537   .     S
C92    C93     1.524   .     S
C92    H113    1.110   .     S
C92    H334    1.106   .     S
C93    H109    1.107   .     S
C93    H111    1.111   .     S
C94    H117    1.111   .     S
C94    C95     1.527   .     S
C94    C105    1.537   .     S
C94    H563    1.105   1_545 S
C95    H115    1.108   .     S
C95    H116    1.110   .     S
C95    H188    1.111   .     S
C96    H124    1.110   .     S
C96    H123    1.077   .     S
C96    C98     1.517   .     S
C96    N137    1.450   .     S
C97    C102    1.384   .     A
C97    H136    1.075   .     S
C98    H120    1.099   .     S
C98    H121    1.108   .     S
C98    H122    1.111   .     S
C99    N138    1.450   .     S
C99    H130    1.076   .     S
C99    H128    1.110   .     S
C99    C100    1.521   .     S
C100   H126    1.102   .     S
C100   H125    1.111   .     S
C100   H127    1.111   .     S
C101   C103    1.384   .     A
C101   H108    1.077   .     S
C102   H107    1.079   .     S
C102   C754    1.385   1_554 S
C103   H118    1.081   .     S
C103   C755    1.387   .     S
C104   C253    1.362   .     S
C105   C622    1.362   1_545 S
C106   O145    1.309   .     A
H110   C167    1.111   .     S
H112   C536    1.106   1_545 S
H119   C316    1.105   .     S
H134   C153    1.084   .     S
N137   Zn148   2.054   .     S
N137   N138    1.304   .     D
N138   Zn147   2.054   .     S
O139   Zn147   1.977   .     S
O139   C149    1.285   .     S
O140   Zn148   1.977   .     S
O141   Zn148   1.983   .     S
O142   Zn147   1.983   .     S
O143   Zn147   1.968   .     S
O143   C180    1.310   .     S
O144   Zn148   1.968   .     S
O145   Zn148   1.916   .     S
O146   Zn147   1.916   .     S
C149   C178    1.413   .     S
C149   O215    1.307   .     A
C150   C152    1.456   .     S
C150   O220    1.309   .     A
C150   O70     1.310   1_655 S
C151   C157    1.393   .     A
C151   C180    1.457   .     S
C152   C158    1.390   .     A
C152   C156    1.398   .     A
C153   C162    1.403   .     A
C154   H209    1.084   .     S
C154   C163    1.403   .     A
C154   C156    1.391   .     A
C155   H207    1.079   .     S
C155   C3      1.398   1_655 S
C155   C5      1.391   1_655 S
C156   H58     1.079   1_655 S
C157   C159    1.395   .     A
C157   H205    1.075   .     S
C158   H203    1.076   .     S
C158   C161    1.398   .     A
C159   C164    1.419   .     A
C159   C162    1.416   .     A
C160   O216    1.306   .     A
C160   C179    1.415   .     S
C160   O66     1.286   1_655 S
C161   C165    1.421   .     A
C161   C163    1.418   .     A
C162   C842    1.385   .     S
C163   C843    1.387   1_554 S
C164   C175    1.417   .     A
C164   C831    1.419   .     S
C165   C171    1.418   .     A
C165   C830    1.419   1_554 S
C166   C178    1.537   .     S
C166   C167    1.524   .     S
C166   H187    1.110   .     S
C166   H408    1.106   .     S
C167   H183    1.107   .     S
C167   H185    1.111   .     S
C168   H191    1.111   .     S
C168   C169    1.527   .     S
C168   C179    1.537   .     S
C168   H637    1.105   1_545 S
C169   H189    1.108   .     S
C169   H190    1.110   .     S
C169   H40     1.111   1_655 S
C170   H198    1.110   .     S
C170   H197    1.077   .     S
C170   C172    1.517   .     S
C170   N211    1.450   .     S
C171   C176    1.384   .     A
C171   H210    1.075   .     S
C172   H194    1.099   .     S
C172   H195    1.108   .     S
C172   H196    1.111   .     S
C173   N212    1.450   .     S
C173   H204    1.076   .     S
C173   H202    1.110   .     S
C173   C174    1.521   .     S
C174   H200    1.102   .     S
C174   H199    1.111   .     S
C174   H201    1.111   .     S
C175   C177    1.384   .     A
C175   H182    1.077   .     S
C176   H181    1.079   .     S
C176   C828    1.385   1_554 S
C177   H192    1.081   .     S
C177   C829    1.387   .     S
C178   C327    1.362   .     S
C179   C474    1.362   1_645 S
C180   O219    1.309   .     A
H184   C19     1.111   1_655 S
H186   C610    1.106   1_545 S
H193   C390    1.105   .     S
H208   C5      1.084   1_655 S
N211   Zn222   2.054   .     S
N211   N212    1.304   .     D
N212   Zn221   2.054   .     S
O213   Zn221   1.977   .     S
O213   C1      1.285   1_655 S
O214   Zn222   1.977   .     S
O215   Zn222   1.983   .     S
O216   Zn221   1.983   .     S
O217   Zn221   1.968   .     S
O217   C32     1.310   1_655 S
O218   Zn222   1.968   .     S
O219   Zn222   1.916   .     S
O220   Zn221   1.916   .     S
C223   C252    1.413   .     S
C223   O289    1.307   .     A
C223   O435    1.285   1_455 S
C224   C226    1.456   .     S
C224   O294    1.309   .     A
C224   O366    1.310   .     S
C225   C231    1.393   .     A
C225   C254    1.457   .     S
C225   C377    1.398   1_455 S
C226   C232    1.390   .     A
C226   C230    1.398   .     A
C227   C236    1.403   .     A
C227   C377    1.391   1_455 S
C227   H430    1.084   1_455 S
C228   H283    1.084   .     S
C228   C237    1.403   .     A
C228   C230    1.391   .     A
C229   H281    1.079   .     S
C229   C299    1.398   .     S
C229   C301    1.391   .     S
C230   H354    1.079   .     S
C231   C233    1.395   .     A
C231   H279    1.075   .     S
C232   H277    1.076   .     S
C232   C235    1.398   .     A
C233   C238    1.419   .     A
C233   C236    1.416   .     A
C234   O290    1.306   .     A
C234   C253    1.415   .     S
C234   O362    1.286   .     S
C235   C239    1.421   .     A
C235   C237    1.418   .     A
C236   C916    1.385   .     S
C237   C917    1.387   1_554 S
C238   C249    1.417   .     A
C238   C905    1.419   .     S
C239   C245    1.418   .     A
C239   C904    1.419   1_554 S
C240   C252    1.537   .     S
C240   C241    1.524   .     S
C240   H261    1.110   .     S
C240   H482    1.106   .     S
C241   H257    1.107   .     S
C241   H259    1.111   .     S
C241   H406    1.111   1_455 S
C242   H265    1.111   .     S
C242   C243    1.527   .     S
C242   C253    1.537   .     S
C243   H263    1.108   .     S
C243   H264    1.110   .     S
C243   H336    1.111   .     S
C244   H272    1.110   .     S
C244   H271    1.077   .     S
C244   C246    1.517   .     S
C244   N285    1.450   .     S
C245   C250    1.384   .     A
C245   H284    1.075   .     S
C246   H268    1.099   .     S
C246   H269    1.108   .     S
C246   H270    1.111   .     S
C247   N286    1.450   .     S
C247   H278    1.076   .     S
C247   H276    1.110   .     S
C247   C248    1.521   .     S
C248   H274    1.102   .     S
C248   H273    1.111   .     S
C248   H275    1.111   .     S
C249   C251    1.384   .     A
C249   H256    1.077   .     S
C250   H255    1.079   .     S
C250   C902    1.385   1_554 S
C251   H266    1.081   .     S
C251   C903    1.387   .     S
C252   C623    1.362   1_455 S
C254   O293    1.309   .     A
C254   O439    1.310   1_455 S
H258   C315    1.111   .     S
H262   C391    1.111   1_455 S
H267   C464    1.105   .     S
H280   C378    1.079   1_455 S
H282   C301    1.084   .     S
N285   Zn296   2.054   .     S
N285   N286    1.304   .     D
N286   Zn295   2.054   .     S
O287   Zn295   1.977   .     S
O287   C297    1.285   .     S
O288   Zn296   1.977   .     S
O288   C382    1.286   1_455 S
O289   Zn296   1.983   .     S
O290   Zn295   1.983   .     S
O291   Zn295   1.968   .     S
O291   C328    1.310   .     S
O292   Zn296   1.968   .     S
O292   C372    1.310   1_455 S
O293   Zn296   1.916   .     S
O294   Zn295   1.916   .     S
C297   C326    1.413   .     S
C297   O363    1.307   .     A
C298   C300    1.456   .     S
C298   O368    1.309   .     A
C298   O440    1.310   .     S
C299   C305    1.393   .     A
C299   C328    1.457   .     S
C300   C306    1.390   .     A
C300   C304    1.398   .     A
C301   C310    1.403   .     A
C302   H357    1.084   .     S
C302   C311    1.403   .     A
C302   C304    1.391   .     A
C303   H355    1.079   .     S
C303   C373    1.398   .     S
C303   C375    1.391   .     S
C304   H428    1.079   .     S
C305   C307    1.395   .     A
C305   H353    1.075   .     S
C306   H351    1.076   .     S
C306   C309    1.398   .     A
C307   C312    1.419   .     A
C307   C310    1.416   .     A
C308   O364    1.306   .     A
C308   C327    1.415   .     S
C308   O436    1.286   .     S
C309   C313    1.421   .     A
C309   C311    1.418   .     A
C310   C990    1.385   .     S
C311   C991    1.387   1_554 S
C312   C323    1.417   .     A
C312   C979    1.419   .     S
C313   C319    1.418   .     A
C313   C978    1.419   1_554 S
C314   C326    1.537   .     S
C314   C315    1.524   .     S
C314   H335    1.110   .     S
C314   H556    1.106   .     S
C315   H331    1.107   .     S
C315   H333    1.111   .     S
C316   H339    1.111   .     S
C316   C317    1.527   .     S
C316   C327    1.537   .     S
C317   H337    1.108   .     S
C317   H338    1.110   .     S
C317   H410    1.111   .     S
C318   H346    1.110   .     S
C318   H345    1.077   .     S
C318   C320    1.517   .     S
C318   N359    1.450   .     S
C319   C324    1.384   .     A
C319   H358    1.075   .     S
C320   H342    1.099   .     S
C320   H343    1.108   .     S
C320   H344    1.111   .     S
C321   N360    1.450   .     S
C321   H352    1.076   .     S
C321   H350    1.110   .     S
C321   C322    1.521   .     S
C322   H348    1.102   .     S
C322   H347    1.111   .     S
C322   H349    1.111   .     S
C323   C325    1.384   .     A
C323   H330    1.077   .     S
C324   H329    1.079   .     S
C324   C976    1.385   1_554 S
C325   H340    1.081   .     S
C325   C977    1.387   .     S
C326   C475    1.362   .     S
C328   O367    1.309   .     A
H332   C389    1.111   .     S
H341   C538    1.105   .     S
H356   C375    1.084   .     S
N359   Zn370   2.054   .     S
N359   N360    1.304   .     D
N360   Zn369   2.054   .     S
O361   Zn369   1.977   .     S
O361   C371    1.285   .     S
O362   Zn370   1.977   .     S
O363   Zn370   1.983   .     S
O364   Zn369   1.983   .     S
O365   Zn369   1.968   .     S
O365   C402    1.310   .     S
O366   Zn370   1.968   .     S
O367   Zn370   1.916   .     S
O368   Zn369   1.916   .     S
C371   C400    1.413   .     S
C371   O437    1.307   .     A
C372   C374    1.456   .     S
C372   O442    1.309   .     A
C372   O292    1.310   1_655 S
C373   C379    1.393   .     A
C373   C402    1.457   .     S
C374   C380    1.390   .     A
C374   C378    1.398   .     A
C375   C384    1.403   .     A
C376   H431    1.084   .     S
C376   C385    1.403   .     A
C376   C378    1.391   .     A
C377   H429    1.079   .     S
C377   C225    1.398   1_655 S
C377   C227    1.391   1_655 S
C378   H280    1.079   1_655 S
C379   C381    1.395   .     A
C379   H427    1.075   .     S
C380   H425    1.076   .     S
C380   C383    1.398   .     A
C381   C386    1.419   .     A
C381   C384    1.416   .     A
C382   O438    1.306   .     A
C382   C401    1.415   .     S
C382   O288    1.286   1_655 S
C383   C387    1.421   .     A
C383   C385    1.418   .     A
C384   C1064   1.385   .     S
C385   C1065   1.387   1_554 S
C386   C397    1.417   .     A
C386   C1053   1.419   .     S
C387   C393    1.418   .     A
C387   C1052   1.419   1_554 S
C388   C400    1.537   .     S
C388   C389    1.524   .     S
C388   H409    1.110   .     S
C388   H630    1.106   .     S
C389   H405    1.107   .     S
C389   H407    1.111   .     S
C390   H413    1.111   .     S
C390   C391    1.527   .     S
C390   C401    1.537   .     S
C391   H411    1.108   .     S
C391   H412    1.110   .     S
C391   H262    1.111   1_655 S
C392   H420    1.110   .     S
C392   H419    1.077   .     S
C392   C394    1.517   .     S
C392   N433    1.450   .     S
C393   C398    1.384   .     A
C393   H432    1.075   .     S
C394   H416    1.099   .     S
C394   H417    1.108   .     S
C394   H418    1.111   .     S
C395   N434    1.450   .     S
C395   H426    1.076   .     S
C395   H424    1.110   .     S
C395   C396    1.521   .     S
C396   H422    1.102   .     S
C396   H421    1.111   .     S
C396   H423    1.111   .     S
C397   C399    1.384   .     A
C397   H404    1.077   .     S
C398   H403    1.079   .     S
C398   C1050   1.385   1_554 S
C399   H414    1.081   .     S
C399   C1051   1.387   .     S
C400   C549    1.362   .     S
C401   C30     1.362   1_655 S
C402   O441    1.309   .     A
H406   C241    1.111   1_655 S
H415   C612    1.105   .     S
H430   C227    1.084   1_655 S
N433   Zn444   2.054   .     S
N433   N434    1.304   .     D
N434   Zn443   2.054   .     S
O435   Zn443   1.977   .     S
O435   C223    1.285   1_655 S
O436   Zn444   1.977   .     S
O437   Zn444   1.983   .     S
O438   Zn443   1.983   .     S
O439   Zn443   1.968   .     S
O439   C254    1.310   1_655 S
O440   Zn444   1.968   .     S
O441   Zn444   1.916   .     S
O442   Zn443   1.916   .     S
C445   C474    1.413   .     S
C445   O511    1.307   .     A
C445   O657    1.285   1_455 S
C446   C448    1.456   .     S
C446   O516    1.309   .     A
C446   O588    1.310   .     S
C447   C453    1.393   .     A
C447   C476    1.457   .     S
C447   C599    1.398   1_455 S
C448   C454    1.390   .     A
C448   C452    1.398   .     A
C449   C458    1.403   .     A
C449   C599    1.391   1_455 S
C449   H652    1.084   1_455 S
C450   H505    1.084   .     S
C450   C459    1.403   .     A
C450   C452    1.391   .     A
C451   H503    1.079   .     S
C451   C521    1.398   .     S
C451   C523    1.391   .     S
C452   H576    1.079   .     S
C453   C455    1.395   .     A
C453   H501    1.075   .     S
C454   H499    1.076   .     S
C454   C457    1.398   .     A
C455   C460    1.419   .     A
C455   C458    1.416   .     A
C456   O512    1.306   .     A
C456   C475    1.415   .     S
C456   O584    1.286   .     S
C457   C461    1.421   .     A
C457   C459    1.418   .     A
C458   C1138   1.385   .     S
C459   C1139   1.387   1_554 S
C460   C471    1.417   .     A
C460   C1127   1.419   .     S
C461   C467    1.418   .     A
C461   C1126   1.419   1_554 S
C462   C474    1.537   .     S
C462   C463    1.524   .     S
C462   H483    1.110   .     S
C462   H38     1.106   1_565 S
C463   H479    1.107   .     S
C463   H481    1.111   .     S
C463   H628    1.111   1_455 S
C464   H487    1.111   .     S
C464   C465    1.527   .     S
C464   C475    1.537   .     S
C465   H485    1.108   .     S
C465   H486    1.110   .     S
C465   H558    1.111   .     S
C466   H494    1.110   .     S
C466   H493    1.077   .     S
C466   C468    1.517   .     S
C466   N507    1.450   .     S
C467   C472    1.384   .     A
C467   H506    1.075   .     S
C468   H490    1.099   .     S
C468   H491    1.108   .     S
C468   H492    1.111   .     S
C469   N508    1.450   .     S
C469   H500    1.076   .     S
C469   H498    1.110   .     S
C469   C470    1.521   .     S
C470   H496    1.102   .     S
C470   H495    1.111   .     S
C470   H497    1.111   .     S
C471   C473    1.384   .     A
C471   H478    1.077   .     S
C472   H477    1.079   .     S
C472   C1124   1.385   1_554 S
C473   H488    1.081   .     S
C473   C1125   1.387   .     S
C474   C179    1.362   1_465 S
C476   O515    1.309   .     A
C476   O661    1.310   1_455 S
H480   C537    1.111   .     S
H484   C613    1.111   1_455 S
H489   C20     1.105   1_565 S
H502   C600    1.079   1_455 S
H504   C523    1.084   .     S
N507   Zn518   2.054   .     S
N507   N508    1.304   .     D
N508   Zn517   2.054   .     S
O509   Zn517   1.977   .     S
O509   C519    1.285   .     S
O510   Zn518   1.977   .     S
O510   C604    1.286   1_455 S
O511   Zn518   1.983   .     S
O512   Zn517   1.983   .     S
O513   Zn517   1.968   .     S
O513   C550    1.310   .     S
O514   Zn518   1.968   .     S
O514   C594    1.310   1_455 S
O515   Zn518   1.916   .     S
O516   Zn517   1.916   .     S
C519   C548    1.413   .     S
C519   O585    1.307   .     A
C520   C522    1.456   .     S
C520   O590    1.309   .     A
C520   O662    1.310   .     S
C521   C527    1.393   .     A
C521   C550    1.457   .     S
C522   C528    1.390   .     A
C522   C526    1.398   .     A
C523   C532    1.403   .     A
C524   H579    1.084   .     S
C524   C533    1.403   .     A
C524   C526    1.391   .     A
C525   H577    1.079   .     S
C525   C595    1.398   .     S
C525   C597    1.391   .     S
C526   H650    1.079   .     S
C527   C529    1.395   .     A
C527   H575    1.075   .     S
C528   H573    1.076   .     S
C528   C531    1.398   .     A
C529   C534    1.419   .     A
C529   C532    1.416   .     A
C530   O586    1.306   .     A
C530   C549    1.415   .     S
C530   O658    1.286   .     S
C531   C535    1.421   .     A
C531   C533    1.418   .     A
C532   C1212   1.385   .     S
C533   C1213   1.387   1_554 S
C534   C545    1.417   .     A
C534   C1201   1.419   .     S
C535   C541    1.418   .     A
C535   C1200   1.419   1_554 S
C536   C548    1.537   .     S
C536   C537    1.524   .     S
C536   H557    1.110   .     S
C536   H112    1.106   1_565 S
C537   H553    1.107   .     S
C537   H555    1.111   .     S
C538   H561    1.111   .     S
C538   C539    1.527   .     S
C538   C549    1.537   .     S
C539   H559    1.108   .     S
C539   H560    1.110   .     S
C539   H632    1.111   .     S
C540   H568    1.110   .     S
C540   H567    1.077   .     S
C540   C542    1.517   .     S
C540   N581    1.450   .     S
C541   C546    1.384   .     A
C541   H580    1.075   .     S
C542   H564    1.099   .     S
C542   H565    1.108   .     S
C542   H566    1.111   .     S
C543   N582    1.450   .     S
C543   H574    1.076   .     S
C543   H572    1.110   .     S
C543   C544    1.521   .     S
C544   H570    1.102   .     S
C544   H569    1.111   .     S
C544   H571    1.111   .     S
C545   C547    1.384   .     A
C545   H552    1.077   .     S
C546   H551    1.079   .     S
C546   C1198   1.385   1_554 S
C547   H562    1.081   .     S
C547   C1199   1.387   .     S
C548   C31     1.362   1_565 S
C550   O589    1.309   .     A
H554   C611    1.111   .     S
H563   C94     1.105   1_565 S
H578   C597    1.084   .     S
N581   Zn592   2.054   .     S
N581   N582    1.304   .     D
N582   Zn591   2.054   .     S
O583   Zn591   1.977   .     S
O583   C593    1.285   .     S
O584   Zn592   1.977   .     S
O585   Zn592   1.983   .     S
O586   Zn591   1.983   .     S
O587   Zn591   1.968   .     S
O587   C624    1.310   .     S
O588   Zn592   1.968   .     S
O589   Zn592   1.916   .     S
O590   Zn591   1.916   .     S
C593   C622    1.413   .     S
C593   O659    1.307   .     A
C594   C596    1.456   .     S
C594   O664    1.309   .     A
C594   O514    1.310   1_655 S
C595   C601    1.393   .     A
C595   C624    1.457   .     S
C596   C602    1.390   .     A
C596   C600    1.398   .     A
C597   C606    1.403   .     A
C598   H653    1.084   .     S
C598   C607    1.403   .     A
C598   C600    1.391   .     A
C599   H651    1.079   .     S
C599   C447    1.398   1_655 S
C599   C449    1.391   1_655 S
C600   H502    1.079   1_655 S
C601   C603    1.395   .     A
C601   H649    1.075   .     S
C602   H647    1.076   .     S
C602   C605    1.398   .     A
C603   C608    1.419   .     A
C603   C606    1.416   .     A
C604   O660    1.306   .     A
C604   C623    1.415   .     S
C604   O510    1.286   1_655 S
C605   C609    1.421   .     A
C605   C607    1.418   .     A
C606   C1286   1.385   .     S
C607   C1287   1.387   1_554 S
C608   C619    1.417   .     A
C608   C1275   1.419   .     S
C609   C615    1.418   .     A
C609   C1274   1.419   1_554 S
C610   C622    1.537   .     S
C610   C611    1.524   .     S
C610   H631    1.110   .     S
C610   H186    1.106   1_565 S
C611   H627    1.107   .     S
C611   H629    1.111   .     S
C612   H635    1.111   .     S
C612   C613    1.527   .     S
C612   C623    1.537   .     S
C613   H633    1.108   .     S
C613   H634    1.110   .     S
C613   H484    1.111   1_655 S
C614   H642    1.110   .     S
C614   H641    1.077   .     S
C614   C616    1.517   .     S
C614   N655    1.450   .     S
C615   C620    1.384   .     A
C615   H654    1.075   .     S
C616   H638    1.099   .     S
C616   H639    1.108   .     S
C616   H640    1.111   .     S
C617   N656    1.450   .     S
C617   H648    1.076   .     S
C617   H646    1.110   .     S
C617   C618    1.521   .     S
C618   H644    1.102   .     S
C618   H643    1.111   .     S
C618   H645    1.111   .     S
C619   C621    1.384   .     A
C619   H626    1.077   .     S
C620   H625    1.079   .     S
C620   C1272   1.385   1_554 S
C621   H636    1.081   .     S
C621   C1273   1.387   .     S
C622   C105    1.362   1_565 S
C623   C252    1.362   1_655 S
C624   O663    1.309   .     A
H628   C463    1.111   1_655 S
H637   C168    1.105   1_565 S
H652   C449    1.084   1_655 S
N655   Zn666   2.054   .     S
N655   N656    1.304   .     D
N656   Zn665   2.054   .     S
O657   Zn665   1.977   .     S
O657   C445    1.285   1_655 S
O658   Zn666   1.977   .     S
O659   Zn666   1.983   .     S
O660   Zn665   1.983   .     S
O661   Zn665   1.968   .     S
O661   C476    1.310   1_655 S
O662   Zn666   1.968   .     S
O663   Zn666   1.916   .     S
O664   Zn665   1.916   .     S
C667   C696    1.413   .     S
C667   O733    1.307   .     A
C667   O879    1.285   1_455 S
C668   C670    1.456   .     S
C668   O738    1.309   .     A
C668   O810    1.310   .     S
C669   C675    1.393   .     A
C669   C698    1.457   .     S
C669   C821    1.398   1_455 S
C670   C676    1.390   .     A
C670   C674    1.398   .     A
C671   C680    1.403   .     A
C671   C821    1.391   1_455 S
C671   H874    1.084   1_455 S
C672   H727    1.084   .     S
C672   C681    1.403   .     A
C672   C674    1.391   .     A
C673   H725    1.079   .     S
C673   C743    1.398   .     S
C673   C745    1.391   .     S
C674   H798    1.079   .     S
C675   C677    1.395   .     A
C675   H723    1.075   .     S
C676   H721    1.076   .     S
C676   C679    1.398   .     A
C677   C682    1.419   .     A
C677   C680    1.416   .     A
C678   O734    1.306   .     A
C678   C697    1.415   .     S
C678   O806    1.286   .     S
C679   C683    1.421   .     A
C679   C681    1.418   .     A
C680   C28     1.385   1_556 S
C682   C693    1.417   .     A
C682   C17     1.419   1_556 S
C683   C689    1.418   .     A
C684   C696    1.537   .     S
C684   C685    1.524   .     S
C684   H705    1.110   .     S
C684   H926    1.106   .     S
C685   H701    1.107   .     S
C685   H703    1.111   .     S
C685   H850    1.111   1_455 S
C686   H709    1.111   .     S
C686   C687    1.527   .     S
C686   C697    1.537   .     S
C686   H1155   1.105   1_545 S
C687   H707    1.108   .     S
C687   H708    1.110   .     S
C687   H780    1.111   .     S
C688   H716    1.110   .     S
C688   H715    1.077   .     S
C688   C690    1.517   .     S
C688   N729    1.450   .     S
C689   C694    1.384   .     A
C689   H728    1.075   .     S
C690   H712    1.099   .     S
C690   H713    1.108   .     S
C690   H714    1.111   .     S
C691   N730    1.450   .     S
C691   H722    1.076   .     S
C691   H720    1.110   .     S
C691   C692    1.521   .     S
C692   H718    1.102   .     S
C692   H717    1.111   .     S
C692   H719    1.111   .     S
C693   C695    1.384   .     A
C693   H700    1.077   .     S
C694   H699    1.079   .     S
C695   H710    1.081   .     S
C695   C15     1.387   1_556 S
C696   C1067   1.362   1_455 S
C697   C1214   1.362   1_545 S
C698   O737    1.309   .     A
C698   O883    1.310   1_455 S
H702   C759    1.111   .     S
H704   C1128   1.106   1_545 S
H706   C835    1.111   1_455 S
H711   C908    1.105   .     S
H724   C822    1.079   1_455 S
H726   C745    1.084   .     S
N729   Zn740   2.054   .     S
N729   N730    1.304   .     D
N730   Zn739   2.054   .     S
O731   Zn739   1.977   .     S
O731   C741    1.285   .     S
O732   Zn740   1.977   .     S
O732   C826    1.286   1_455 S
O733   Zn740   1.983   .     S
O734   Zn739   1.983   .     S
O735   Zn739   1.968   .     S
O735   C772    1.310   .     S
O736   Zn740   1.968   .     S
O736   C816    1.310   1_455 S
O737   Zn740   1.916   .     S
O738   Zn739   1.916   .     S
C741   C770    1.413   .     S
C741   O807    1.307   .     A
C742   C744    1.456   .     S
C742   O812    1.309   .     A
C742   O884    1.310   .     S
C743   C749    1.393   .     A
C743   C772    1.457   .     S
C744   C750    1.390   .     A
C744   C748    1.398   .     A
C745   C754    1.403   .     A
C746   H801    1.084   .     S
C746   C755    1.403   .     A
C746   C748    1.391   .     A
C747   H799    1.079   .     S
C747   C817    1.398   .     S
C747   C819    1.391   .     S
C748   H872    1.079   .     S
C749   C751    1.395   .     A
C749   H797    1.075   .     S
C750   H795    1.076   .     S
C750   C753    1.398   .     A
C751   C756    1.419   .     A
C751   C754    1.416   .     A
C752   O808    1.306   .     A
C752   C771    1.415   .     S
C752   O880    1.286   .     S
C753   C757    1.421   .     A
C753   C755    1.418   .     A
C754   C102    1.385   1_556 S
C756   C767    1.417   .     A
C756   C91     1.419   1_556 S
C757   C763    1.418   .     A
C758   C770    1.537   .     S
C758   C759    1.524   .     S
C758   H779    1.110   .     S
C758   H1000   1.106   .     S
C759   H775    1.107   .     S
C759   H777    1.111   .     S
C760   H783    1.111   .     S
C760   C761    1.527   .     S
C760   C771    1.537   .     S
C760   H1229   1.105   1_545 S
C761   H781    1.108   .     S
C761   H782    1.110   .     S
C761   H854    1.111   .     S
C762   H790    1.110   .     S
C762   H789    1.077   .     S
C762   C764    1.517   .     S
C762   N803    1.450   .     S
C763   C768    1.384   .     A
C763   H802    1.075   .     S
C764   H786    1.099   .     S
C764   H787    1.108   .     S
C764   H788    1.111   .     S
C765   N804    1.450   .     S
C765   H796    1.076   .     S
C765   H794    1.110   .     S
C765   C766    1.521   .     S
C766   H792    1.102   .     S
C766   H791    1.111   .     S
C766   H793    1.111   .     S
C767   C769    1.384   .     A
C767   H774    1.077   .     S
C768   H773    1.079   .     S
C769   H784    1.081   .     S
C769   C89     1.387   1_556 S
C770   C919    1.362   .     S
C771   C1288   1.362   1_545 S
C772   O811    1.309   .     A
H776   C833    1.111   .     S
H778   C1202   1.106   1_545 S
H785   C982    1.105   .     S
H800   C819    1.084   .     S
N803   Zn814   2.054   .     S
N803   N804    1.304   .     D
N804   Zn813   2.054   .     S
O805   Zn813   1.977   .     S
O805   C815    1.285   .     S
O806   Zn814   1.977   .     S
O807   Zn814   1.983   .     S
O808   Zn813   1.983   .     S
O809   Zn813   1.968   .     S
O809   C846    1.310   .     S
O810   Zn814   1.968   .     S
O811   Zn814   1.916   .     S
O812   Zn813   1.916   .     S
C815   C844    1.413   .     S
C815   O881    1.307   .     A
C816   C818    1.456   .     S
C816   O886    1.309   .     A
C816   O736    1.310   1_655 S
C817   C823    1.393   .     A
C817   C846    1.457   .     S
C818   C824    1.390   .     A
C818   C822    1.398   .     A
C819   C828    1.403   .     A
C820   H875    1.084   .     S
C820   C829    1.403   .     A
C820   C822    1.391   .     A
C821   H873    1.079   .     S
C821   C669    1.398   1_655 S
C821   C671    1.391   1_655 S
C822   H724    1.079   1_655 S
C823   C825    1.395   .     A
C823   H871    1.075   .     S
C824   H869    1.076   .     S
C824   C827    1.398   .     A
C825   C830    1.419   .     A
C825   C828    1.416   .     A
C826   O882    1.306   .     A
C826   C845    1.415   .     S
C826   O732    1.286   1_655 S
C827   C831    1.421   .     A
C827   C829    1.418   .     A
C828   C176    1.385   1_556 S
C830   C841    1.417   .     A
C830   C165    1.419   1_556 S
C831   C837    1.418   .     A
C832   C844    1.537   .     S
C832   C833    1.524   .     S
C832   H853    1.110   .     S
C832   H1074   1.106   .     S
C833   H849    1.107   .     S
C833   H851    1.111   .     S
C834   H857    1.111   .     S
C834   C835    1.527   .     S
C834   C845    1.537   .     S
C834   H1303   1.105   1_545 S
C835   H855    1.108   .     S
C835   H856    1.110   .     S
C835   H706    1.111   1_655 S
C836   H864    1.110   .     S
C836   H863    1.077   .     S
C836   C838    1.517   .     S
C836   N877    1.450   .     S
C837   C842    1.384   .     A
C837   H876    1.075   .     S
C838   H860    1.099   .     S
C838   H861    1.108   .     S
C838   H862    1.111   .     S
C839   N878    1.450   .     S
C839   H870    1.076   .     S
C839   H868    1.110   .     S
C839   C840    1.521   .     S
C840   H866    1.102   .     S
C840   H865    1.111   .     S
C840   H867    1.111   .     S
C841   C843    1.384   .     A
C841   H848    1.077   .     S
C842   H847    1.079   .     S
C843   H858    1.081   .     S
C843   C163    1.387   1_556 S
C844   C993    1.362   .     S
C845   C1140   1.362   1_645 S
C846   O885    1.309   .     A
H850   C685    1.111   1_655 S
H852   C1276   1.106   1_545 S
H859   C1056   1.105   .     S
H874   C671    1.084   1_655 S
N877   Zn888   2.054   .     S
N877   N878    1.304   .     D
N878   Zn887   2.054   .     S
O879   Zn887   1.977   .     S
O879   C667    1.285   1_655 S
O880   Zn888   1.977   .     S
O881   Zn888   1.983   .     S
O882   Zn887   1.983   .     S
O883   Zn887   1.968   .     S
O883   C698    1.310   1_655 S
O884   Zn888   1.968   .     S
O885   Zn888   1.916   .     S
O886   Zn887   1.916   .     S
C889   C918    1.413   .     S
C889   O955    1.307   .     A
C889   O1101   1.285   1_455 S
C890   C892    1.456   .     S
C890   O960    1.309   .     A
C890   O1032   1.310   .     S
C891   C897    1.393   .     A
C891   C920    1.457   .     S
C891   C1043   1.398   1_455 S
C892   C898    1.390   .     A
C892   C896    1.398   .     A
C893   C902    1.403   .     A
C893   C1043   1.391   1_455 S
C893   H1096   1.084   1_455 S
C894   H949    1.084   .     S
C894   C903    1.403   .     A
C894   C896    1.391   .     A
C895   H947    1.079   .     S
C895   C965    1.398   .     S
C895   C967    1.391   .     S
C896   H1020   1.079   .     S
C897   C899    1.395   .     A
C897   H945    1.075   .     S
C898   H943    1.076   .     S
C898   C901    1.398   .     A
C899   C904    1.419   .     A
C899   C902    1.416   .     A
C900   O956    1.306   .     A
C900   C919    1.415   .     S
C900   O1028   1.286   .     S
C901   C905    1.421   .     A
C901   C903    1.418   .     A
C902   C250    1.385   1_556 S
C904   C915    1.417   .     A
C904   C239    1.419   1_556 S
C905   C911    1.418   .     A
C906   C918    1.537   .     S
C906   C907    1.524   .     S
C906   H927    1.110   .     S
C906   H1148   1.106   .     S
C907   H923    1.107   .     S
C907   H925    1.111   .     S
C907   H1072   1.111   1_455 S
C908   H931    1.111   .     S
C908   C909    1.527   .     S
C908   C919    1.537   .     S
C909   H929    1.108   .     S
C909   H930    1.110   .     S
C909   H1002   1.111   .     S
C910   H938    1.110   .     S
C910   H937    1.077   .     S
C910   C912    1.517   .     S
C910   N951    1.450   .     S
C911   C916    1.384   .     A
C911   H950    1.075   .     S
C912   H934    1.099   .     S
C912   H935    1.108   .     S
C912   H936    1.111   .     S
C913   N952    1.450   .     S
C913   H944    1.076   .     S
C913   H942    1.110   .     S
C913   C914    1.521   .     S
C914   H940    1.102   .     S
C914   H939    1.111   .     S
C914   H941    1.111   .     S
C915   C917    1.384   .     A
C915   H922    1.077   .     S
C916   H921    1.079   .     S
C917   H932    1.081   .     S
C917   C237    1.387   1_556 S
C918   C1289   1.362   1_455 S
C920   O959    1.309   .     A
C920   O1105   1.310   1_455 S
H924   C981    1.111   .     S
H928   C1057   1.111   1_455 S
H933   C1130   1.105   .     S
H946   C1044   1.079   1_455 S
H948   C967    1.084   .     S
N951   Zn962   2.054   .     S
N951   N952    1.304   .     D
N952   Zn961   2.054   .     S
O953   Zn961   1.977   .     S
O953   C963    1.285   .     S
O954   Zn962   1.977   .     S
O954   C1048   1.286   1_455 S
O955   Zn962   1.983   .     S
O956   Zn961   1.983   .     S
O957   Zn961   1.968   .     S
O957   C994    1.310   .     S
O958   Zn962   1.968   .     S
O958   C1038   1.310   1_455 S
O959   Zn962   1.916   .     S
O960   Zn961   1.916   .     S
C963   C992    1.413   .     S
C963   O1029   1.307   .     A
C964   C966    1.456   .     S
C964   O1034   1.309   .     A
C964   O1106   1.310   .     S
C965   C971    1.393   .     A
C965   C994    1.457   .     S
C966   C972    1.390   .     A
C966   C970    1.398   .     A
C967   C976    1.403   .     A
C968   H1023   1.084   .     S
C968   C977    1.403   .     A
C968   C970    1.391   .     A
C969   H1021   1.079   .     S
C969   C1039   1.398   .     S
C969   C1041   1.391   .     S
C970   H1094   1.079   .     S
C971   C973    1.395   .     A
C971   H1019   1.075   .     S
C972   H1017   1.076   .     S
C972   C975    1.398   .     A
C973   C978    1.419   .     A
C973   C976    1.416   .     A
C974   O1030   1.306   .     A
C974   C993    1.415   .     S
C974   O1102   1.286   .     S
C975   C979    1.421   .     A
C975   C977    1.418   .     A
C976   C324    1.385   1_556 S
C978   C989    1.417   .     A
C978   C313    1.419   1_556 S
C979   C985    1.418   .     A
C980   C992    1.537   .     S
C980   C981    1.524   .     S
C980   H1001   1.110   .     S
C980   H1222   1.106   .     S
C981   H997    1.107   .     S
C981   H999    1.111   .     S
C982   H1005   1.111   .     S
C982   C983    1.527   .     S
C982   C993    1.537   .     S
C983   H1003   1.108   .     S
C983   H1004   1.110   .     S
C983   H1076   1.111   .     S
C984   H1012   1.110   .     S
C984   H1011   1.077   .     S
C984   C986    1.517   .     S
C984   N1025   1.450   .     S
C985   C990    1.384   .     A
C985   H1024   1.075   .     S
C986   H1008   1.099   .     S
C986   H1009   1.108   .     S
C986   H1010   1.111   .     S
C987   N1026   1.450   .     S
C987   H1018   1.076   .     S
C987   H1016   1.110   .     S
C987   C988    1.521   .     S
C988   H1014   1.102   .     S
C988   H1013   1.111   .     S
C988   H1015   1.111   .     S
C989   C991    1.384   .     A
C989   H996    1.077   .     S
C990   H995    1.079   .     S
C991   H1006   1.081   .     S
C991   C311    1.387   1_556 S
C992   C1141   1.362   .     S
C994   O1033   1.309   .     A
H998   C1055   1.111   .     S
H1007  C1204   1.105   .     S
H1022  C1041   1.084   .     S
N1025  Zn1036  2.054   .     S
N1025  N1026   1.304   .     D
N1026  Zn1035  2.054   .     S
O1027  Zn1035  1.977   .     S
O1027  C1037   1.285   .     S
O1028  Zn1036  1.977   .     S
O1029  Zn1036  1.983   .     S
O1030  Zn1035  1.983   .     S
O1031  Zn1035  1.968   .     S
O1031  C1068   1.310   .     S
O1032  Zn1036  1.968   .     S
O1033  Zn1036  1.916   .     S
O1034  Zn1035  1.916   .     S
C1037  C1066   1.413   .     S
C1037  O1103   1.307   .     A
C1038  C1040   1.456   .     S
C1038  O1108   1.309   .     A
C1038  O958    1.310   1_655 S
C1039  C1045   1.393   .     A
C1039  C1068   1.457   .     S
C1040  C1046   1.390   .     A
C1040  C1044   1.398   .     A
C1041  C1050   1.403   .     A
C1042  H1097   1.084   .     S
C1042  C1051   1.403   .     A
C1042  C1044   1.391   .     A
C1043  H1095   1.079   .     S
C1043  C891    1.398   1_655 S
C1043  C893    1.391   1_655 S
C1044  H946    1.079   1_655 S
C1045  C1047   1.395   .     A
C1045  H1093   1.075   .     S
C1046  H1091   1.076   .     S
C1046  C1049   1.398   .     A
C1047  C1052   1.419   .     A
C1047  C1050   1.416   .     A
C1048  O1104   1.306   .     A
C1048  C1067   1.415   .     S
C1048  O954    1.286   1_655 S
C1049  C1053   1.421   .     A
C1049  C1051   1.418   .     A
C1050  C398    1.385   1_556 S
C1052  C1063   1.417   .     A
C1052  C387    1.419   1_556 S
C1053  C1059   1.418   .     A
C1054  C1066   1.537   .     S
C1054  C1055   1.524   .     S
C1054  H1075   1.110   .     S
C1054  H1296   1.106   .     S
C1055  H1071   1.107   .     S
C1055  H1073   1.111   .     S
C1056  H1079   1.111   .     S
C1056  C1057   1.527   .     S
C1056  C1067   1.537   .     S
C1057  H1077   1.108   .     S
C1057  H1078   1.110   .     S
C1057  H928    1.111   1_655 S
C1058  H1086   1.110   .     S
C1058  H1085   1.077   .     S
C1058  C1060   1.517   .     S
C1058  N1099   1.450   .     S
C1059  C1064   1.384   .     A
C1059  H1098   1.075   .     S
C1060  H1082   1.099   .     S
C1060  H1083   1.108   .     S
C1060  H1084   1.111   .     S
C1061  N1100   1.450   .     S
C1061  H1092   1.076   .     S
C1061  H1090   1.110   .     S
C1061  C1062   1.521   .     S
C1062  H1088   1.102   .     S
C1062  H1087   1.111   .     S
C1062  H1089   1.111   .     S
C1063  C1065   1.384   .     A
C1063  H1070   1.077   .     S
C1064  H1069   1.079   .     S
C1065  H1080   1.081   .     S
C1065  C385    1.387   1_556 S
C1066  C1215   1.362   .     S
C1067  C696    1.362   1_655 S
C1068  O1107   1.309   .     A
H1072  C907    1.111   1_655 S
H1081  C1278   1.105   .     S
H1096  C893    1.084   1_655 S
N1099  Zn1110  2.054   .     S
N1099  N1100   1.304   .     D
N1100  Zn1109  2.054   .     S
O1101  Zn1109  1.977   .     S
O1101  C889    1.285   1_655 S
O1102  Zn1110  1.977   .     S
O1103  Zn1110  1.983   .     S
O1104  Zn1109  1.983   .     S
O1105  Zn1109  1.968   .     S
O1105  C920    1.310   1_655 S
O1106  Zn1110  1.968   .     S
O1107  Zn1110  1.916   .     S
O1108  Zn1109  1.916   .     S
C1111  C1140   1.413   .     S
C1111  O1177   1.307   .     A
C1111  O1323   1.285   1_455 S
C1112  C1114   1.456   .     S
C1112  O1182   1.309   .     A
C1112  O1254   1.310   .     S
C1113  C1119   1.393   .     A
C1113  C1142   1.457   .     S
C1113  C1265   1.398   1_455 S
C1114  C1120   1.390   .     A
C1114  C1118   1.398   .     A
C1115  C1124   1.403   .     A
C1115  C1265   1.391   1_455 S
C1115  H1318   1.084   1_455 S
C1116  H1171   1.084   .     S
C1116  C1125   1.403   .     A
C1116  C1118   1.391   .     A
C1117  H1169   1.079   .     S
C1117  C1187   1.398   .     S
C1117  C1189   1.391   .     S
C1118  H1242   1.079   .     S
C1119  C1121   1.395   .     A
C1119  H1167   1.075   .     S
C1120  H1165   1.076   .     S
C1120  C1123   1.398   .     A
C1121  C1126   1.419   .     A
C1121  C1124   1.416   .     A
C1122  O1178   1.306   .     A
C1122  C1141   1.415   .     S
C1122  O1250   1.286   .     S
C1123  C1127   1.421   .     A
C1123  C1125   1.418   .     A
C1124  C472    1.385   1_556 S
C1126  C1137   1.417   .     A
C1126  C461    1.419   1_556 S
C1127  C1133   1.418   .     A
C1128  C1140   1.537   .     S
C1128  C1129   1.524   .     S
C1128  H1149   1.110   .     S
C1128  H704    1.106   1_565 S
C1129  H1145   1.107   .     S
C1129  H1147   1.111   .     S
C1129  H1294   1.111   1_455 S
C1130  H1153   1.111   .     S
C1130  C1131   1.527   .     S
C1130  C1141   1.537   .     S
C1131  H1151   1.108   .     S
C1131  H1152   1.110   .     S
C1131  H1224   1.111   .     S
C1132  H1160   1.110   .     S
C1132  H1159   1.077   .     S
C1132  C1134   1.517   .     S
C1132  N1173   1.450   .     S
C1133  C1138   1.384   .     A
C1133  H1172   1.075   .     S
C1134  H1156   1.099   .     S
C1134  H1157   1.108   .     S
C1134  H1158   1.111   .     S
C1135  N1174   1.450   .     S
C1135  H1166   1.076   .     S
C1135  H1164   1.110   .     S
C1135  C1136   1.521   .     S
C1136  H1162   1.102   .     S
C1136  H1161   1.111   .     S
C1136  H1163   1.111   .     S
C1137  C1139   1.384   .     A
C1137  H1144   1.077   .     S
C1138  H1143   1.079   .     S
C1139  H1154   1.081   .     S
C1139  C459    1.387   1_556 S
C1140  C845    1.362   1_465 S
C1142  O1181   1.309   .     A
C1142  O1327   1.310   1_455 S
H1146  C1203   1.111   .     S
H1150  C1279   1.111   1_455 S
H1155  C686    1.105   1_565 S
H1168  C1266   1.079   1_455 S
H1170  C1189   1.084   .     S
N1173  Zn1184  2.054   .     S
N1173  N1174   1.304   .     D
N1174  Zn1183  2.054   .     S
O1175  Zn1183  1.977   .     S
O1175  C1185   1.285   .     S
O1176  Zn1184  1.977   .     S
O1176  C1270   1.286   1_455 S
O1177  Zn1184  1.983   .     S
O1178  Zn1183  1.983   .     S
O1179  Zn1183  1.968   .     S
O1179  C1216   1.310   .     S
O1180  Zn1184  1.968   .     S
O1180  C1260   1.310   1_455 S
O1181  Zn1184  1.916   .     S
O1182  Zn1183  1.916   .     S
C1185  C1214   1.413   .     S
C1185  O1251   1.307   .     A
C1186  C1188   1.456   .     S
C1186  O1256   1.309   .     A
C1186  O1328   1.310   .     S
C1187  C1193   1.393   .     A
C1187  C1216   1.457   .     S
C1188  C1194   1.390   .     A
C1188  C1192   1.398   .     A
C1189  C1198   1.403   .     A
C1190  H1245   1.084   .     S
C1190  C1199   1.403   .     A
C1190  C1192   1.391   .     A
C1191  H1243   1.079   .     S
C1191  C1261   1.398   .     S
C1191  C1263   1.391   .     S
C1192  H1316   1.079   .     S
C1193  C1195   1.395   .     A
C1193  H1241   1.075   .     S
C1194  H1239   1.076   .     S
C1194  C1197   1.398   .     A
C1195  C1200   1.419   .     A
C1195  C1198   1.416   .     A
C1196  O1252   1.306   .     A
C1196  C1215   1.415   .     S
C1196  O1324   1.286   .     S
C1197  C1201   1.421   .     A
C1197  C1199   1.418   .     A
C1198  C546    1.385   1_556 S
C1200  C1211   1.417   .     A
C1200  C535    1.419   1_556 S
C1201  C1207   1.418   .     A
C1202  C1214   1.537   .     S
C1202  C1203   1.524   .     S
C1202  H1223   1.110   .     S
C1202  H778    1.106   1_565 S
C1203  H1219   1.107   .     S
C1203  H1221   1.111   .     S
C1204  H1227   1.111   .     S
C1204  C1205   1.527   .     S
C1204  C1215   1.537   .     S
C1205  H1225   1.108   .     S
C1205  H1226   1.110   .     S
C1205  H1298   1.111   .     S
C1206  H1234   1.110   .     S
C1206  H1233   1.077   .     S
C1206  C1208   1.517   .     S
C1206  N1247   1.450   .     S
C1207  C1212   1.384   .     A
C1207  H1246   1.075   .     S
C1208  H1230   1.099   .     S
C1208  H1231   1.108   .     S
C1208  H1232   1.111   .     S
C1209  N1248   1.450   .     S
C1209  H1240   1.076   .     S
C1209  H1238   1.110   .     S
C1209  C1210   1.521   .     S
C1210  H1236   1.102   .     S
C1210  H1235   1.111   .     S
C1210  H1237   1.111   .     S
C1211  C1213   1.384   .     A
C1211  H1218   1.077   .     S
C1212  H1217   1.079   .     S
C1213  H1228   1.081   .     S
C1213  C533    1.387   1_556 S
C1214  C697    1.362   1_565 S
C1216  O1255   1.309   .     A
H1220  C1277   1.111   .     S
H1229  C760    1.105   1_565 S
H1244  C1263   1.084   .     S
N1247  Zn1258  2.054   .     S
N1247  N1248   1.304   .     D
N1248  Zn1257  2.054   .     S
O1249  Zn1257  1.977   .     S
O1249  C1259   1.285   .     S
O1250  Zn1258  1.977   .     S
O1251  Zn1258  1.983   .     S
O1252  Zn1257  1.983   .     S
O1253  Zn1257  1.968   .     S
O1253  C1290   1.310   .     S
O1254  Zn1258  1.968   .     S
O1255  Zn1258  1.916   .     S
O1256  Zn1257  1.916   .     S
C1259  C1288   1.413   .     S
C1259  O1325   1.307   .     A
C1260  C1262   1.456   .     S
C1260  O1330   1.309   .     A
C1260  O1180   1.310   1_655 S
C1261  C1267   1.393   .     A
C1261  C1290   1.457   .     S
C1262  C1268   1.390   .     A
C1262  C1266   1.398   .     A
C1263  C1272   1.403   .     A
C1264  H1319   1.084   .     S
C1264  C1273   1.403   .     A
C1264  C1266   1.391   .     A
C1265  H1317   1.079   .     S
C1265  C1113   1.398   1_655 S
C1265  C1115   1.391   1_655 S
C1266  H1168   1.079   1_655 S
C1267  C1269   1.395   .     A
C1267  H1315   1.075   .     S
C1268  H1313   1.076   .     S
C1268  C1271   1.398   .     A
C1269  C1274   1.419   .     A
C1269  C1272   1.416   .     A
C1270  O1326   1.306   .     A
C1270  C1289   1.415   .     S
C1270  O1176   1.286   1_655 S
C1271  C1275   1.421   .     A
C1271  C1273   1.418   .     A
C1272  C620    1.385   1_556 S
C1274  C1285   1.417   .     A
C1274  C609    1.419   1_556 S
C1275  C1281   1.418   .     A
C1276  C1288   1.537   .     S
C1276  C1277   1.524   .     S
C1276  H1297   1.110   .     S
C1276  H852    1.106   1_565 S
C1277  H1293   1.107   .     S
C1277  H1295   1.111   .     S
C1278  H1301   1.111   .     S
C1278  C1279   1.527   .     S
C1278  C1289   1.537   .     S
C1279  H1299   1.108   .     S
C1279  H1300   1.110   .     S
C1279  H1150   1.111   1_655 S
C1280  H1308   1.110   .     S
C1280  H1307   1.077   .     S
C1280  C1282   1.517   .     S
C1280  N1321   1.450   .     S
C1281  C1286   1.384   .     A
C1281  H1320   1.075   .     S
C1282  H1304   1.099   .     S
C1282  H1305   1.108   .     S
C1282  H1306   1.111   .     S
C1283  N1322   1.450   .     S
C1283  H1314   1.076   .     S
C1283  H1312   1.110   .     S
C1283  C1284   1.521   .     S
C1284  H1310   1.102   .     S
C1284  H1309   1.111   .     S
C1284  H1311   1.111   .     S
C1285  C1287   1.384   .     A
C1285  H1292   1.077   .     S
C1286  H1291   1.079   .     S
C1287  H1302   1.081   .     S
C1287  C607    1.387   1_556 S
C1288  C771    1.362   1_565 S
C1289  C918    1.362   1_655 S
C1290  O1329   1.309   .     A
H1294  C1129   1.111   1_655 S
H1303  C834    1.105   1_565 S
H1318  C1115   1.084   1_655 S
N1321  Zn1332  2.054   .     S
N1321  N1322   1.304   .     D
N1322  Zn1331  2.054   .     S
O1323  Zn1331  1.977   .     S
O1323  C1111   1.285   1_655 S
O1324  Zn1332  1.977   .     S
O1325  Zn1332  1.983   .     S
O1326  Zn1331  1.983   .     S
O1327  Zn1331  1.968   .     S
O1327  C1142   1.310   1_655 S
O1328  Zn1332  1.968   .     S
O1329  Zn1332  1.916   .     S
O1330  Zn1331  1.916   .     S
