data_str_m3_o10_o18_pcu_sym.128
_audit_creation_date              2020-01-03
_audit_creation_method            'Materials Studio'
_symmetry_space_group_name_H-M    'P1'
_symmetry_Int_Tables_number       1
_symmetry_cell_setting            triclinic
loop_
_symmetry_equiv_pos_as_xyz
  x,y,z
_cell_length_a                    23.5039
_cell_length_b                    25.7399
_cell_length_c                    27.5561
_cell_angle_alpha                 93.5332
_cell_angle_beta                  93.1657
_cell_angle_gamma                 93.8430
loop_
_atom_site_label
_atom_site_type_symbol
_atom_site_fract_x
_atom_site_fract_y
_atom_site_fract_z
_atom_site_U_iso_or_equiv
_atom_site_adp_type
_atom_site_occupancy
Br1    Br    0.08922   0.01075   0.29790   0.00000  Uiso   1.00
Br2    Br    0.24414   0.32261   0.20208   0.00000  Uiso   1.00
C3     C     0.01467   0.26482   0.24863   0.00000  Uiso   1.00
C4     C     0.31209   0.16200   0.15901   0.00000  Uiso   1.00
C5     C     0.03065   0.17246   0.39360   0.00000  Uiso   1.00
C6     C     0.29987   0.15064   0.10723   0.00000  Uiso   1.00
C7     C     0.01081   0.20662   0.47388   0.00000  Uiso   1.00
C8     C     0.30689   0.09439   0.03477   0.00000  Uiso   1.00
C9     C     0.32826   0.19840   0.42448   0.00000  Uiso   1.00
C10    C     0.32889   0.11358   0.08088   0.00000  Uiso   1.00
C11    C     0.07909   0.15099   0.41247   0.00000  Uiso   1.00
C12    C     0.25071   0.16953   0.08714   0.00000  Uiso   1.00
C13    C     0.09573   0.15824   0.46188   0.00000  Uiso   1.00
C14    C     0.31866   0.06851   0.25136   0.00000  Uiso   1.00
C15    C     0.22426   0.14639   0.04396   0.00000  Uiso   1.00
C16    C     0.06214   0.18858   0.49237   0.00000  Uiso   1.00
C17    C     0.25418   0.10989   0.01645   0.00000  Uiso   1.00
C18    C     0.14733   0.13978   0.48065   0.00000  Uiso   1.00
C19    C     0.16880   0.15844   0.02789   0.00000  Uiso   1.00
C20    C     0.13351   0.18723   0.05806   0.00000  Uiso   1.00
C21    C     0.17814   0.10344   0.45379   0.00000  Uiso   1.00
C22    C     0.08086   0.20159   0.04054   0.00000  Uiso   1.00
C23    C     0.23050   0.08853   0.47172   0.00000  Uiso   1.00
C24    C     0.02218   0.31917   0.25631   0.00000  Uiso   1.00
C25    C     0.31116   0.01417   0.24368   0.00000  Uiso   1.00
C26    C     0.02101   0.17028   0.34104   0.00000  Uiso   1.00
H27    H     0.05526   0.22399   0.06454   0.00000  Uiso   1.00
H28    H     0.16178   0.08410   0.41954   0.00000  Uiso   1.00
H29    H     0.16246   0.12467   0.21383   0.00000  Uiso   1.00
H30    H     0.17087   0.20868   0.28615   0.00000  Uiso   1.00
H31    H     0.25252   0.06017   0.45046   0.00000  Uiso   1.00
H32    H     0.23258   0.20101   0.10733   0.00000  Uiso   1.00
H33    H     0.10541   0.13178   0.38714   0.00000  Uiso   1.00
H34    H     0.03385   0.09838   0.09647   0.00000  Uiso   1.00
H35    H     0.28992   0.21457   0.41011   0.00000  Uiso   1.00
H36    H     0.31751   0.22866   0.49724   0.00000  Uiso   1.00
H37    H     0.32976   0.06600   0.01436   0.00000  Uiso   1.00
H38    H     0.14461   0.19796   0.09600   0.00000  Uiso   1.00
N39    N     0.14695   0.15216   0.23739   0.00000  Uiso   1.00
N40    N     0.18638   0.18117   0.26260   0.00000  Uiso   1.00
O41    O     0.29719   0.24631   0.25309   0.00000  Uiso   1.00
O42    O     0.03614   0.08702   0.24690   0.00000  Uiso   1.00
O43    O     0.05822   0.23702   0.24501   0.00000  Uiso   1.00
O44    O     0.27512   0.09632   0.25498   0.00000  Uiso   1.00
O45    O     0.30328   0.17397   0.32247   0.00000  Uiso   1.00
O46    O     0.03005   0.15937   0.17753   0.00000  Uiso   1.00
O47    O     0.06431   0.16467   0.31439   0.00000  Uiso   1.00
O48    O     0.26902   0.16866   0.18561   0.00000  Uiso   1.00
Zn49   Zn    0.27033   0.17287   0.25539   0.00000  Uiso   1.00
Zn50   Zn    0.06300   0.16046   0.24460   0.00000  Uiso   1.00
Br51   Br    0.42255   0.01075   0.29790   0.00000  Uiso   1.00
Br52   Br    0.57747   0.32261   0.20208   0.00000  Uiso   1.00
C53    C     0.34801   0.26482   0.24863   0.00000  Uiso   1.00
C54    C     0.64543   0.16200   0.15901   0.00000  Uiso   1.00
C55    C     0.36398   0.17246   0.39360   0.00000  Uiso   1.00
C56    C     0.63320   0.15064   0.10723   0.00000  Uiso   1.00
C57    C     0.34414   0.20662   0.47388   0.00000  Uiso   1.00
C58    C     0.64022   0.09439   0.03477   0.00000  Uiso   1.00
C59    C     0.66160   0.19840   0.42448   0.00000  Uiso   1.00
C60    C     0.66222   0.11358   0.08088   0.00000  Uiso   1.00
C61    C     0.41242   0.15099   0.41247   0.00000  Uiso   1.00
C62    C     0.58404   0.16953   0.08714   0.00000  Uiso   1.00
C63    C     0.42906   0.15824   0.46188   0.00000  Uiso   1.00
C64    C     0.65199   0.06851   0.25136   0.00000  Uiso   1.00
C65    C     0.55760   0.14639   0.04396   0.00000  Uiso   1.00
C66    C     0.39547   0.18858   0.49237   0.00000  Uiso   1.00
C67    C     0.58751   0.10989   0.01645   0.00000  Uiso   1.00
C68    C     0.48066   0.13978   0.48065   0.00000  Uiso   1.00
C69    C     0.50213   0.15844   0.02789   0.00000  Uiso   1.00
C70    C     0.46685   0.18723   0.05806   0.00000  Uiso   1.00
C71    C     0.51148   0.10344   0.45379   0.00000  Uiso   1.00
C72    C     0.41420   0.20159   0.04054   0.00000  Uiso   1.00
C73    C     0.56383   0.08853   0.47172   0.00000  Uiso   1.00
C74    C     0.35551   0.31917   0.25631   0.00000  Uiso   1.00
C75    C     0.64450   0.01417   0.24368   0.00000  Uiso   1.00
C76    C     0.35434   0.17028   0.34104   0.00000  Uiso   1.00
H77    H     0.38859   0.22399   0.06454   0.00000  Uiso   1.00
H78    H     0.49512   0.08410   0.41954   0.00000  Uiso   1.00
H79    H     0.49580   0.12467   0.21383   0.00000  Uiso   1.00
H80    H     0.50420   0.20868   0.28615   0.00000  Uiso   1.00
H81    H     0.58585   0.06017   0.45046   0.00000  Uiso   1.00
H82    H     0.56592   0.20101   0.10733   0.00000  Uiso   1.00
H83    H     0.43874   0.13178   0.38714   0.00000  Uiso   1.00
H84    H     0.36719   0.09838   0.09647   0.00000  Uiso   1.00
H85    H     0.62326   0.21457   0.41011   0.00000  Uiso   1.00
H86    H     0.65085   0.22866   0.49724   0.00000  Uiso   1.00
H87    H     0.66309   0.06600   0.01436   0.00000  Uiso   1.00
H88    H     0.47795   0.19796   0.09600   0.00000  Uiso   1.00
N89    N     0.48029   0.15216   0.23739   0.00000  Uiso   1.00
N90    N     0.51971   0.18117   0.26260   0.00000  Uiso   1.00
O91    O     0.63052   0.24631   0.25309   0.00000  Uiso   1.00
O92    O     0.36948   0.08702   0.24690   0.00000  Uiso   1.00
O93    O     0.39155   0.23702   0.24501   0.00000  Uiso   1.00
O94    O     0.60845   0.09632   0.25498   0.00000  Uiso   1.00
O95    O     0.63662   0.17397   0.32247   0.00000  Uiso   1.00
O96    O     0.36338   0.15937   0.17753   0.00000  Uiso   1.00
O97    O     0.39764   0.16467   0.31439   0.00000  Uiso   1.00
O98    O     0.60236   0.16866   0.18561   0.00000  Uiso   1.00
Zn99   Zn    0.60366   0.17287   0.25539   0.00000  Uiso   1.00
Zn100  Zn    0.39634   0.16046   0.24460   0.00000  Uiso   1.00
Br101  Br    0.75588   0.01075   0.29790   0.00000  Uiso   1.00
Br102  Br    0.91081   0.32261   0.20208   0.00000  Uiso   1.00
C103   C     0.68134   0.26482   0.24863   0.00000  Uiso   1.00
C104   C     0.97876   0.16200   0.15901   0.00000  Uiso   1.00
C105   C     0.69731   0.17246   0.39360   0.00000  Uiso   1.00
C106   C     0.96654   0.15064   0.10723   0.00000  Uiso   1.00
C107   C     0.67748   0.20662   0.47388   0.00000  Uiso   1.00
C108   C     0.97356   0.09439   0.03477   0.00000  Uiso   1.00
C109   C     0.99493   0.19840   0.42448   0.00000  Uiso   1.00
C110   C     0.99556   0.11358   0.08088   0.00000  Uiso   1.00
C111   C     0.74576   0.15099   0.41247   0.00000  Uiso   1.00
C112   C     0.91737   0.16953   0.08714   0.00000  Uiso   1.00
C113   C     0.76240   0.15824   0.46188   0.00000  Uiso   1.00
C114   C     0.98533   0.06851   0.25136   0.00000  Uiso   1.00
C115   C     0.89093   0.14639   0.04396   0.00000  Uiso   1.00
C116   C     0.72881   0.18858   0.49237   0.00000  Uiso   1.00
C117   C     0.92084   0.10989   0.01645   0.00000  Uiso   1.00
C118   C     0.81400   0.13978   0.48065   0.00000  Uiso   1.00
C119   C     0.83547   0.15844   0.02789   0.00000  Uiso   1.00
C120   C     0.80018   0.18723   0.05806   0.00000  Uiso   1.00
C121   C     0.84481   0.10344   0.45379   0.00000  Uiso   1.00
C122   C     0.74753   0.20159   0.04054   0.00000  Uiso   1.00
C123   C     0.89717   0.08853   0.47172   0.00000  Uiso   1.00
C124   C     0.68885   0.31917   0.25631   0.00000  Uiso   1.00
C125   C     0.97783   0.01417   0.24368   0.00000  Uiso   1.00
C126   C     0.68767   0.17028   0.34104   0.00000  Uiso   1.00
H127   H     0.72192   0.22399   0.06454   0.00000  Uiso   1.00
H128   H     0.82845   0.08410   0.41954   0.00000  Uiso   1.00
H129   H     0.82913   0.12467   0.21383   0.00000  Uiso   1.00
H130   H     0.83754   0.20868   0.28615   0.00000  Uiso   1.00
H131   H     0.91918   0.06017   0.45046   0.00000  Uiso   1.00
H132   H     0.89925   0.20101   0.10733   0.00000  Uiso   1.00
H133   H     0.77208   0.13178   0.38714   0.00000  Uiso   1.00
H134   H     0.70052   0.09838   0.09647   0.00000  Uiso   1.00
H135   H     0.95659   0.21457   0.41011   0.00000  Uiso   1.00
H136   H     0.98418   0.22866   0.49724   0.00000  Uiso   1.00
H137   H     0.99643   0.06600   0.01436   0.00000  Uiso   1.00
H138   H     0.81128   0.19796   0.09600   0.00000  Uiso   1.00
N139   N     0.81362   0.15216   0.23739   0.00000  Uiso   1.00
N140   N     0.85305   0.18117   0.26260   0.00000  Uiso   1.00
O141   O     0.96386   0.24631   0.25309   0.00000  Uiso   1.00
O142   O     0.70281   0.08702   0.24690   0.00000  Uiso   1.00
O143   O     0.72488   0.23702   0.24501   0.00000  Uiso   1.00
O144   O     0.94178   0.09632   0.25498   0.00000  Uiso   1.00
O145   O     0.96995   0.17397   0.32247   0.00000  Uiso   1.00
O146   O     0.69672   0.15937   0.17753   0.00000  Uiso   1.00
O147   O     0.73098   0.16467   0.31439   0.00000  Uiso   1.00
O148   O     0.93569   0.16866   0.18561   0.00000  Uiso   1.00
Zn149  Zn    0.93700   0.17287   0.25539   0.00000  Uiso   1.00
Zn150  Zn    0.72967   0.16046   0.24460   0.00000  Uiso   1.00
Br151  Br    0.08922   0.34408   0.29790   0.00000  Uiso   1.00
Br152  Br    0.24414   0.65595   0.20208   0.00000  Uiso   1.00
C153   C     0.01467   0.59815   0.24863   0.00000  Uiso   1.00
C154   C     0.31209   0.49534   0.15901   0.00000  Uiso   1.00
C155   C     0.03065   0.50579   0.39360   0.00000  Uiso   1.00
C156   C     0.29987   0.48397   0.10723   0.00000  Uiso   1.00
C157   C     0.01081   0.53995   0.47388   0.00000  Uiso   1.00
C158   C     0.30689   0.42772   0.03477   0.00000  Uiso   1.00
C159   C     0.32826   0.53174   0.42448   0.00000  Uiso   1.00
C160   C     0.32889   0.44691   0.08088   0.00000  Uiso   1.00
C161   C     0.07909   0.48432   0.41247   0.00000  Uiso   1.00
C162   C     0.25071   0.50287   0.08714   0.00000  Uiso   1.00
C163   C     0.09573   0.49158   0.46188   0.00000  Uiso   1.00
C164   C     0.31866   0.40185   0.25136   0.00000  Uiso   1.00
C165   C     0.22426   0.47973   0.04396   0.00000  Uiso   1.00
C166   C     0.06214   0.52191   0.49237   0.00000  Uiso   1.00
C167   C     0.25418   0.44322   0.01645   0.00000  Uiso   1.00
C168   C     0.14733   0.47311   0.48065   0.00000  Uiso   1.00
C169   C     0.16880   0.49177   0.02789   0.00000  Uiso   1.00
C170   C     0.13351   0.52056   0.05806   0.00000  Uiso   1.00
C171   C     0.17814   0.43677   0.45379   0.00000  Uiso   1.00
C172   C     0.08086   0.53493   0.04054   0.00000  Uiso   1.00
C173   C     0.23050   0.42187   0.47172   0.00000  Uiso   1.00
C174   C     0.02218   0.65250   0.25631   0.00000  Uiso   1.00
C175   C     0.31116   0.34750   0.24368   0.00000  Uiso   1.00
C176   C     0.02101   0.50361   0.34104   0.00000  Uiso   1.00
H177   H     0.05526   0.55732   0.06454   0.00000  Uiso   1.00
H178   H     0.16178   0.41744   0.41954   0.00000  Uiso   1.00
H179   H     0.16246   0.45800   0.21383   0.00000  Uiso   1.00
H180   H     0.17087   0.54202   0.28615   0.00000  Uiso   1.00
H181   H     0.25252   0.39350   0.45046   0.00000  Uiso   1.00
H182   H     0.23258   0.53434   0.10733   0.00000  Uiso   1.00
H183   H     0.10541   0.46511   0.38714   0.00000  Uiso   1.00
H184   H     0.03385   0.43171   0.09647   0.00000  Uiso   1.00
H185   H     0.28992   0.54791   0.41011   0.00000  Uiso   1.00
H186   H     0.31751   0.56200   0.49724   0.00000  Uiso   1.00
H187   H     0.32976   0.39933   0.01436   0.00000  Uiso   1.00
H188   H     0.14461   0.53129   0.09600   0.00000  Uiso   1.00
N189   N     0.14695   0.48550   0.23739   0.00000  Uiso   1.00
N190   N     0.18638   0.51450   0.26260   0.00000  Uiso   1.00
O191   O     0.29719   0.57964   0.25309   0.00000  Uiso   1.00
O192   O     0.03614   0.42036   0.24690   0.00000  Uiso   1.00
O193   O     0.05822   0.57035   0.24501   0.00000  Uiso   1.00
O194   O     0.27512   0.42965   0.25498   0.00000  Uiso   1.00
O195   O     0.30328   0.50730   0.32247   0.00000  Uiso   1.00
O196   O     0.03005   0.49270   0.17753   0.00000  Uiso   1.00
O197   O     0.06431   0.49801   0.31439   0.00000  Uiso   1.00
O198   O     0.26902   0.50199   0.18561   0.00000  Uiso   1.00
Zn199  Zn    0.27033   0.50621   0.25539   0.00000  Uiso   1.00
Zn200  Zn    0.06300   0.49379   0.24460   0.00000  Uiso   1.00
Br201  Br    0.42255   0.34408   0.29790   0.00000  Uiso   1.00
Br202  Br    0.57747   0.65595   0.20208   0.00000  Uiso   1.00
C203   C     0.34801   0.59815   0.24863   0.00000  Uiso   1.00
C204   C     0.64543   0.49534   0.15901   0.00000  Uiso   1.00
C205   C     0.36398   0.50579   0.39360   0.00000  Uiso   1.00
C206   C     0.63320   0.48397   0.10723   0.00000  Uiso   1.00
C207   C     0.34414   0.53995   0.47388   0.00000  Uiso   1.00
C208   C     0.64022   0.42772   0.03477   0.00000  Uiso   1.00
C209   C     0.66160   0.53174   0.42448   0.00000  Uiso   1.00
C210   C     0.66222   0.44691   0.08088   0.00000  Uiso   1.00
C211   C     0.41242   0.48432   0.41247   0.00000  Uiso   1.00
C212   C     0.58404   0.50287   0.08714   0.00000  Uiso   1.00
C213   C     0.42906   0.49158   0.46188   0.00000  Uiso   1.00
C214   C     0.65199   0.40185   0.25136   0.00000  Uiso   1.00
C215   C     0.55760   0.47973   0.04396   0.00000  Uiso   1.00
C216   C     0.39547   0.52191   0.49237   0.00000  Uiso   1.00
C217   C     0.58751   0.44322   0.01645   0.00000  Uiso   1.00
C218   C     0.48066   0.47311   0.48065   0.00000  Uiso   1.00
C219   C     0.50213   0.49177   0.02789   0.00000  Uiso   1.00
C220   C     0.46685   0.52056   0.05806   0.00000  Uiso   1.00
C221   C     0.51148   0.43677   0.45379   0.00000  Uiso   1.00
C222   C     0.41420   0.53493   0.04054   0.00000  Uiso   1.00
C223   C     0.56383   0.42187   0.47172   0.00000  Uiso   1.00
C224   C     0.35551   0.65250   0.25631   0.00000  Uiso   1.00
C225   C     0.64450   0.34750   0.24368   0.00000  Uiso   1.00
C226   C     0.35434   0.50361   0.34104   0.00000  Uiso   1.00
H227   H     0.38859   0.55732   0.06454   0.00000  Uiso   1.00
H228   H     0.49512   0.41744   0.41954   0.00000  Uiso   1.00
H229   H     0.49580   0.45800   0.21383   0.00000  Uiso   1.00
H230   H     0.50420   0.54202   0.28615   0.00000  Uiso   1.00
H231   H     0.58585   0.39350   0.45046   0.00000  Uiso   1.00
H232   H     0.56592   0.53434   0.10733   0.00000  Uiso   1.00
H233   H     0.43874   0.46511   0.38714   0.00000  Uiso   1.00
H234   H     0.36719   0.43171   0.09647   0.00000  Uiso   1.00
H235   H     0.62326   0.54791   0.41011   0.00000  Uiso   1.00
H236   H     0.65085   0.56200   0.49724   0.00000  Uiso   1.00
H237   H     0.66309   0.39933   0.01436   0.00000  Uiso   1.00
H238   H     0.47795   0.53129   0.09600   0.00000  Uiso   1.00
N239   N     0.48029   0.48550   0.23739   0.00000  Uiso   1.00
N240   N     0.51971   0.51450   0.26260   0.00000  Uiso   1.00
O241   O     0.63052   0.57964   0.25309   0.00000  Uiso   1.00
O242   O     0.36948   0.42036   0.24690   0.00000  Uiso   1.00
O243   O     0.39155   0.57035   0.24501   0.00000  Uiso   1.00
O244   O     0.60845   0.42965   0.25498   0.00000  Uiso   1.00
O245   O     0.63662   0.50730   0.32247   0.00000  Uiso   1.00
O246   O     0.36338   0.49270   0.17753   0.00000  Uiso   1.00
O247   O     0.39764   0.49801   0.31439   0.00000  Uiso   1.00
O248   O     0.60236   0.50199   0.18561   0.00000  Uiso   1.00
Zn249  Zn    0.60366   0.50621   0.25539   0.00000  Uiso   1.00
Zn250  Zn    0.39634   0.49379   0.24460   0.00000  Uiso   1.00
Br251  Br    0.75588   0.34408   0.29790   0.00000  Uiso   1.00
Br252  Br    0.91081   0.65595   0.20208   0.00000  Uiso   1.00
C253   C     0.68134   0.59815   0.24863   0.00000  Uiso   1.00
C254   C     0.97876   0.49534   0.15901   0.00000  Uiso   1.00
C255   C     0.69731   0.50579   0.39360   0.00000  Uiso   1.00
C256   C     0.96654   0.48397   0.10723   0.00000  Uiso   1.00
C257   C     0.67748   0.53995   0.47388   0.00000  Uiso   1.00
C258   C     0.97356   0.42772   0.03477   0.00000  Uiso   1.00
C259   C     0.99493   0.53174   0.42448   0.00000  Uiso   1.00
C260   C     0.99556   0.44691   0.08088   0.00000  Uiso   1.00
C261   C     0.74576   0.48432   0.41247   0.00000  Uiso   1.00
C262   C     0.91737   0.50287   0.08714   0.00000  Uiso   1.00
C263   C     0.76240   0.49158   0.46188   0.00000  Uiso   1.00
C264   C     0.98533   0.40185   0.25136   0.00000  Uiso   1.00
C265   C     0.89093   0.47973   0.04396   0.00000  Uiso   1.00
C266   C     0.72881   0.52191   0.49237   0.00000  Uiso   1.00
C267   C     0.92084   0.44322   0.01645   0.00000  Uiso   1.00
C268   C     0.81400   0.47311   0.48065   0.00000  Uiso   1.00
C269   C     0.83547   0.49177   0.02789   0.00000  Uiso   1.00
C270   C     0.80018   0.52056   0.05806   0.00000  Uiso   1.00
C271   C     0.84481   0.43677   0.45379   0.00000  Uiso   1.00
C272   C     0.74753   0.53493   0.04054   0.00000  Uiso   1.00
C273   C     0.89717   0.42187   0.47172   0.00000  Uiso   1.00
C274   C     0.68885   0.65250   0.25631   0.00000  Uiso   1.00
C275   C     0.97783   0.34750   0.24368   0.00000  Uiso   1.00
C276   C     0.68767   0.50361   0.34104   0.00000  Uiso   1.00
H277   H     0.72192   0.55732   0.06454   0.00000  Uiso   1.00
H278   H     0.82845   0.41744   0.41954   0.00000  Uiso   1.00
H279   H     0.82913   0.45800   0.21383   0.00000  Uiso   1.00
H280   H     0.83754   0.54202   0.28615   0.00000  Uiso   1.00
H281   H     0.91918   0.39350   0.45046   0.00000  Uiso   1.00
H282   H     0.89925   0.53434   0.10733   0.00000  Uiso   1.00
H283   H     0.77208   0.46511   0.38714   0.00000  Uiso   1.00
H284   H     0.70052   0.43171   0.09647   0.00000  Uiso   1.00
H285   H     0.95659   0.54791   0.41011   0.00000  Uiso   1.00
H286   H     0.98418   0.56200   0.49724   0.00000  Uiso   1.00
H287   H     0.99643   0.39933   0.01436   0.00000  Uiso   1.00
H288   H     0.81128   0.53129   0.09600   0.00000  Uiso   1.00
N289   N     0.81362   0.48550   0.23739   0.00000  Uiso   1.00
N290   N     0.85305   0.51450   0.26260   0.00000  Uiso   1.00
O291   O     0.96386   0.57964   0.25309   0.00000  Uiso   1.00
O292   O     0.70281   0.42036   0.24690   0.00000  Uiso   1.00
O293   O     0.72488   0.57035   0.24501   0.00000  Uiso   1.00
O294   O     0.94178   0.42965   0.25498   0.00000  Uiso   1.00
O295   O     0.96995   0.50730   0.32247   0.00000  Uiso   1.00
O296   O     0.69672   0.49270   0.17753   0.00000  Uiso   1.00
O297   O     0.73098   0.49801   0.31439   0.00000  Uiso   1.00
O298   O     0.93569   0.50199   0.18561   0.00000  Uiso   1.00
Zn299  Zn    0.93700   0.50621   0.25539   0.00000  Uiso   1.00
Zn300  Zn    0.72967   0.49379   0.24460   0.00000  Uiso   1.00
Br301  Br    0.08922   0.67741   0.29790   0.00000  Uiso   1.00
Br302  Br    0.24414   0.98928   0.20208   0.00000  Uiso   1.00
C303   C     0.01467   0.93149   0.24863   0.00000  Uiso   1.00
C304   C     0.31209   0.82867   0.15901   0.00000  Uiso   1.00
C305   C     0.03065   0.83912   0.39360   0.00000  Uiso   1.00
C306   C     0.29987   0.81730   0.10723   0.00000  Uiso   1.00
C307   C     0.01081   0.87329   0.47388   0.00000  Uiso   1.00
C308   C     0.30689   0.76105   0.03477   0.00000  Uiso   1.00
C309   C     0.32826   0.86507   0.42448   0.00000  Uiso   1.00
C310   C     0.32889   0.78024   0.08088   0.00000  Uiso   1.00
C311   C     0.07909   0.81766   0.41247   0.00000  Uiso   1.00
C312   C     0.25071   0.83620   0.08714   0.00000  Uiso   1.00
C313   C     0.09573   0.82491   0.46188   0.00000  Uiso   1.00
C314   C     0.31866   0.73518   0.25136   0.00000  Uiso   1.00
C315   C     0.22426   0.81306   0.04396   0.00000  Uiso   1.00
C316   C     0.06214   0.85524   0.49237   0.00000  Uiso   1.00
C317   C     0.25418   0.77656   0.01645   0.00000  Uiso   1.00
C318   C     0.14733   0.80644   0.48065   0.00000  Uiso   1.00
C319   C     0.16880   0.82510   0.02789   0.00000  Uiso   1.00
C320   C     0.13351   0.85389   0.05806   0.00000  Uiso   1.00
C321   C     0.17814   0.77010   0.45379   0.00000  Uiso   1.00
C322   C     0.08086   0.86826   0.04054   0.00000  Uiso   1.00
C323   C     0.23050   0.75520   0.47172   0.00000  Uiso   1.00
C324   C     0.02218   0.98584   0.25631   0.00000  Uiso   1.00
C325   C     0.31116   0.68084   0.24368   0.00000  Uiso   1.00
C326   C     0.02101   0.83694   0.34104   0.00000  Uiso   1.00
H327   H     0.05526   0.89066   0.06454   0.00000  Uiso   1.00
H328   H     0.16178   0.75077   0.41954   0.00000  Uiso   1.00
H329   H     0.16246   0.79133   0.21383   0.00000  Uiso   1.00
H330   H     0.17087   0.87535   0.28615   0.00000  Uiso   1.00
H331   H     0.25252   0.72684   0.45046   0.00000  Uiso   1.00
H332   H     0.23258   0.86767   0.10733   0.00000  Uiso   1.00
H333   H     0.10541   0.79845   0.38714   0.00000  Uiso   1.00
H334   H     0.03385   0.76504   0.09647   0.00000  Uiso   1.00
H335   H     0.28992   0.88124   0.41011   0.00000  Uiso   1.00
H336   H     0.31751   0.89533   0.49724   0.00000  Uiso   1.00
H337   H     0.32976   0.73266   0.01436   0.00000  Uiso   1.00
H338   H     0.14461   0.86462   0.09600   0.00000  Uiso   1.00
N339   N     0.14695   0.81883   0.23739   0.00000  Uiso   1.00
N340   N     0.18638   0.84784   0.26260   0.00000  Uiso   1.00
O341   O     0.29719   0.91298   0.25309   0.00000  Uiso   1.00
O342   O     0.03614   0.75369   0.24690   0.00000  Uiso   1.00
O343   O     0.05822   0.90368   0.24501   0.00000  Uiso   1.00
O344   O     0.27512   0.76298   0.25498   0.00000  Uiso   1.00
O345   O     0.30328   0.84063   0.32247   0.00000  Uiso   1.00
O346   O     0.03005   0.82603   0.17753   0.00000  Uiso   1.00
O347   O     0.06431   0.83134   0.31439   0.00000  Uiso   1.00
O348   O     0.26902   0.83533   0.18561   0.00000  Uiso   1.00
Zn349  Zn    0.27033   0.83954   0.25539   0.00000  Uiso   1.00
Zn350  Zn    0.06300   0.82713   0.24460   0.00000  Uiso   1.00
Br351  Br    0.42255   0.67741   0.29790   0.00000  Uiso   1.00
Br352  Br    0.57747   0.98928   0.20208   0.00000  Uiso   1.00
C353   C     0.34801   0.93149   0.24863   0.00000  Uiso   1.00
C354   C     0.64543   0.82867   0.15901   0.00000  Uiso   1.00
C355   C     0.36398   0.83912   0.39360   0.00000  Uiso   1.00
C356   C     0.63320   0.81730   0.10723   0.00000  Uiso   1.00
C357   C     0.34414   0.87329   0.47388   0.00000  Uiso   1.00
C358   C     0.64022   0.76105   0.03477   0.00000  Uiso   1.00
C359   C     0.66160   0.86507   0.42448   0.00000  Uiso   1.00
C360   C     0.66222   0.78024   0.08088   0.00000  Uiso   1.00
C361   C     0.41242   0.81766   0.41247   0.00000  Uiso   1.00
C362   C     0.58404   0.83620   0.08714   0.00000  Uiso   1.00
C363   C     0.42906   0.82491   0.46188   0.00000  Uiso   1.00
C364   C     0.65199   0.73518   0.25136   0.00000  Uiso   1.00
C365   C     0.55760   0.81306   0.04396   0.00000  Uiso   1.00
C366   C     0.39547   0.85524   0.49237   0.00000  Uiso   1.00
C367   C     0.58751   0.77656   0.01645   0.00000  Uiso   1.00
C368   C     0.48066   0.80644   0.48065   0.00000  Uiso   1.00
C369   C     0.50213   0.82510   0.02789   0.00000  Uiso   1.00
C370   C     0.46685   0.85389   0.05806   0.00000  Uiso   1.00
C371   C     0.51148   0.77010   0.45379   0.00000  Uiso   1.00
C372   C     0.41420   0.86826   0.04054   0.00000  Uiso   1.00
C373   C     0.56383   0.75520   0.47172   0.00000  Uiso   1.00
C374   C     0.35551   0.98584   0.25631   0.00000  Uiso   1.00
C375   C     0.64450   0.68084   0.24368   0.00000  Uiso   1.00
C376   C     0.35434   0.83694   0.34104   0.00000  Uiso   1.00
H377   H     0.38859   0.89066   0.06454   0.00000  Uiso   1.00
H378   H     0.49512   0.75077   0.41954   0.00000  Uiso   1.00
H379   H     0.49580   0.79133   0.21383   0.00000  Uiso   1.00
H380   H     0.50420   0.87535   0.28615   0.00000  Uiso   1.00
H381   H     0.58585   0.72684   0.45046   0.00000  Uiso   1.00
H382   H     0.56592   0.86767   0.10733   0.00000  Uiso   1.00
H383   H     0.43874   0.79845   0.38714   0.00000  Uiso   1.00
H384   H     0.36719   0.76504   0.09647   0.00000  Uiso   1.00
H385   H     0.62326   0.88124   0.41011   0.00000  Uiso   1.00
H386   H     0.65085   0.89533   0.49724   0.00000  Uiso   1.00
H387   H     0.66309   0.73266   0.01436   0.00000  Uiso   1.00
H388   H     0.47795   0.86462   0.09600   0.00000  Uiso   1.00
N389   N     0.48029   0.81883   0.23739   0.00000  Uiso   1.00
N390   N     0.51971   0.84784   0.26260   0.00000  Uiso   1.00
O391   O     0.63052   0.91298   0.25309   0.00000  Uiso   1.00
O392   O     0.36948   0.75369   0.24690   0.00000  Uiso   1.00
O393   O     0.39155   0.90368   0.24501   0.00000  Uiso   1.00
O394   O     0.60845   0.76298   0.25498   0.00000  Uiso   1.00
O395   O     0.63662   0.84063   0.32247   0.00000  Uiso   1.00
O396   O     0.36338   0.82603   0.17753   0.00000  Uiso   1.00
O397   O     0.39764   0.83134   0.31439   0.00000  Uiso   1.00
O398   O     0.60236   0.83533   0.18561   0.00000  Uiso   1.00
Zn399  Zn    0.60366   0.83954   0.25539   0.00000  Uiso   1.00
Zn400  Zn    0.39634   0.82713   0.24460   0.00000  Uiso   1.00
Br401  Br    0.75588   0.67741   0.29790   0.00000  Uiso   1.00
Br402  Br    0.91081   0.98928   0.20208   0.00000  Uiso   1.00
C403   C     0.68134   0.93149   0.24863   0.00000  Uiso   1.00
C404   C     0.97876   0.82867   0.15901   0.00000  Uiso   1.00
C405   C     0.69731   0.83912   0.39360   0.00000  Uiso   1.00
C406   C     0.96654   0.81730   0.10723   0.00000  Uiso   1.00
C407   C     0.67748   0.87329   0.47388   0.00000  Uiso   1.00
C408   C     0.97356   0.76105   0.03477   0.00000  Uiso   1.00
C409   C     0.99493   0.86507   0.42448   0.00000  Uiso   1.00
C410   C     0.99556   0.78024   0.08088   0.00000  Uiso   1.00
C411   C     0.74576   0.81766   0.41247   0.00000  Uiso   1.00
C412   C     0.91737   0.83620   0.08714   0.00000  Uiso   1.00
C413   C     0.76240   0.82491   0.46188   0.00000  Uiso   1.00
C414   C     0.98533   0.73518   0.25136   0.00000  Uiso   1.00
C415   C     0.89093   0.81306   0.04396   0.00000  Uiso   1.00
C416   C     0.72881   0.85524   0.49237   0.00000  Uiso   1.00
C417   C     0.92084   0.77656   0.01645   0.00000  Uiso   1.00
C418   C     0.81400   0.80644   0.48065   0.00000  Uiso   1.00
C419   C     0.83547   0.82510   0.02789   0.00000  Uiso   1.00
C420   C     0.80018   0.85389   0.05806   0.00000  Uiso   1.00
C421   C     0.84481   0.77010   0.45379   0.00000  Uiso   1.00
C422   C     0.74753   0.86826   0.04054   0.00000  Uiso   1.00
C423   C     0.89717   0.75520   0.47172   0.00000  Uiso   1.00
C424   C     0.68885   0.98584   0.25631   0.00000  Uiso   1.00
C425   C     0.97783   0.68084   0.24368   0.00000  Uiso   1.00
C426   C     0.68767   0.83694   0.34104   0.00000  Uiso   1.00
H427   H     0.72192   0.89066   0.06454   0.00000  Uiso   1.00
H428   H     0.82845   0.75077   0.41954   0.00000  Uiso   1.00
H429   H     0.82913   0.79133   0.21383   0.00000  Uiso   1.00
H430   H     0.83754   0.87535   0.28615   0.00000  Uiso   1.00
H431   H     0.91918   0.72684   0.45046   0.00000  Uiso   1.00
H432   H     0.89925   0.86767   0.10733   0.00000  Uiso   1.00
H433   H     0.77208   0.79845   0.38714   0.00000  Uiso   1.00
H434   H     0.70052   0.76504   0.09647   0.00000  Uiso   1.00
H435   H     0.95659   0.88124   0.41011   0.00000  Uiso   1.00
H436   H     0.98418   0.89533   0.49724   0.00000  Uiso   1.00
H437   H     0.99643   0.73266   0.01436   0.00000  Uiso   1.00
H438   H     0.81128   0.86462   0.09600   0.00000  Uiso   1.00
N439   N     0.81362   0.81883   0.23739   0.00000  Uiso   1.00
N440   N     0.85305   0.84784   0.26260   0.00000  Uiso   1.00
O441   O     0.96386   0.91298   0.25309   0.00000  Uiso   1.00
O442   O     0.70281   0.75369   0.24690   0.00000  Uiso   1.00
O443   O     0.72488   0.90368   0.24501   0.00000  Uiso   1.00
O444   O     0.94178   0.76298   0.25498   0.00000  Uiso   1.00
O445   O     0.96995   0.84063   0.32247   0.00000  Uiso   1.00
O446   O     0.69672   0.82603   0.17753   0.00000  Uiso   1.00
O447   O     0.73098   0.83134   0.31439   0.00000  Uiso   1.00
O448   O     0.93569   0.83533   0.18561   0.00000  Uiso   1.00
Zn449  Zn    0.93700   0.83954   0.25539   0.00000  Uiso   1.00
Zn450  Zn    0.72967   0.82713   0.24460   0.00000  Uiso   1.00
Br451  Br    0.08922   0.01075   0.79790   0.00000  Uiso   1.00
Br452  Br    0.24414   0.32261   0.70208   0.00000  Uiso   1.00
C453   C     0.01467   0.26482   0.74863   0.00000  Uiso   1.00
C454   C     0.31209   0.16200   0.65901   0.00000  Uiso   1.00
C455   C     0.03065   0.17246   0.89360   0.00000  Uiso   1.00
C456   C     0.29987   0.15064   0.60723   0.00000  Uiso   1.00
C457   C     0.01081   0.20662   0.97388   0.00000  Uiso   1.00
C458   C     0.30689   0.09439   0.53477   0.00000  Uiso   1.00
C459   C     0.32826   0.19840   0.92448   0.00000  Uiso   1.00
C460   C     0.32889   0.11358   0.58088   0.00000  Uiso   1.00
C461   C     0.07909   0.15099   0.91247   0.00000  Uiso   1.00
C462   C     0.25071   0.16953   0.58714   0.00000  Uiso   1.00
C463   C     0.09573   0.15824   0.96188   0.00000  Uiso   1.00
C464   C     0.31866   0.06851   0.75136   0.00000  Uiso   1.00
C465   C     0.22426   0.14639   0.54396   0.00000  Uiso   1.00
C466   C     0.06214   0.18858   0.99237   0.00000  Uiso   1.00
C467   C     0.25418   0.10989   0.51645   0.00000  Uiso   1.00
C468   C     0.14733   0.13978   0.98065   0.00000  Uiso   1.00
C469   C     0.16880   0.15844   0.52789   0.00000  Uiso   1.00
C470   C     0.13351   0.18723   0.55806   0.00000  Uiso   1.00
C471   C     0.17814   0.10344   0.95379   0.00000  Uiso   1.00
C472   C     0.08086   0.20159   0.54054   0.00000  Uiso   1.00
C473   C     0.23050   0.08853   0.97172   0.00000  Uiso   1.00
C474   C     0.02218   0.31917   0.75631   0.00000  Uiso   1.00
C475   C     0.31116   0.01417   0.74368   0.00000  Uiso   1.00
C476   C     0.02101   0.17028   0.84104   0.00000  Uiso   1.00
H477   H     0.05526   0.22399   0.56454   0.00000  Uiso   1.00
H478   H     0.16178   0.08410   0.91954   0.00000  Uiso   1.00
H479   H     0.16246   0.12467   0.71383   0.00000  Uiso   1.00
H480   H     0.17087   0.20868   0.78615   0.00000  Uiso   1.00
H481   H     0.25252   0.06017   0.95046   0.00000  Uiso   1.00
H482   H     0.23258   0.20101   0.60733   0.00000  Uiso   1.00
H483   H     0.10541   0.13178   0.88714   0.00000  Uiso   1.00
H484   H     0.03385   0.09838   0.59647   0.00000  Uiso   1.00
H485   H     0.28992   0.21457   0.91011   0.00000  Uiso   1.00
H486   H     0.31751   0.22866   0.99724   0.00000  Uiso   1.00
H487   H     0.32976   0.06600   0.51436   0.00000  Uiso   1.00
H488   H     0.14461   0.19796   0.59600   0.00000  Uiso   1.00
N489   N     0.14695   0.15216   0.73739   0.00000  Uiso   1.00
N490   N     0.18638   0.18117   0.76260   0.00000  Uiso   1.00
O491   O     0.29719   0.24631   0.75309   0.00000  Uiso   1.00
O492   O     0.03614   0.08702   0.74690   0.00000  Uiso   1.00
O493   O     0.05822   0.23702   0.74501   0.00000  Uiso   1.00
O494   O     0.27512   0.09632   0.75498   0.00000  Uiso   1.00
O495   O     0.30328   0.17397   0.82247   0.00000  Uiso   1.00
O496   O     0.03005   0.15937   0.67753   0.00000  Uiso   1.00
O497   O     0.06431   0.16467   0.81439   0.00000  Uiso   1.00
O498   O     0.26902   0.16866   0.68561   0.00000  Uiso   1.00
Zn499  Zn    0.27033   0.17287   0.75539   0.00000  Uiso   1.00
Zn500  Zn    0.06300   0.16046   0.74460   0.00000  Uiso   1.00
Br501  Br    0.42255   0.01075   0.79790   0.00000  Uiso   1.00
Br502  Br    0.57747   0.32261   0.70208   0.00000  Uiso   1.00
C503   C     0.34801   0.26482   0.74863   0.00000  Uiso   1.00
C504   C     0.64543   0.16200   0.65901   0.00000  Uiso   1.00
C505   C     0.36398   0.17246   0.89360   0.00000  Uiso   1.00
C506   C     0.63320   0.15064   0.60723   0.00000  Uiso   1.00
C507   C     0.34414   0.20662   0.97388   0.00000  Uiso   1.00
C508   C     0.64022   0.09439   0.53477   0.00000  Uiso   1.00
C509   C     0.66160   0.19840   0.92448   0.00000  Uiso   1.00
C510   C     0.66222   0.11358   0.58088   0.00000  Uiso   1.00
C511   C     0.41242   0.15099   0.91247   0.00000  Uiso   1.00
C512   C     0.58404   0.16953   0.58714   0.00000  Uiso   1.00
C513   C     0.42906   0.15824   0.96188   0.00000  Uiso   1.00
C514   C     0.65199   0.06851   0.75136   0.00000  Uiso   1.00
C515   C     0.55760   0.14639   0.54396   0.00000  Uiso   1.00
C516   C     0.39547   0.18858   0.99237   0.00000  Uiso   1.00
C517   C     0.58751   0.10989   0.51645   0.00000  Uiso   1.00
C518   C     0.48066   0.13978   0.98065   0.00000  Uiso   1.00
C519   C     0.50213   0.15844   0.52789   0.00000  Uiso   1.00
C520   C     0.46685   0.18723   0.55806   0.00000  Uiso   1.00
C521   C     0.51148   0.10344   0.95379   0.00000  Uiso   1.00
C522   C     0.41420   0.20159   0.54054   0.00000  Uiso   1.00
C523   C     0.56383   0.08853   0.97172   0.00000  Uiso   1.00
C524   C     0.35551   0.31917   0.75631   0.00000  Uiso   1.00
C525   C     0.64450   0.01417   0.74368   0.00000  Uiso   1.00
C526   C     0.35434   0.17028   0.84104   0.00000  Uiso   1.00
H527   H     0.38859   0.22399   0.56454   0.00000  Uiso   1.00
H528   H     0.49512   0.08410   0.91954   0.00000  Uiso   1.00
H529   H     0.49580   0.12467   0.71383   0.00000  Uiso   1.00
H530   H     0.50420   0.20868   0.78615   0.00000  Uiso   1.00
H531   H     0.58585   0.06017   0.95046   0.00000  Uiso   1.00
H532   H     0.56592   0.20101   0.60733   0.00000  Uiso   1.00
H533   H     0.43874   0.13178   0.88714   0.00000  Uiso   1.00
H534   H     0.36719   0.09838   0.59647   0.00000  Uiso   1.00
H535   H     0.62326   0.21457   0.91011   0.00000  Uiso   1.00
H536   H     0.65085   0.22866   0.99724   0.00000  Uiso   1.00
H537   H     0.66309   0.06600   0.51436   0.00000  Uiso   1.00
H538   H     0.47795   0.19796   0.59600   0.00000  Uiso   1.00
N539   N     0.48029   0.15216   0.73739   0.00000  Uiso   1.00
N540   N     0.51971   0.18117   0.76260   0.00000  Uiso   1.00
O541   O     0.63052   0.24631   0.75309   0.00000  Uiso   1.00
O542   O     0.36948   0.08702   0.74690   0.00000  Uiso   1.00
O543   O     0.39155   0.23702   0.74501   0.00000  Uiso   1.00
O544   O     0.60845   0.09632   0.75498   0.00000  Uiso   1.00
O545   O     0.63662   0.17397   0.82247   0.00000  Uiso   1.00
O546   O     0.36338   0.15937   0.67753   0.00000  Uiso   1.00
O547   O     0.39764   0.16467   0.81439   0.00000  Uiso   1.00
O548   O     0.60236   0.16866   0.68561   0.00000  Uiso   1.00
Zn549  Zn    0.60366   0.17287   0.75539   0.00000  Uiso   1.00
Zn550  Zn    0.39634   0.16046   0.74460   0.00000  Uiso   1.00
Br551  Br    0.75588   0.01075   0.79790   0.00000  Uiso   1.00
Br552  Br    0.91081   0.32261   0.70208   0.00000  Uiso   1.00
C553   C     0.68134   0.26482   0.74863   0.00000  Uiso   1.00
C554   C     0.97876   0.16200   0.65901   0.00000  Uiso   1.00
C555   C     0.69731   0.17246   0.89360   0.00000  Uiso   1.00
C556   C     0.96654   0.15064   0.60723   0.00000  Uiso   1.00
C557   C     0.67748   0.20662   0.97388   0.00000  Uiso   1.00
C558   C     0.97356   0.09439   0.53477   0.00000  Uiso   1.00
C559   C     0.99493   0.19840   0.92448   0.00000  Uiso   1.00
C560   C     0.99556   0.11358   0.58088   0.00000  Uiso   1.00
C561   C     0.74576   0.15099   0.91247   0.00000  Uiso   1.00
C562   C     0.91737   0.16953   0.58714   0.00000  Uiso   1.00
C563   C     0.76240   0.15824   0.96188   0.00000  Uiso   1.00
C564   C     0.98533   0.06851   0.75136   0.00000  Uiso   1.00
C565   C     0.89093   0.14639   0.54396   0.00000  Uiso   1.00
C566   C     0.72881   0.18858   0.99237   0.00000  Uiso   1.00
C567   C     0.92084   0.10989   0.51645   0.00000  Uiso   1.00
C568   C     0.81400   0.13978   0.98065   0.00000  Uiso   1.00
C569   C     0.83547   0.15844   0.52789   0.00000  Uiso   1.00
C570   C     0.80018   0.18723   0.55806   0.00000  Uiso   1.00
C571   C     0.84481   0.10344   0.95379   0.00000  Uiso   1.00
C572   C     0.74753   0.20159   0.54054   0.00000  Uiso   1.00
C573   C     0.89717   0.08853   0.97172   0.00000  Uiso   1.00
C574   C     0.68885   0.31917   0.75631   0.00000  Uiso   1.00
C575   C     0.97783   0.01417   0.74368   0.00000  Uiso   1.00
C576   C     0.68767   0.17028   0.84104   0.00000  Uiso   1.00
H577   H     0.72192   0.22399   0.56454   0.00000  Uiso   1.00
H578   H     0.82845   0.08410   0.91954   0.00000  Uiso   1.00
H579   H     0.82913   0.12467   0.71383   0.00000  Uiso   1.00
H580   H     0.83754   0.20868   0.78615   0.00000  Uiso   1.00
H581   H     0.91918   0.06017   0.95046   0.00000  Uiso   1.00
H582   H     0.89925   0.20101   0.60733   0.00000  Uiso   1.00
H583   H     0.77208   0.13178   0.88714   0.00000  Uiso   1.00
H584   H     0.70052   0.09838   0.59647   0.00000  Uiso   1.00
H585   H     0.95659   0.21457   0.91011   0.00000  Uiso   1.00
H586   H     0.98418   0.22866   0.99724   0.00000  Uiso   1.00
H587   H     0.99643   0.06600   0.51436   0.00000  Uiso   1.00
H588   H     0.81128   0.19796   0.59600   0.00000  Uiso   1.00
N589   N     0.81362   0.15216   0.73739   0.00000  Uiso   1.00
N590   N     0.85305   0.18117   0.76260   0.00000  Uiso   1.00
O591   O     0.96386   0.24631   0.75309   0.00000  Uiso   1.00
O592   O     0.70281   0.08702   0.74690   0.00000  Uiso   1.00
O593   O     0.72488   0.23702   0.74501   0.00000  Uiso   1.00
O594   O     0.94178   0.09632   0.75498   0.00000  Uiso   1.00
O595   O     0.96995   0.17397   0.82247   0.00000  Uiso   1.00
O596   O     0.69672   0.15937   0.67753   0.00000  Uiso   1.00
O597   O     0.73098   0.16467   0.81439   0.00000  Uiso   1.00
O598   O     0.93569   0.16866   0.68561   0.00000  Uiso   1.00
Zn599  Zn    0.93700   0.17287   0.75539   0.00000  Uiso   1.00
Zn600  Zn    0.72967   0.16046   0.74460   0.00000  Uiso   1.00
Br601  Br    0.08922   0.34408   0.79790   0.00000  Uiso   1.00
Br602  Br    0.24414   0.65595   0.70208   0.00000  Uiso   1.00
C603   C     0.01467   0.59815   0.74863   0.00000  Uiso   1.00
C604   C     0.31209   0.49534   0.65901   0.00000  Uiso   1.00
C605   C     0.03065   0.50579   0.89360   0.00000  Uiso   1.00
C606   C     0.29987   0.48397   0.60723   0.00000  Uiso   1.00
C607   C     0.01081   0.53995   0.97388   0.00000  Uiso   1.00
C608   C     0.30689   0.42772   0.53477   0.00000  Uiso   1.00
C609   C     0.32826   0.53174   0.92448   0.00000  Uiso   1.00
C610   C     0.32889   0.44691   0.58088   0.00000  Uiso   1.00
C611   C     0.07909   0.48432   0.91247   0.00000  Uiso   1.00
C612   C     0.25071   0.50287   0.58714   0.00000  Uiso   1.00
C613   C     0.09573   0.49158   0.96188   0.00000  Uiso   1.00
C614   C     0.31866   0.40185   0.75136   0.00000  Uiso   1.00
C615   C     0.22426   0.47973   0.54396   0.00000  Uiso   1.00
C616   C     0.06214   0.52191   0.99237   0.00000  Uiso   1.00
C617   C     0.25418   0.44322   0.51645   0.00000  Uiso   1.00
C618   C     0.14733   0.47311   0.98065   0.00000  Uiso   1.00
C619   C     0.16880   0.49177   0.52789   0.00000  Uiso   1.00
C620   C     0.13351   0.52056   0.55806   0.00000  Uiso   1.00
C621   C     0.17814   0.43677   0.95379   0.00000  Uiso   1.00
C622   C     0.08086   0.53493   0.54054   0.00000  Uiso   1.00
C623   C     0.23050   0.42187   0.97172   0.00000  Uiso   1.00
C624   C     0.02218   0.65250   0.75631   0.00000  Uiso   1.00
C625   C     0.31116   0.34750   0.74368   0.00000  Uiso   1.00
C626   C     0.02101   0.50361   0.84104   0.00000  Uiso   1.00
H627   H     0.05526   0.55732   0.56454   0.00000  Uiso   1.00
H628   H     0.16178   0.41744   0.91954   0.00000  Uiso   1.00
H629   H     0.16246   0.45800   0.71383   0.00000  Uiso   1.00
H630   H     0.17087   0.54202   0.78615   0.00000  Uiso   1.00
H631   H     0.25252   0.39350   0.95046   0.00000  Uiso   1.00
H632   H     0.23258   0.53434   0.60733   0.00000  Uiso   1.00
H633   H     0.10541   0.46511   0.88714   0.00000  Uiso   1.00
H634   H     0.03385   0.43171   0.59647   0.00000  Uiso   1.00
H635   H     0.28992   0.54791   0.91011   0.00000  Uiso   1.00
H636   H     0.31751   0.56200   0.99724   0.00000  Uiso   1.00
H637   H     0.32976   0.39933   0.51436   0.00000  Uiso   1.00
H638   H     0.14461   0.53129   0.59600   0.00000  Uiso   1.00
N639   N     0.14695   0.48550   0.73739   0.00000  Uiso   1.00
N640   N     0.18638   0.51450   0.76260   0.00000  Uiso   1.00
O641   O     0.29719   0.57964   0.75309   0.00000  Uiso   1.00
O642   O     0.03614   0.42036   0.74690   0.00000  Uiso   1.00
O643   O     0.05822   0.57035   0.74501   0.00000  Uiso   1.00
O644   O     0.27512   0.42965   0.75498   0.00000  Uiso   1.00
O645   O     0.30328   0.50730   0.82247   0.00000  Uiso   1.00
O646   O     0.03005   0.49270   0.67753   0.00000  Uiso   1.00
O647   O     0.06431   0.49801   0.81439   0.00000  Uiso   1.00
O648   O     0.26902   0.50199   0.68561   0.00000  Uiso   1.00
Zn649  Zn    0.27033   0.50621   0.75539   0.00000  Uiso   1.00
Zn650  Zn    0.06300   0.49379   0.74460   0.00000  Uiso   1.00
Br651  Br    0.42255   0.34408   0.79790   0.00000  Uiso   1.00
Br652  Br    0.57747   0.65595   0.70208   0.00000  Uiso   1.00
C653   C     0.34801   0.59815   0.74863   0.00000  Uiso   1.00
C654   C     0.64543   0.49534   0.65901   0.00000  Uiso   1.00
C655   C     0.36398   0.50579   0.89360   0.00000  Uiso   1.00
C656   C     0.63320   0.48397   0.60723   0.00000  Uiso   1.00
C657   C     0.34414   0.53995   0.97388   0.00000  Uiso   1.00
C658   C     0.64022   0.42772   0.53477   0.00000  Uiso   1.00
C659   C     0.66160   0.53174   0.92448   0.00000  Uiso   1.00
C660   C     0.66222   0.44691   0.58088   0.00000  Uiso   1.00
C661   C     0.41242   0.48432   0.91247   0.00000  Uiso   1.00
C662   C     0.58404   0.50287   0.58714   0.00000  Uiso   1.00
C663   C     0.42906   0.49158   0.96188   0.00000  Uiso   1.00
C664   C     0.65199   0.40185   0.75136   0.00000  Uiso   1.00
C665   C     0.55760   0.47973   0.54396   0.00000  Uiso   1.00
C666   C     0.39547   0.52191   0.99237   0.00000  Uiso   1.00
C667   C     0.58751   0.44322   0.51645   0.00000  Uiso   1.00
C668   C     0.48066   0.47311   0.98065   0.00000  Uiso   1.00
C669   C     0.50213   0.49177   0.52789   0.00000  Uiso   1.00
C670   C     0.46685   0.52056   0.55806   0.00000  Uiso   1.00
C671   C     0.51148   0.43677   0.95379   0.00000  Uiso   1.00
C672   C     0.41420   0.53493   0.54054   0.00000  Uiso   1.00
C673   C     0.56383   0.42187   0.97172   0.00000  Uiso   1.00
C674   C     0.35551   0.65250   0.75631   0.00000  Uiso   1.00
C675   C     0.64450   0.34750   0.74368   0.00000  Uiso   1.00
C676   C     0.35434   0.50361   0.84104   0.00000  Uiso   1.00
H677   H     0.38859   0.55732   0.56454   0.00000  Uiso   1.00
H678   H     0.49512   0.41744   0.91954   0.00000  Uiso   1.00
H679   H     0.49580   0.45800   0.71383   0.00000  Uiso   1.00
H680   H     0.50420   0.54202   0.78615   0.00000  Uiso   1.00
H681   H     0.58585   0.39350   0.95046   0.00000  Uiso   1.00
H682   H     0.56592   0.53434   0.60733   0.00000  Uiso   1.00
H683   H     0.43874   0.46511   0.88714   0.00000  Uiso   1.00
H684   H     0.36719   0.43171   0.59647   0.00000  Uiso   1.00
H685   H     0.62326   0.54791   0.91011   0.00000  Uiso   1.00
H686   H     0.65085   0.56200   0.99724   0.00000  Uiso   1.00
H687   H     0.66309   0.39933   0.51436   0.00000  Uiso   1.00
H688   H     0.47795   0.53129   0.59600   0.00000  Uiso   1.00
N689   N     0.48029   0.48550   0.73739   0.00000  Uiso   1.00
N690   N     0.51971   0.51450   0.76260   0.00000  Uiso   1.00
O691   O     0.63052   0.57964   0.75309   0.00000  Uiso   1.00
O692   O     0.36948   0.42036   0.74690   0.00000  Uiso   1.00
O693   O     0.39155   0.57035   0.74501   0.00000  Uiso   1.00
O694   O     0.60845   0.42965   0.75498   0.00000  Uiso   1.00
O695   O     0.63662   0.50730   0.82247   0.00000  Uiso   1.00
O696   O     0.36338   0.49270   0.67753   0.00000  Uiso   1.00
O697   O     0.39764   0.49801   0.81439   0.00000  Uiso   1.00
O698   O     0.60236   0.50199   0.68561   0.00000  Uiso   1.00
Zn699  Zn    0.60366   0.50621   0.75539   0.00000  Uiso   1.00
Zn700  Zn    0.39634   0.49379   0.74460   0.00000  Uiso   1.00
Br701  Br    0.75588   0.34408   0.79790   0.00000  Uiso   1.00
Br702  Br    0.91081   0.65595   0.70208   0.00000  Uiso   1.00
C703   C     0.68134   0.59815   0.74863   0.00000  Uiso   1.00
C704   C     0.97876   0.49534   0.65901   0.00000  Uiso   1.00
C705   C     0.69731   0.50579   0.89360   0.00000  Uiso   1.00
C706   C     0.96654   0.48397   0.60723   0.00000  Uiso   1.00
C707   C     0.67748   0.53995   0.97388   0.00000  Uiso   1.00
C708   C     0.97356   0.42772   0.53477   0.00000  Uiso   1.00
C709   C     0.99493   0.53174   0.92448   0.00000  Uiso   1.00
C710   C     0.99556   0.44691   0.58088   0.00000  Uiso   1.00
C711   C     0.74576   0.48432   0.91247   0.00000  Uiso   1.00
C712   C     0.91737   0.50287   0.58714   0.00000  Uiso   1.00
C713   C     0.76240   0.49158   0.96188   0.00000  Uiso   1.00
C714   C     0.98533   0.40185   0.75136   0.00000  Uiso   1.00
C715   C     0.89093   0.47973   0.54396   0.00000  Uiso   1.00
C716   C     0.72881   0.52191   0.99237   0.00000  Uiso   1.00
C717   C     0.92084   0.44322   0.51645   0.00000  Uiso   1.00
C718   C     0.81400   0.47311   0.98065   0.00000  Uiso   1.00
C719   C     0.83547   0.49177   0.52789   0.00000  Uiso   1.00
C720   C     0.80018   0.52056   0.55806   0.00000  Uiso   1.00
C721   C     0.84481   0.43677   0.95379   0.00000  Uiso   1.00
C722   C     0.74753   0.53493   0.54054   0.00000  Uiso   1.00
C723   C     0.89717   0.42187   0.97172   0.00000  Uiso   1.00
C724   C     0.68885   0.65250   0.75631   0.00000  Uiso   1.00
C725   C     0.97783   0.34750   0.74368   0.00000  Uiso   1.00
C726   C     0.68767   0.50361   0.84104   0.00000  Uiso   1.00
H727   H     0.72192   0.55732   0.56454   0.00000  Uiso   1.00
H728   H     0.82845   0.41744   0.91954   0.00000  Uiso   1.00
H729   H     0.82913   0.45800   0.71383   0.00000  Uiso   1.00
H730   H     0.83754   0.54202   0.78615   0.00000  Uiso   1.00
H731   H     0.91918   0.39350   0.95046   0.00000  Uiso   1.00
H732   H     0.89925   0.53434   0.60733   0.00000  Uiso   1.00
H733   H     0.77208   0.46511   0.88714   0.00000  Uiso   1.00
H734   H     0.70052   0.43171   0.59647   0.00000  Uiso   1.00
H735   H     0.95659   0.54791   0.91011   0.00000  Uiso   1.00
H736   H     0.98418   0.56200   0.99724   0.00000  Uiso   1.00
H737   H     0.99643   0.39933   0.51436   0.00000  Uiso   1.00
H738   H     0.81128   0.53129   0.59600   0.00000  Uiso   1.00
N739   N     0.81362   0.48550   0.73739   0.00000  Uiso   1.00
N740   N     0.85305   0.51450   0.76260   0.00000  Uiso   1.00
O741   O     0.96386   0.57964   0.75309   0.00000  Uiso   1.00
O742   O     0.70281   0.42036   0.74690   0.00000  Uiso   1.00
O743   O     0.72488   0.57035   0.74501   0.00000  Uiso   1.00
O744   O     0.94178   0.42965   0.75498   0.00000  Uiso   1.00
O745   O     0.96995   0.50730   0.82247   0.00000  Uiso   1.00
O746   O     0.69672   0.49270   0.67753   0.00000  Uiso   1.00
O747   O     0.73098   0.49801   0.81439   0.00000  Uiso   1.00
O748   O     0.93569   0.50199   0.68561   0.00000  Uiso   1.00
Zn749  Zn    0.93700   0.50621   0.75539   0.00000  Uiso   1.00
Zn750  Zn    0.72967   0.49379   0.74460   0.00000  Uiso   1.00
Br751  Br    0.08922   0.67741   0.79790   0.00000  Uiso   1.00
Br752  Br    0.24414   0.98928   0.70208   0.00000  Uiso   1.00
C753   C     0.01467   0.93149   0.74863   0.00000  Uiso   1.00
C754   C     0.31209   0.82867   0.65901   0.00000  Uiso   1.00
C755   C     0.03065   0.83912   0.89360   0.00000  Uiso   1.00
C756   C     0.29987   0.81730   0.60723   0.00000  Uiso   1.00
C757   C     0.01081   0.87329   0.97388   0.00000  Uiso   1.00
C758   C     0.30689   0.76105   0.53477   0.00000  Uiso   1.00
C759   C     0.32826   0.86507   0.92448   0.00000  Uiso   1.00
C760   C     0.32889   0.78024   0.58088   0.00000  Uiso   1.00
C761   C     0.07909   0.81766   0.91247   0.00000  Uiso   1.00
C762   C     0.25071   0.83620   0.58714   0.00000  Uiso   1.00
C763   C     0.09573   0.82491   0.96188   0.00000  Uiso   1.00
C764   C     0.31866   0.73518   0.75136   0.00000  Uiso   1.00
C765   C     0.22426   0.81306   0.54396   0.00000  Uiso   1.00
C766   C     0.06214   0.85524   0.99237   0.00000  Uiso   1.00
C767   C     0.25418   0.77656   0.51645   0.00000  Uiso   1.00
C768   C     0.14733   0.80644   0.98065   0.00000  Uiso   1.00
C769   C     0.16880   0.82510   0.52789   0.00000  Uiso   1.00
C770   C     0.13351   0.85389   0.55806   0.00000  Uiso   1.00
C771   C     0.17814   0.77010   0.95379   0.00000  Uiso   1.00
C772   C     0.08086   0.86826   0.54054   0.00000  Uiso   1.00
C773   C     0.23050   0.75520   0.97172   0.00000  Uiso   1.00
C774   C     0.02218   0.98584   0.75631   0.00000  Uiso   1.00
C775   C     0.31116   0.68084   0.74368   0.00000  Uiso   1.00
C776   C     0.02101   0.83694   0.84104   0.00000  Uiso   1.00
H777   H     0.05526   0.89066   0.56454   0.00000  Uiso   1.00
H778   H     0.16178   0.75077   0.91954   0.00000  Uiso   1.00
H779   H     0.16246   0.79133   0.71383   0.00000  Uiso   1.00
H780   H     0.17087   0.87535   0.78615   0.00000  Uiso   1.00
H781   H     0.25252   0.72684   0.95046   0.00000  Uiso   1.00
H782   H     0.23258   0.86767   0.60733   0.00000  Uiso   1.00
H783   H     0.10541   0.79845   0.88714   0.00000  Uiso   1.00
H784   H     0.03385   0.76504   0.59647   0.00000  Uiso   1.00
H785   H     0.28992   0.88124   0.91011   0.00000  Uiso   1.00
H786   H     0.31751   0.89533   0.99724   0.00000  Uiso   1.00
H787   H     0.32976   0.73266   0.51436   0.00000  Uiso   1.00
H788   H     0.14461   0.86462   0.59600   0.00000  Uiso   1.00
N789   N     0.14695   0.81883   0.73739   0.00000  Uiso   1.00
N790   N     0.18638   0.84784   0.76260   0.00000  Uiso   1.00
O791   O     0.29719   0.91298   0.75309   0.00000  Uiso   1.00
O792   O     0.03614   0.75369   0.74690   0.00000  Uiso   1.00
O793   O     0.05822   0.90368   0.74501   0.00000  Uiso   1.00
O794   O     0.27512   0.76298   0.75498   0.00000  Uiso   1.00
O795   O     0.30328   0.84063   0.82247   0.00000  Uiso   1.00
O796   O     0.03005   0.82603   0.67753   0.00000  Uiso   1.00
O797   O     0.06431   0.83134   0.81439   0.00000  Uiso   1.00
O798   O     0.26902   0.83533   0.68561   0.00000  Uiso   1.00
Zn799  Zn    0.27033   0.83954   0.75539   0.00000  Uiso   1.00
Zn800  Zn    0.06300   0.82713   0.74460   0.00000  Uiso   1.00
Br801  Br    0.42255   0.67741   0.79790   0.00000  Uiso   1.00
Br802  Br    0.57747   0.98928   0.70208   0.00000  Uiso   1.00
C803   C     0.34801   0.93149   0.74863   0.00000  Uiso   1.00
C804   C     0.64543   0.82867   0.65901   0.00000  Uiso   1.00
C805   C     0.36398   0.83912   0.89360   0.00000  Uiso   1.00
C806   C     0.63320   0.81730   0.60723   0.00000  Uiso   1.00
C807   C     0.34414   0.87329   0.97388   0.00000  Uiso   1.00
C808   C     0.64022   0.76105   0.53477   0.00000  Uiso   1.00
C809   C     0.66160   0.86507   0.92448   0.00000  Uiso   1.00
C810   C     0.66222   0.78024   0.58088   0.00000  Uiso   1.00
C811   C     0.41242   0.81766   0.91247   0.00000  Uiso   1.00
C812   C     0.58404   0.83620   0.58714   0.00000  Uiso   1.00
C813   C     0.42906   0.82491   0.96188   0.00000  Uiso   1.00
C814   C     0.65199   0.73518   0.75136   0.00000  Uiso   1.00
C815   C     0.55760   0.81306   0.54396   0.00000  Uiso   1.00
C816   C     0.39547   0.85524   0.99237   0.00000  Uiso   1.00
C817   C     0.58751   0.77656   0.51645   0.00000  Uiso   1.00
C818   C     0.48066   0.80644   0.98065   0.00000  Uiso   1.00
C819   C     0.50213   0.82510   0.52789   0.00000  Uiso   1.00
C820   C     0.46685   0.85389   0.55806   0.00000  Uiso   1.00
C821   C     0.51148   0.77010   0.95379   0.00000  Uiso   1.00
C822   C     0.41420   0.86826   0.54054   0.00000  Uiso   1.00
C823   C     0.56383   0.75520   0.97172   0.00000  Uiso   1.00
C824   C     0.35551   0.98584   0.75631   0.00000  Uiso   1.00
C825   C     0.64450   0.68084   0.74368   0.00000  Uiso   1.00
C826   C     0.35434   0.83694   0.84104   0.00000  Uiso   1.00
H827   H     0.38859   0.89066   0.56454   0.00000  Uiso   1.00
H828   H     0.49512   0.75077   0.91954   0.00000  Uiso   1.00
H829   H     0.49580   0.79133   0.71383   0.00000  Uiso   1.00
H830   H     0.50420   0.87535   0.78615   0.00000  Uiso   1.00
H831   H     0.58585   0.72684   0.95046   0.00000  Uiso   1.00
H832   H     0.56592   0.86767   0.60733   0.00000  Uiso   1.00
H833   H     0.43874   0.79845   0.88714   0.00000  Uiso   1.00
H834   H     0.36719   0.76504   0.59647   0.00000  Uiso   1.00
H835   H     0.62326   0.88124   0.91011   0.00000  Uiso   1.00
H836   H     0.65085   0.89533   0.99724   0.00000  Uiso   1.00
H837   H     0.66309   0.73266   0.51436   0.00000  Uiso   1.00
H838   H     0.47795   0.86462   0.59600   0.00000  Uiso   1.00
N839   N     0.48029   0.81883   0.73739   0.00000  Uiso   1.00
N840   N     0.51971   0.84784   0.76260   0.00000  Uiso   1.00
O841   O     0.63052   0.91298   0.75309   0.00000  Uiso   1.00
O842   O     0.36948   0.75369   0.74690   0.00000  Uiso   1.00
O843   O     0.39155   0.90368   0.74501   0.00000  Uiso   1.00
O844   O     0.60845   0.76298   0.75498   0.00000  Uiso   1.00
O845   O     0.63662   0.84063   0.82247   0.00000  Uiso   1.00
O846   O     0.36338   0.82603   0.67753   0.00000  Uiso   1.00
O847   O     0.39764   0.83134   0.81439   0.00000  Uiso   1.00
O848   O     0.60236   0.83533   0.68561   0.00000  Uiso   1.00
Zn849  Zn    0.60366   0.83954   0.75539   0.00000  Uiso   1.00
Zn850  Zn    0.39634   0.82713   0.74460   0.00000  Uiso   1.00
Br851  Br    0.75588   0.67741   0.79790   0.00000  Uiso   1.00
Br852  Br    0.91081   0.98928   0.70208   0.00000  Uiso   1.00
C853   C     0.68134   0.93149   0.74863   0.00000  Uiso   1.00
C854   C     0.97876   0.82867   0.65901   0.00000  Uiso   1.00
C855   C     0.69731   0.83912   0.89360   0.00000  Uiso   1.00
C856   C     0.96654   0.81730   0.60723   0.00000  Uiso   1.00
C857   C     0.67748   0.87329   0.97388   0.00000  Uiso   1.00
C858   C     0.97356   0.76105   0.53477   0.00000  Uiso   1.00
C859   C     0.99493   0.86507   0.92448   0.00000  Uiso   1.00
C860   C     0.99556   0.78024   0.58088   0.00000  Uiso   1.00
C861   C     0.74576   0.81766   0.91247   0.00000  Uiso   1.00
C862   C     0.91737   0.83620   0.58714   0.00000  Uiso   1.00
C863   C     0.76240   0.82491   0.96188   0.00000  Uiso   1.00
C864   C     0.98533   0.73518   0.75136   0.00000  Uiso   1.00
C865   C     0.89093   0.81306   0.54396   0.00000  Uiso   1.00
C866   C     0.72881   0.85524   0.99237   0.00000  Uiso   1.00
C867   C     0.92084   0.77656   0.51645   0.00000  Uiso   1.00
C868   C     0.81400   0.80644   0.98065   0.00000  Uiso   1.00
C869   C     0.83547   0.82510   0.52789   0.00000  Uiso   1.00
C870   C     0.80018   0.85389   0.55806   0.00000  Uiso   1.00
C871   C     0.84481   0.77010   0.95379   0.00000  Uiso   1.00
C872   C     0.74753   0.86826   0.54054   0.00000  Uiso   1.00
C873   C     0.89717   0.75520   0.97172   0.00000  Uiso   1.00
C874   C     0.68885   0.98584   0.75631   0.00000  Uiso   1.00
C875   C     0.97783   0.68084   0.74368   0.00000  Uiso   1.00
C876   C     0.68767   0.83694   0.84104   0.00000  Uiso   1.00
H877   H     0.72192   0.89066   0.56454   0.00000  Uiso   1.00
H878   H     0.82845   0.75077   0.91954   0.00000  Uiso   1.00
H879   H     0.82913   0.79133   0.71383   0.00000  Uiso   1.00
H880   H     0.83754   0.87535   0.78615   0.00000  Uiso   1.00
H881   H     0.91918   0.72684   0.95046   0.00000  Uiso   1.00
H882   H     0.89925   0.86767   0.60733   0.00000  Uiso   1.00
H883   H     0.77208   0.79845   0.88714   0.00000  Uiso   1.00
H884   H     0.70052   0.76504   0.59647   0.00000  Uiso   1.00
H885   H     0.95659   0.88124   0.91011   0.00000  Uiso   1.00
H886   H     0.98418   0.89533   0.99724   0.00000  Uiso   1.00
H887   H     0.99643   0.73266   0.51436   0.00000  Uiso   1.00
H888   H     0.81128   0.86462   0.59600   0.00000  Uiso   1.00
N889   N     0.81362   0.81883   0.73739   0.00000  Uiso   1.00
N890   N     0.85305   0.84784   0.76260   0.00000  Uiso   1.00
O891   O     0.96386   0.91298   0.75309   0.00000  Uiso   1.00
O892   O     0.70281   0.75369   0.74690   0.00000  Uiso   1.00
O893   O     0.72488   0.90368   0.74501   0.00000  Uiso   1.00
O894   O     0.94178   0.76298   0.75498   0.00000  Uiso   1.00
O895   O     0.96995   0.84063   0.82247   0.00000  Uiso   1.00
O896   O     0.69672   0.82603   0.67753   0.00000  Uiso   1.00
O897   O     0.73098   0.83134   0.81439   0.00000  Uiso   1.00
O898   O     0.93569   0.83533   0.68561   0.00000  Uiso   1.00
Zn899  Zn    0.93700   0.83954   0.75539   0.00000  Uiso   1.00
Zn900  Zn    0.72967   0.82713   0.74460   0.00000  Uiso   1.00
loop_
_geom_bond_atom_site_label_1
_geom_bond_atom_site_label_2
_geom_bond_distance
_geom_bond_site_symmetry_2
_ccdc_geom_bond_type
Br1    C324    1.945   1_545 S
Br2    C175    1.944   .     S
C3     O43     1.292   .     A
C3     C24     1.400   .     S
C3     O141    1.271   1_455 S
C4     C6      1.448   .     S
C4     O48     1.297   .     A
C4     O96     1.291   .     S
C5     C26     1.450   .     S
C5     C11     1.388   .     A
C5     C109    1.400   1_455 S
C6     C10     1.400   .     A
C6     C12     1.384   .     A
C7     C16     1.403   .     A
C7     C109    1.391   1_455 S
C7     H136    1.084   1_455 S
C8     C17     1.404   .     A
C8     H37     1.084   .     S
C8     C10     1.394   .     A
C9     H35     1.083   .     S
C9     C55     1.400   .     S
C9     C57     1.391   .     S
C10    H84     1.083   .     S
C11    C13     1.393   .     A
C11    H33     1.077   .     S
C12    C15     1.392   .     A
C12    H32     1.079   .     S
C13    C18     1.415   .     A
C13    C16     1.419   .     A
C14    C25     1.400   .     S
C14    O44     1.292   .     A
C14    O92     1.271   .     S
C15    C19     1.414   .     A
C15    C17     1.418   .     A
C16    C472    1.389   .     S
C17    C473    1.390   1_554 S
C18    C21     1.418   .     A
C18    C469    1.413   .     S
C19    C20     1.418   .     A
C19    C468    1.413   1_554 S
C20    H38     1.078   .     S
C20    C22     1.385   .     A
C21    H28     1.078   .     S
C21    C23     1.388   .     A
C22    H27     1.084   .     S
C22    C466    1.389   1_554 S
C23    H31     1.084   .     S
C23    C467    1.390   .     S
C24    Br151   1.945   .     S
C24    C275    1.354   1_455 S
C25    C374    1.354   1_545 S
C25    Br302   1.944   1_545 S
C26    O47     1.298   .     A
C26    O145    1.290   1_455 S
H29    N39     1.029   .     S
H30    N40     1.029   .     S
H34    C110    1.083   1_455 S
H36    C57     1.084   .     S
N39    Zn50    2.018   .     S
N39    N40     1.293   .     D
N40    Zn49    2.018   .     S
O41    Zn49    1.958   .     S
O41    C53     1.271   .     S
O42    Zn50    1.958   .     S
O42    C114    1.271   1_455 S
O43    Zn50    1.981   .     S
O44    Zn49    1.981   .     S
O45    Zn49    1.962   .     S
O45    C76     1.290   .     S
O46    Zn50    1.962   .     S
O46    C104    1.291   1_455 S
O47    Zn50    1.918   .     S
O48    Zn49    1.918   .     S
Br51   C374    1.945   1_545 S
Br52   C225    1.944   .     S
C53    O93     1.292   .     A
C53    C74     1.400   .     S
C54    C56     1.448   .     S
C54    O98     1.297   .     A
C54    O146    1.291   .     S
C55    C76     1.450   .     S
C55    C61     1.388   .     A
C56    C60     1.400   .     A
C56    C62     1.384   .     A
C57    C66     1.403   .     A
C58    C67     1.404   .     A
C58    H87     1.084   .     S
C58    C60     1.394   .     A
C59    H85     1.083   .     S
C59    C105    1.400   .     S
C59    C107    1.391   .     S
C60    H134    1.083   .     S
C61    C63     1.393   .     A
C61    H83     1.077   .     S
C62    C65     1.392   .     A
C62    H82     1.079   .     S
C63    C68     1.415   .     A
C63    C66     1.419   .     A
C64    C75     1.400   .     S
C64    O94     1.292   .     A
C64    O142    1.271   .     S
C65    C69     1.414   .     A
C65    C67     1.418   .     A
C66    C522    1.389   .     S
C67    C523    1.390   1_554 S
C68    C71     1.418   .     A
C68    C519    1.413   .     S
C69    C70     1.418   .     A
C69    C518    1.413   1_554 S
C70    H88     1.078   .     S
C70    C72     1.385   .     A
C71    H78     1.078   .     S
C71    C73     1.388   .     A
C72    H77     1.084   .     S
C72    C516    1.389   1_554 S
C73    H81     1.084   .     S
C73    C517    1.390   .     S
C74    Br201   1.945   .     S
C74    C175    1.354   .     S
C75    C424    1.354   1_545 S
C75    Br352   1.944   1_545 S
C76    O97     1.298   .     A
H79    N89     1.029   .     S
H80    N90     1.029   .     S
H86    C107    1.084   .     S
N89    Zn100   2.018   .     S
N89    N90     1.293   .     D
N90    Zn99    2.018   .     S
O91    Zn99    1.958   .     S
O91    C103    1.271   .     S
O92    Zn100   1.958   .     S
O93    Zn100   1.981   .     S
O94    Zn99    1.981   .     S
O95    Zn99    1.962   .     S
O95    C126    1.290   .     S
O96    Zn100   1.962   .     S
O97    Zn100   1.918   .     S
O98    Zn99    1.918   .     S
Br101  C424    1.945   1_545 S
Br102  C275    1.944   .     S
C103   O143    1.292   .     A
C103   C124    1.400   .     S
C104   C106    1.448   .     S
C104   O148    1.297   .     A
C104   O46     1.291   1_655 S
C105   C126    1.450   .     S
C105   C111    1.388   .     A
C106   C110    1.400   .     A
C106   C112    1.384   .     A
C107   C116    1.403   .     A
C108   C117    1.404   .     A
C108   H137    1.084   .     S
C108   C110    1.394   .     A
C109   H135    1.083   .     S
C109   C5      1.400   1_655 S
C109   C7      1.391   1_655 S
C110   H34     1.083   1_655 S
C111   C113    1.393   .     A
C111   H133    1.077   .     S
C112   C115    1.392   .     A
C112   H132    1.079   .     S
C113   C118    1.415   .     A
C113   C116    1.419   .     A
C114   C125    1.400   .     S
C114   O144    1.292   .     A
C114   O42     1.271   1_655 S
C115   C119    1.414   .     A
C115   C117    1.418   .     A
C116   C572    1.389   .     S
C117   C573    1.390   1_554 S
C118   C121    1.418   .     A
C118   C569    1.413   .     S
C119   C120    1.418   .     A
C119   C568    1.413   1_554 S
C120   H138    1.078   .     S
C120   C122    1.385   .     A
C121   H128    1.078   .     S
C121   C123    1.388   .     A
C122   H127    1.084   .     S
C122   C566    1.389   1_554 S
C123   H131    1.084   .     S
C123   C567    1.390   .     S
C124   Br251   1.945   .     S
C124   C225    1.354   .     S
C125   C324    1.354   1_645 S
C125   Br402   1.944   1_545 S
C126   O147    1.298   .     A
H129   N139    1.029   .     S
H130   N140    1.029   .     S
H136   C7      1.084   1_655 S
N139   Zn150   2.018   .     S
N139   N140    1.293   .     D
N140   Zn149   2.018   .     S
O141   Zn149   1.958   .     S
O141   C3      1.271   1_655 S
O142   Zn150   1.958   .     S
O143   Zn150   1.981   .     S
O144   Zn149   1.981   .     S
O145   Zn149   1.962   .     S
O145   C26     1.290   1_655 S
O146   Zn150   1.962   .     S
O147   Zn150   1.918   .     S
O148   Zn149   1.918   .     S
Br152  C325    1.944   .     S
C153   O193    1.292   .     A
C153   C174    1.400   .     S
C153   O291    1.271   1_455 S
C154   C156    1.448   .     S
C154   O198    1.297   .     A
C154   O246    1.291   .     S
C155   C176    1.450   .     S
C155   C161    1.388   .     A
C155   C259    1.400   1_455 S
C156   C160    1.400   .     A
C156   C162    1.384   .     A
C157   C166    1.403   .     A
C157   C259    1.391   1_455 S
C157   H286    1.084   1_455 S
C158   C167    1.404   .     A
C158   H187    1.084   .     S
C158   C160    1.394   .     A
C159   H185    1.083   .     S
C159   C205    1.400   .     S
C159   C207    1.391   .     S
C160   H234    1.083   .     S
C161   C163    1.393   .     A
C161   H183    1.077   .     S
C162   C165    1.392   .     A
C162   H182    1.079   .     S
C163   C168    1.415   .     A
C163   C166    1.419   .     A
C164   C175    1.400   .     S
C164   O194    1.292   .     A
C164   O242    1.271   .     S
C165   C169    1.414   .     A
C165   C167    1.418   .     A
C166   C622    1.389   .     S
C167   C623    1.390   1_554 S
C168   C171    1.418   .     A
C168   C619    1.413   .     S
C169   C170    1.418   .     A
C169   C618    1.413   1_554 S
C170   H188    1.078   .     S
C170   C172    1.385   .     A
C171   H178    1.078   .     S
C171   C173    1.388   .     A
C172   H177    1.084   .     S
C172   C616    1.389   1_554 S
C173   H181    1.084   .     S
C173   C617    1.390   .     S
C174   Br301   1.945   .     S
C174   C425    1.354   1_455 S
C176   O197    1.298   .     A
C176   O295    1.290   1_455 S
H179   N189    1.029   .     S
H180   N190    1.029   .     S
H184   C260    1.083   1_455 S
H186   C207    1.084   .     S
N189   Zn200   2.018   .     S
N189   N190    1.293   .     D
N190   Zn199   2.018   .     S
O191   Zn199   1.958   .     S
O191   C203    1.271   .     S
O192   Zn200   1.958   .     S
O192   C264    1.271   1_455 S
O193   Zn200   1.981   .     S
O194   Zn199   1.981   .     S
O195   Zn199   1.962   .     S
O195   C226    1.290   .     S
O196   Zn200   1.962   .     S
O196   C254    1.291   1_455 S
O197   Zn200   1.918   .     S
O198   Zn199   1.918   .     S
Br202  C375    1.944   .     S
C203   O243    1.292   .     A
C203   C224    1.400   .     S
C204   C206    1.448   .     S
C204   O248    1.297   .     A
C204   O296    1.291   .     S
C205   C226    1.450   .     S
C205   C211    1.388   .     A
C206   C210    1.400   .     A
C206   C212    1.384   .     A
C207   C216    1.403   .     A
C208   C217    1.404   .     A
C208   H237    1.084   .     S
C208   C210    1.394   .     A
C209   H235    1.083   .     S
C209   C255    1.400   .     S
C209   C257    1.391   .     S
C210   H284    1.083   .     S
C211   C213    1.393   .     A
C211   H233    1.077   .     S
C212   C215    1.392   .     A
C212   H232    1.079   .     S
C213   C218    1.415   .     A
C213   C216    1.419   .     A
C214   C225    1.400   .     S
C214   O244    1.292   .     A
C214   O292    1.271   .     S
C215   C219    1.414   .     A
C215   C217    1.418   .     A
C216   C672    1.389   .     S
C217   C673    1.390   1_554 S
C218   C221    1.418   .     A
C218   C669    1.413   .     S
C219   C220    1.418   .     A
C219   C668    1.413   1_554 S
C220   H238    1.078   .     S
C220   C222    1.385   .     A
C221   H228    1.078   .     S
C221   C223    1.388   .     A
C222   H227    1.084   .     S
C222   C666    1.389   1_554 S
C223   H231    1.084   .     S
C223   C667    1.390   .     S
C224   Br351   1.945   .     S
C224   C325    1.354   .     S
C226   O247    1.298   .     A
H229   N239    1.029   .     S
H230   N240    1.029   .     S
H236   C257    1.084   .     S
N239   Zn250   2.018   .     S
N239   N240    1.293   .     D
N240   Zn249   2.018   .     S
O241   Zn249   1.958   .     S
O241   C253    1.271   .     S
O242   Zn250   1.958   .     S
O243   Zn250   1.981   .     S
O244   Zn249   1.981   .     S
O245   Zn249   1.962   .     S
O245   C276    1.290   .     S
O246   Zn250   1.962   .     S
O247   Zn250   1.918   .     S
O248   Zn249   1.918   .     S
Br252  C425    1.944   .     S
C253   O293    1.292   .     A
C253   C274    1.400   .     S
C254   C256    1.448   .     S
C254   O298    1.297   .     A
C254   O196    1.291   1_655 S
C255   C276    1.450   .     S
C255   C261    1.388   .     A
C256   C260    1.400   .     A
C256   C262    1.384   .     A
C257   C266    1.403   .     A
C258   C267    1.404   .     A
C258   H287    1.084   .     S
C258   C260    1.394   .     A
C259   H285    1.083   .     S
C259   C155    1.400   1_655 S
C259   C157    1.391   1_655 S
C260   H184    1.083   1_655 S
C261   C263    1.393   .     A
C261   H283    1.077   .     S
C262   C265    1.392   .     A
C262   H282    1.079   .     S
C263   C268    1.415   .     A
C263   C266    1.419   .     A
C264   C275    1.400   .     S
C264   O294    1.292   .     A
C264   O192    1.271   1_655 S
C265   C269    1.414   .     A
C265   C267    1.418   .     A
C266   C722    1.389   .     S
C267   C723    1.390   1_554 S
C268   C271    1.418   .     A
C268   C719    1.413   .     S
C269   C270    1.418   .     A
C269   C718    1.413   1_554 S
C270   H288    1.078   .     S
C270   C272    1.385   .     A
C271   H278    1.078   .     S
C271   C273    1.388   .     A
C272   H277    1.084   .     S
C272   C716    1.389   1_554 S
C273   H281    1.084   .     S
C273   C717    1.390   .     S
C274   Br401   1.945   .     S
C274   C375    1.354   .     S
C275   C24     1.354   1_655 S
C276   O297    1.298   .     A
H279   N289    1.029   .     S
H280   N290    1.029   .     S
H286   C157    1.084   1_655 S
N289   Zn300   2.018   .     S
N289   N290    1.293   .     D
N290   Zn299   2.018   .     S
O291   Zn299   1.958   .     S
O291   C153    1.271   1_655 S
O292   Zn300   1.958   .     S
O293   Zn300   1.981   .     S
O294   Zn299   1.981   .     S
O295   Zn299   1.962   .     S
O295   C176    1.290   1_655 S
O296   Zn300   1.962   .     S
O297   Zn300   1.918   .     S
O298   Zn299   1.918   .     S
Br302  C25     1.944   1_565 S
C303   O343    1.292   .     A
C303   C324    1.400   .     S
C303   O441    1.271   1_455 S
C304   C306    1.448   .     S
C304   O348    1.297   .     A
C304   O396    1.291   .     S
C305   C326    1.450   .     S
C305   C311    1.388   .     A
C305   C409    1.400   1_455 S
C306   C310    1.400   .     A
C306   C312    1.384   .     A
C307   C316    1.403   .     A
C307   C409    1.391   1_455 S
C307   H436    1.084   1_455 S
C308   C317    1.404   .     A
C308   H337    1.084   .     S
C308   C310    1.394   .     A
C309   H335    1.083   .     S
C309   C355    1.400   .     S
C309   C357    1.391   .     S
C310   H384    1.083   .     S
C311   C313    1.393   .     A
C311   H333    1.077   .     S
C312   C315    1.392   .     A
C312   H332    1.079   .     S
C313   C318    1.415   .     A
C313   C316    1.419   .     A
C314   C325    1.400   .     S
C314   O344    1.292   .     A
C314   O392    1.271   .     S
C315   C319    1.414   .     A
C315   C317    1.418   .     A
C316   C772    1.389   .     S
C317   C773    1.390   1_554 S
C318   C321    1.418   .     A
C318   C769    1.413   .     S
C319   C320    1.418   .     A
C319   C768    1.413   1_554 S
C320   H338    1.078   .     S
C320   C322    1.385   .     A
C321   H328    1.078   .     S
C321   C323    1.388   .     A
C322   H327    1.084   .     S
C322   C766    1.389   1_554 S
C323   H331    1.084   .     S
C323   C767    1.390   .     S
C324   Br1     1.945   1_565 S
C324   C125    1.354   1_465 S
C326   O347    1.298   .     A
C326   O445    1.290   1_455 S
H329   N339    1.029   .     S
H330   N340    1.029   .     S
H334   C410    1.083   1_455 S
H336   C357    1.084   .     S
N339   Zn350   2.018   .     S
N339   N340    1.293   .     D
N340   Zn349   2.018   .     S
O341   Zn349   1.958   .     S
O341   C353    1.271   .     S
O342   Zn350   1.958   .     S
O342   C414    1.271   1_455 S
O343   Zn350   1.981   .     S
O344   Zn349   1.981   .     S
O345   Zn349   1.962   .     S
O345   C376    1.290   .     S
O346   Zn350   1.962   .     S
O346   C404    1.291   1_455 S
O347   Zn350   1.918   .     S
O348   Zn349   1.918   .     S
Br352  C75     1.944   1_565 S
C353   O393    1.292   .     A
C353   C374    1.400   .     S
C354   C356    1.448   .     S
C354   O398    1.297   .     A
C354   O446    1.291   .     S
C355   C376    1.450   .     S
C355   C361    1.388   .     A
C356   C360    1.400   .     A
C356   C362    1.384   .     A
C357   C366    1.403   .     A
C358   C367    1.404   .     A
C358   H387    1.084   .     S
C358   C360    1.394   .     A
C359   H385    1.083   .     S
C359   C405    1.400   .     S
C359   C407    1.391   .     S
C360   H434    1.083   .     S
C361   C363    1.393   .     A
C361   H383    1.077   .     S
C362   C365    1.392   .     A
C362   H382    1.079   .     S
C363   C368    1.415   .     A
C363   C366    1.419   .     A
C364   C375    1.400   .     S
C364   O394    1.292   .     A
C364   O442    1.271   .     S
C365   C369    1.414   .     A
C365   C367    1.418   .     A
C366   C822    1.389   .     S
C367   C823    1.390   1_554 S
C368   C371    1.418   .     A
C368   C819    1.413   .     S
C369   C370    1.418   .     A
C369   C818    1.413   1_554 S
C370   H388    1.078   .     S
C370   C372    1.385   .     A
C371   H378    1.078   .     S
C371   C373    1.388   .     A
C372   H377    1.084   .     S
C372   C816    1.389   1_554 S
C373   H381    1.084   .     S
C373   C817    1.390   .     S
C374   Br51    1.945   1_565 S
C374   C25     1.354   1_565 S
C376   O397    1.298   .     A
H379   N389    1.029   .     S
H380   N390    1.029   .     S
H386   C407    1.084   .     S
N389   Zn400   2.018   .     S
N389   N390    1.293   .     D
N390   Zn399   2.018   .     S
O391   Zn399   1.958   .     S
O391   C403    1.271   .     S
O392   Zn400   1.958   .     S
O393   Zn400   1.981   .     S
O394   Zn399   1.981   .     S
O395   Zn399   1.962   .     S
O395   C426    1.290   .     S
O396   Zn400   1.962   .     S
O397   Zn400   1.918   .     S
O398   Zn399   1.918   .     S
Br402  C125    1.944   1_565 S
C403   O443    1.292   .     A
C403   C424    1.400   .     S
C404   C406    1.448   .     S
C404   O448    1.297   .     A
C404   O346    1.291   1_655 S
C405   C426    1.450   .     S
C405   C411    1.388   .     A
C406   C410    1.400   .     A
C406   C412    1.384   .     A
C407   C416    1.403   .     A
C408   C417    1.404   .     A
C408   H437    1.084   .     S
C408   C410    1.394   .     A
C409   H435    1.083   .     S
C409   C305    1.400   1_655 S
C409   C307    1.391   1_655 S
C410   H334    1.083   1_655 S
C411   C413    1.393   .     A
C411   H433    1.077   .     S
C412   C415    1.392   .     A
C412   H432    1.079   .     S
C413   C418    1.415   .     A
C413   C416    1.419   .     A
C414   C425    1.400   .     S
C414   O444    1.292   .     A
C414   O342    1.271   1_655 S
C415   C419    1.414   .     A
C415   C417    1.418   .     A
C416   C872    1.389   .     S
C417   C873    1.390   1_554 S
C418   C421    1.418   .     A
C418   C869    1.413   .     S
C419   C420    1.418   .     A
C419   C868    1.413   1_554 S
C420   H438    1.078   .     S
C420   C422    1.385   .     A
C421   H428    1.078   .     S
C421   C423    1.388   .     A
C422   H427    1.084   .     S
C422   C866    1.389   1_554 S
C423   H431    1.084   .     S
C423   C867    1.390   .     S
C424   Br101   1.945   1_565 S
C424   C75     1.354   1_565 S
C425   C174    1.354   1_655 S
C426   O447    1.298   .     A
H429   N439    1.029   .     S
H430   N440    1.029   .     S
H436   C307    1.084   1_655 S
N439   Zn450   2.018   .     S
N439   N440    1.293   .     D
N440   Zn449   2.018   .     S
O441   Zn449   1.958   .     S
O441   C303    1.271   1_655 S
O442   Zn450   1.958   .     S
O443   Zn450   1.981   .     S
O444   Zn449   1.981   .     S
O445   Zn449   1.962   .     S
O445   C326    1.290   1_655 S
O446   Zn450   1.962   .     S
O447   Zn450   1.918   .     S
O448   Zn449   1.918   .     S
Br451  C774    1.945   1_545 S
Br452  C625    1.944   .     S
C453   O493    1.292   .     A
C453   C474    1.400   .     S
C453   O591    1.271   1_455 S
C454   C456    1.448   .     S
C454   O498    1.297   .     A
C454   O546    1.291   .     S
C455   C476    1.450   .     S
C455   C461    1.388   .     A
C455   C559    1.400   1_455 S
C456   C460    1.400   .     A
C456   C462    1.384   .     A
C457   C466    1.403   .     A
C457   C559    1.391   1_455 S
C457   H586    1.084   1_455 S
C458   C467    1.404   .     A
C458   H487    1.084   .     S
C458   C460    1.394   .     A
C459   H485    1.083   .     S
C459   C505    1.400   .     S
C459   C507    1.391   .     S
C460   H534    1.083   .     S
C461   C463    1.393   .     A
C461   H483    1.077   .     S
C462   C465    1.392   .     A
C462   H482    1.079   .     S
C463   C468    1.415   .     A
C463   C466    1.419   .     A
C464   C475    1.400   .     S
C464   O494    1.292   .     A
C464   O542    1.271   .     S
C465   C469    1.414   .     A
C465   C467    1.418   .     A
C466   C22     1.389   1_556 S
C468   C471    1.418   .     A
C468   C19     1.413   1_556 S
C469   C470    1.418   .     A
C470   H488    1.078   .     S
C470   C472    1.385   .     A
C471   H478    1.078   .     S
C471   C473    1.388   .     A
C472   H477    1.084   .     S
C473   H481    1.084   .     S
C473   C17     1.390   1_556 S
C474   Br601   1.945   .     S
C474   C725    1.354   1_455 S
C475   C824    1.354   1_545 S
C475   Br752   1.944   1_545 S
C476   O497    1.298   .     A
C476   O595    1.290   1_455 S
H479   N489    1.029   .     S
H480   N490    1.029   .     S
H484   C560    1.083   1_455 S
H486   C507    1.084   .     S
N489   Zn500   2.018   .     S
N489   N490    1.293   .     D
N490   Zn499   2.018   .     S
O491   Zn499   1.958   .     S
O491   C503    1.271   .     S
O492   Zn500   1.958   .     S
O492   C564    1.271   1_455 S
O493   Zn500   1.981   .     S
O494   Zn499   1.981   .     S
O495   Zn499   1.962   .     S
O495   C526    1.290   .     S
O496   Zn500   1.962   .     S
O496   C554    1.291   1_455 S
O497   Zn500   1.918   .     S
O498   Zn499   1.918   .     S
Br501  C824    1.945   1_545 S
Br502  C675    1.944   .     S
C503   O543    1.292   .     A
C503   C524    1.400   .     S
C504   C506    1.448   .     S
C504   O548    1.297   .     A
C504   O596    1.291   .     S
C505   C526    1.450   .     S
C505   C511    1.388   .     A
C506   C510    1.400   .     A
C506   C512    1.384   .     A
C507   C516    1.403   .     A
C508   C517    1.404   .     A
C508   H537    1.084   .     S
C508   C510    1.394   .     A
C509   H535    1.083   .     S
C509   C555    1.400   .     S
C509   C557    1.391   .     S
C510   H584    1.083   .     S
C511   C513    1.393   .     A
C511   H533    1.077   .     S
C512   C515    1.392   .     A
C512   H532    1.079   .     S
C513   C518    1.415   .     A
C513   C516    1.419   .     A
C514   C525    1.400   .     S
C514   O544    1.292   .     A
C514   O592    1.271   .     S
C515   C519    1.414   .     A
C515   C517    1.418   .     A
C516   C72     1.389   1_556 S
C518   C521    1.418   .     A
C518   C69     1.413   1_556 S
C519   C520    1.418   .     A
C520   H538    1.078   .     S
C520   C522    1.385   .     A
C521   H528    1.078   .     S
C521   C523    1.388   .     A
C522   H527    1.084   .     S
C523   H531    1.084   .     S
C523   C67     1.390   1_556 S
C524   Br651   1.945   .     S
C524   C625    1.354   .     S
C525   C874    1.354   1_545 S
C525   Br802   1.944   1_545 S
C526   O547    1.298   .     A
H529   N539    1.029   .     S
H530   N540    1.029   .     S
H536   C557    1.084   .     S
N539   Zn550   2.018   .     S
N539   N540    1.293   .     D
N540   Zn549   2.018   .     S
O541   Zn549   1.958   .     S
O541   C553    1.271   .     S
O542   Zn550   1.958   .     S
O543   Zn550   1.981   .     S
O544   Zn549   1.981   .     S
O545   Zn549   1.962   .     S
O545   C576    1.290   .     S
O546   Zn550   1.962   .     S
O547   Zn550   1.918   .     S
O548   Zn549   1.918   .     S
Br551  C874    1.945   1_545 S
Br552  C725    1.944   .     S
C553   O593    1.292   .     A
C553   C574    1.400   .     S
C554   C556    1.448   .     S
C554   O598    1.297   .     A
C554   O496    1.291   1_655 S
C555   C576    1.450   .     S
C555   C561    1.388   .     A
C556   C560    1.400   .     A
C556   C562    1.384   .     A
C557   C566    1.403   .     A
C558   C567    1.404   .     A
C558   H587    1.084   .     S
C558   C560    1.394   .     A
C559   H585    1.083   .     S
C559   C455    1.400   1_655 S
C559   C457    1.391   1_655 S
C560   H484    1.083   1_655 S
C561   C563    1.393   .     A
C561   H583    1.077   .     S
C562   C565    1.392   .     A
C562   H582    1.079   .     S
C563   C568    1.415   .     A
C563   C566    1.419   .     A
C564   C575    1.400   .     S
C564   O594    1.292   .     A
C564   O492    1.271   1_655 S
C565   C569    1.414   .     A
C565   C567    1.418   .     A
C566   C122    1.389   1_556 S
C568   C571    1.418   .     A
C568   C119    1.413   1_556 S
C569   C570    1.418   .     A
C570   H588    1.078   .     S
C570   C572    1.385   .     A
C571   H578    1.078   .     S
C571   C573    1.388   .     A
C572   H577    1.084   .     S
C573   H581    1.084   .     S
C573   C117    1.390   1_556 S
C574   Br701   1.945   .     S
C574   C675    1.354   .     S
C575   C774    1.354   1_645 S
C575   Br852   1.944   1_545 S
C576   O597    1.298   .     A
H579   N589    1.029   .     S
H580   N590    1.029   .     S
H586   C457    1.084   1_655 S
N589   Zn600   2.018   .     S
N589   N590    1.293   .     D
N590   Zn599   2.018   .     S
O591   Zn599   1.958   .     S
O591   C453    1.271   1_655 S
O592   Zn600   1.958   .     S
O593   Zn600   1.981   .     S
O594   Zn599   1.981   .     S
O595   Zn599   1.962   .     S
O595   C476    1.290   1_655 S
O596   Zn600   1.962   .     S
O597   Zn600   1.918   .     S
O598   Zn599   1.918   .     S
Br602  C775    1.944   .     S
C603   O643    1.292   .     A
C603   C624    1.400   .     S
C603   O741    1.271   1_455 S
C604   C606    1.448   .     S
C604   O648    1.297   .     A
C604   O696    1.291   .     S
C605   C626    1.450   .     S
C605   C611    1.388   .     A
C605   C709    1.400   1_455 S
C606   C610    1.400   .     A
C606   C612    1.384   .     A
C607   C616    1.403   .     A
C607   C709    1.391   1_455 S
C607   H736    1.084   1_455 S
C608   C617    1.404   .     A
C608   H637    1.084   .     S
C608   C610    1.394   .     A
C609   H635    1.083   .     S
C609   C655    1.400   .     S
C609   C657    1.391   .     S
C610   H684    1.083   .     S
C611   C613    1.393   .     A
C611   H633    1.077   .     S
C612   C615    1.392   .     A
C612   H632    1.079   .     S
C613   C618    1.415   .     A
C613   C616    1.419   .     A
C614   C625    1.400   .     S
C614   O644    1.292   .     A
C614   O692    1.271   .     S
C615   C619    1.414   .     A
C615   C617    1.418   .     A
C616   C172    1.389   1_556 S
C618   C621    1.418   .     A
C618   C169    1.413   1_556 S
C619   C620    1.418   .     A
C620   H638    1.078   .     S
C620   C622    1.385   .     A
C621   H628    1.078   .     S
C621   C623    1.388   .     A
C622   H627    1.084   .     S
C623   H631    1.084   .     S
C623   C167    1.390   1_556 S
C624   Br751   1.945   .     S
C624   C875    1.354   1_455 S
C626   O647    1.298   .     A
C626   O745    1.290   1_455 S
H629   N639    1.029   .     S
H630   N640    1.029   .     S
H634   C710    1.083   1_455 S
H636   C657    1.084   .     S
N639   Zn650   2.018   .     S
N639   N640    1.293   .     D
N640   Zn649   2.018   .     S
O641   Zn649   1.958   .     S
O641   C653    1.271   .     S
O642   Zn650   1.958   .     S
O642   C714    1.271   1_455 S
O643   Zn650   1.981   .     S
O644   Zn649   1.981   .     S
O645   Zn649   1.962   .     S
O645   C676    1.290   .     S
O646   Zn650   1.962   .     S
O646   C704    1.291   1_455 S
O647   Zn650   1.918   .     S
O648   Zn649   1.918   .     S
Br652  C825    1.944   .     S
C653   O693    1.292   .     A
C653   C674    1.400   .     S
C654   C656    1.448   .     S
C654   O698    1.297   .     A
C654   O746    1.291   .     S
C655   C676    1.450   .     S
C655   C661    1.388   .     A
C656   C660    1.400   .     A
C656   C662    1.384   .     A
C657   C666    1.403   .     A
C658   C667    1.404   .     A
C658   H687    1.084   .     S
C658   C660    1.394   .     A
C659   H685    1.083   .     S
C659   C705    1.400   .     S
C659   C707    1.391   .     S
C660   H734    1.083   .     S
C661   C663    1.393   .     A
C661   H683    1.077   .     S
C662   C665    1.392   .     A
C662   H682    1.079   .     S
C663   C668    1.415   .     A
C663   C666    1.419   .     A
C664   C675    1.400   .     S
C664   O694    1.292   .     A
C664   O742    1.271   .     S
C665   C669    1.414   .     A
C665   C667    1.418   .     A
C666   C222    1.389   1_556 S
C668   C671    1.418   .     A
C668   C219    1.413   1_556 S
C669   C670    1.418   .     A
C670   H688    1.078   .     S
C670   C672    1.385   .     A
C671   H678    1.078   .     S
C671   C673    1.388   .     A
C672   H677    1.084   .     S
C673   H681    1.084   .     S
C673   C217    1.390   1_556 S
C674   Br801   1.945   .     S
C674   C775    1.354   .     S
C676   O697    1.298   .     A
H679   N689    1.029   .     S
H680   N690    1.029   .     S
H686   C707    1.084   .     S
N689   Zn700   2.018   .     S
N689   N690    1.293   .     D
N690   Zn699   2.018   .     S
O691   Zn699   1.958   .     S
O691   C703    1.271   .     S
O692   Zn700   1.958   .     S
O693   Zn700   1.981   .     S
O694   Zn699   1.981   .     S
O695   Zn699   1.962   .     S
O695   C726    1.290   .     S
O696   Zn700   1.962   .     S
O697   Zn700   1.918   .     S
O698   Zn699   1.918   .     S
Br702  C875    1.944   .     S
C703   O743    1.292   .     A
C703   C724    1.400   .     S
C704   C706    1.448   .     S
C704   O748    1.297   .     A
C704   O646    1.291   1_655 S
C705   C726    1.450   .     S
C705   C711    1.388   .     A
C706   C710    1.400   .     A
C706   C712    1.384   .     A
C707   C716    1.403   .     A
C708   C717    1.404   .     A
C708   H737    1.084   .     S
C708   C710    1.394   .     A
C709   H735    1.083   .     S
C709   C605    1.400   1_655 S
C709   C607    1.391   1_655 S
C710   H634    1.083   1_655 S
C711   C713    1.393   .     A
C711   H733    1.077   .     S
C712   C715    1.392   .     A
C712   H732    1.079   .     S
C713   C718    1.415   .     A
C713   C716    1.419   .     A
C714   C725    1.400   .     S
C714   O744    1.292   .     A
C714   O642    1.271   1_655 S
C715   C719    1.414   .     A
C715   C717    1.418   .     A
C716   C272    1.389   1_556 S
C718   C721    1.418   .     A
C718   C269    1.413   1_556 S
C719   C720    1.418   .     A
C720   H738    1.078   .     S
C720   C722    1.385   .     A
C721   H728    1.078   .     S
C721   C723    1.388   .     A
C722   H727    1.084   .     S
C723   H731    1.084   .     S
C723   C267    1.390   1_556 S
C724   Br851   1.945   .     S
C724   C825    1.354   .     S
C725   C474    1.354   1_655 S
C726   O747    1.298   .     A
H729   N739    1.029   .     S
H730   N740    1.029   .     S
H736   C607    1.084   1_655 S
N739   Zn750   2.018   .     S
N739   N740    1.293   .     D
N740   Zn749   2.018   .     S
O741   Zn749   1.958   .     S
O741   C603    1.271   1_655 S
O742   Zn750   1.958   .     S
O743   Zn750   1.981   .     S
O744   Zn749   1.981   .     S
O745   Zn749   1.962   .     S
O745   C626    1.290   1_655 S
O746   Zn750   1.962   .     S
O747   Zn750   1.918   .     S
O748   Zn749   1.918   .     S
Br752  C475    1.944   1_565 S
C753   O793    1.292   .     A
C753   C774    1.400   .     S
C753   O891    1.271   1_455 S
C754   C756    1.448   .     S
C754   O798    1.297   .     A
C754   O846    1.291   .     S
C755   C776    1.450   .     S
C755   C761    1.388   .     A
C755   C859    1.400   1_455 S
C756   C760    1.400   .     A
C756   C762    1.384   .     A
C757   C766    1.403   .     A
C757   C859    1.391   1_455 S
C757   H886    1.084   1_455 S
C758   C767    1.404   .     A
C758   H787    1.084   .     S
C758   C760    1.394   .     A
C759   H785    1.083   .     S
C759   C805    1.400   .     S
C759   C807    1.391   .     S
C760   H834    1.083   .     S
C761   C763    1.393   .     A
C761   H783    1.077   .     S
C762   C765    1.392   .     A
C762   H782    1.079   .     S
C763   C768    1.415   .     A
C763   C766    1.419   .     A
C764   C775    1.400   .     S
C764   O794    1.292   .     A
C764   O842    1.271   .     S
C765   C769    1.414   .     A
C765   C767    1.418   .     A
C766   C322    1.389   1_556 S
C768   C771    1.418   .     A
C768   C319    1.413   1_556 S
C769   C770    1.418   .     A
C770   H788    1.078   .     S
C770   C772    1.385   .     A
C771   H778    1.078   .     S
C771   C773    1.388   .     A
C772   H777    1.084   .     S
C773   H781    1.084   .     S
C773   C317    1.390   1_556 S
C774   Br451   1.945   1_565 S
C774   C575    1.354   1_465 S
C776   O797    1.298   .     A
C776   O895    1.290   1_455 S
H779   N789    1.029   .     S
H780   N790    1.029   .     S
H784   C860    1.083   1_455 S
H786   C807    1.084   .     S
N789   Zn800   2.018   .     S
N789   N790    1.293   .     D
N790   Zn799   2.018   .     S
O791   Zn799   1.958   .     S
O791   C803    1.271   .     S
O792   Zn800   1.958   .     S
O792   C864    1.271   1_455 S
O793   Zn800   1.981   .     S
O794   Zn799   1.981   .     S
O795   Zn799   1.962   .     S
O795   C826    1.290   .     S
O796   Zn800   1.962   .     S
O796   C854    1.291   1_455 S
O797   Zn800   1.918   .     S
O798   Zn799   1.918   .     S
Br802  C525    1.944   1_565 S
C803   O843    1.292   .     A
C803   C824    1.400   .     S
C804   C806    1.448   .     S
C804   O848    1.297   .     A
C804   O896    1.291   .     S
C805   C826    1.450   .     S
C805   C811    1.388   .     A
C806   C810    1.400   .     A
C806   C812    1.384   .     A
C807   C816    1.403   .     A
C808   C817    1.404   .     A
C808   H837    1.084   .     S
C808   C810    1.394   .     A
C809   H835    1.083   .     S
C809   C855    1.400   .     S
C809   C857    1.391   .     S
C810   H884    1.083   .     S
C811   C813    1.393   .     A
C811   H833    1.077   .     S
C812   C815    1.392   .     A
C812   H832    1.079   .     S
C813   C818    1.415   .     A
C813   C816    1.419   .     A
C814   C825    1.400   .     S
C814   O844    1.292   .     A
C814   O892    1.271   .     S
C815   C819    1.414   .     A
C815   C817    1.418   .     A
C816   C372    1.389   1_556 S
C818   C821    1.418   .     A
C818   C369    1.413   1_556 S
C819   C820    1.418   .     A
C820   H838    1.078   .     S
C820   C822    1.385   .     A
C821   H828    1.078   .     S
C821   C823    1.388   .     A
C822   H827    1.084   .     S
C823   H831    1.084   .     S
C823   C367    1.390   1_556 S
C824   Br501   1.945   1_565 S
C824   C475    1.354   1_565 S
C826   O847    1.298   .     A
H829   N839    1.029   .     S
H830   N840    1.029   .     S
H836   C857    1.084   .     S
N839   Zn850   2.018   .     S
N839   N840    1.293   .     D
N840   Zn849   2.018   .     S
O841   Zn849   1.958   .     S
O841   C853    1.271   .     S
O842   Zn850   1.958   .     S
O843   Zn850   1.981   .     S
O844   Zn849   1.981   .     S
O845   Zn849   1.962   .     S
O845   C876    1.290   .     S
O846   Zn850   1.962   .     S
O847   Zn850   1.918   .     S
O848   Zn849   1.918   .     S
Br852  C575    1.944   1_565 S
C853   O893    1.292   .     A
C853   C874    1.400   .     S
C854   C856    1.448   .     S
C854   O898    1.297   .     A
C854   O796    1.291   1_655 S
C855   C876    1.450   .     S
C855   C861    1.388   .     A
C856   C860    1.400   .     A
C856   C862    1.384   .     A
C857   C866    1.403   .     A
C858   C867    1.404   .     A
C858   H887    1.084   .     S
C858   C860    1.394   .     A
C859   H885    1.083   .     S
C859   C755    1.400   1_655 S
C859   C757    1.391   1_655 S
C860   H784    1.083   1_655 S
C861   C863    1.393   .     A
C861   H883    1.077   .     S
C862   C865    1.392   .     A
C862   H882    1.079   .     S
C863   C868    1.415   .     A
C863   C866    1.419   .     A
C864   C875    1.400   .     S
C864   O894    1.292   .     A
C864   O792    1.271   1_655 S
C865   C869    1.414   .     A
C865   C867    1.418   .     A
C866   C422    1.389   1_556 S
C868   C871    1.418   .     A
C868   C419    1.413   1_556 S
C869   C870    1.418   .     A
C870   H888    1.078   .     S
C870   C872    1.385   .     A
C871   H878    1.078   .     S
C871   C873    1.388   .     A
C872   H877    1.084   .     S
C873   H881    1.084   .     S
C873   C417    1.390   1_556 S
C874   Br551   1.945   1_565 S
C874   C525    1.354   1_565 S
C875   C624    1.354   1_655 S
C876   O897    1.298   .     A
H879   N889    1.029   .     S
H880   N890    1.029   .     S
H886   C757    1.084   1_655 S
N889   Zn900   2.018   .     S
N889   N890    1.293   .     D
N890   Zn899   2.018   .     S
O891   Zn899   1.958   .     S
O891   C753    1.271   1_655 S
O892   Zn900   1.958   .     S
O893   Zn900   1.981   .     S
O894   Zn899   1.981   .     S
O895   Zn899   1.962   .     S
O895   C776    1.290   1_655 S
O896   Zn900   1.962   .     S
O897   Zn900   1.918   .     S
O898   Zn899   1.918   .     S
