data_str_m3_o2_o5_pcu_sym.32
_audit_creation_date              2020-01-03
_audit_creation_method            'Materials Studio'
_symmetry_space_group_name_H-M    'P1'
_symmetry_Int_Tables_number       1
_symmetry_cell_setting            triclinic
loop_
_symmetry_equiv_pos_as_xyz
  x,y,z
_cell_length_a                    29.8770
_cell_length_b                    28.3726
_cell_length_c                    26.7370
_cell_angle_alpha                 89.9983
_cell_angle_beta                  90.2225
_cell_angle_gamma                 89.9961
loop_
_atom_site_label
_atom_site_type_symbol
_atom_site_fract_x
_atom_site_fract_y
_atom_site_fract_z
_atom_site_U_iso_or_equiv
_atom_site_adp_type
_atom_site_occupancy
C1     C     0.16400   0.25002   0.16661   0.00000  Uiso   1.00
C2     C     0.21490   0.44735   0.14442   0.00000  Uiso   1.00
C3     C     0.25018   0.25000   0.07285   0.00000  Uiso   1.00
C4     C     0.24981   0.25000   0.26048   0.00000  Uiso   1.00
C5     C     0.25000   0.02669   0.16667   0.00000  Uiso   1.00
C6     C     0.25000   0.47331   0.16667   0.00000  Uiso   1.00
C7     C     0.25008   0.25001   0.02178   0.00000  Uiso   1.00
C8     C     0.24991   0.25001   0.31155   0.00000  Uiso   1.00
C9     C     0.04624   0.26885   0.20533   0.00000  Uiso   1.00
C10    C     0.45280   0.22334   0.20517   0.00000  Uiso   1.00
C11    C     0.45376   0.26877   0.12801   0.00000  Uiso   1.00
C12    C     0.33600   0.25002   0.16672   0.00000  Uiso   1.00
C13    C     0.04720   0.22324   0.12827   0.00000  Uiso   1.00
C14    C     0.09254   0.27218   0.20453   0.00000  Uiso   1.00
C15    C     0.40643   0.22553   0.20612   0.00000  Uiso   1.00
C16    C     0.40747   0.27210   0.12878   0.00000  Uiso   1.00
C17    C     0.09357   0.22544   0.12730   0.00000  Uiso   1.00
C18    C     0.11606   0.24990   0.16571   0.00000  Uiso   1.00
C19    C     0.38394   0.24990   0.16764   0.00000  Uiso   1.00
C20    C     0.02399   0.24493   0.16707   0.00000  Uiso   1.00
C21    C     0.47601   0.24494   0.16633   0.00000  Uiso   1.00
C22    C     0.11738   0.34668   0.23758   0.00000  Uiso   1.00
C23    C     0.23003   0.10224   0.12846   0.00000  Uiso   1.00
C24    C     0.37037   0.23570   0.28573   0.00000  Uiso   1.00
C25    C     0.38258   0.34653   0.09558   0.00000  Uiso   1.00
C26    C     0.12954   0.23534   0.04758   0.00000  Uiso   1.00
C27    C     0.28434   0.39776   0.18868   0.00000  Uiso   1.00
C28    C     0.26997   0.10224   0.20487   0.00000  Uiso   1.00
C29    C     0.21566   0.39776   0.14465   0.00000  Uiso   1.00
C30    C     0.22981   0.05265   0.12763   0.00000  Uiso   1.00
C31    C     0.28510   0.44735   0.18891   0.00000  Uiso   1.00
C32    C     0.27019   0.05264   0.20571   0.00000  Uiso   1.00
H33    H     0.21429   0.12158   0.09828   0.00000  Uiso   1.00
H34    H     0.08331   0.36213   0.24063   0.00000  Uiso   1.00
H35    H     0.13177   0.35601   0.20065   0.00000  Uiso   1.00
H36    H     0.13899   0.36211   0.26723   0.00000  Uiso   1.00
H37    H     0.39774   0.17363   0.25943   0.00000  Uiso   1.00
H38    H     0.40096   0.24978   0.30417   0.00000  Uiso   1.00
H39    H     0.35014   0.21661   0.31398   0.00000  Uiso   1.00
H40    H     0.35008   0.26545   0.27097   0.00000  Uiso   1.00
H41    H     0.39603   0.28671   0.05451   0.00000  Uiso   1.00
H42    H     0.41664   0.36199   0.09254   0.00000  Uiso   1.00
H43    H     0.36815   0.35591   0.13247   0.00000  Uiso   1.00
H44    H     0.31146   0.37842   0.20605   0.00000  Uiso   1.00
H45    H     0.36099   0.36189   0.06588   0.00000  Uiso   1.00
H46    H     0.10231   0.17333   0.07423   0.00000  Uiso   1.00
H47    H     0.09891   0.24921   0.02902   0.00000  Uiso   1.00
H48    H     0.14987   0.21617   0.01945   0.00000  Uiso   1.00
H49    H     0.14971   0.26523   0.06219   0.00000  Uiso   1.00
H50    H     0.21441   0.03495   0.09612   0.00000  Uiso   1.00
H51    H     0.31343   0.46504   0.20586   0.00000  Uiso   1.00
H52    H     0.28559   0.03494   0.23722   0.00000  Uiso   1.00
H53    H     0.18657   0.46505   0.12748   0.00000  Uiso   1.00
H54    H     0.28571   0.12157   0.23505   0.00000  Uiso   1.00
H55    H     0.18854   0.37843   0.12728   0.00000  Uiso   1.00
H56    H     0.02756   0.28572   0.23507   0.00000  Uiso   1.00
H57    H     0.47079   0.20531   0.23483   0.00000  Uiso   1.00
H58    H     0.47245   0.28558   0.09824   0.00000  Uiso   1.00
H59    H     0.02921   0.20514   0.09867   0.00000  Uiso   1.00
H60    H     0.10400   0.28692   0.27878   0.00000  Uiso   1.00
N61    N     0.25000   0.12624   0.16667   0.00000  Uiso   1.00
N62    N     0.25000   0.37377   0.16667   0.00000  Uiso   1.00
N63    N     0.11548   0.29607   0.24378   0.00000  Uiso   1.00
N64    N     0.38257   0.20374   0.24591   0.00000  Uiso   1.00
N65    N     0.38453   0.29591   0.08948   0.00000  Uiso   1.00
N66    N     0.11743   0.20353   0.08758   0.00000  Uiso   1.00
O67    O     0.18453   0.28974   0.16667   0.00000  Uiso   1.00
O68    O     0.31547   0.21026   0.16666   0.00000  Uiso   1.00
O69    O     0.31547   0.28974   0.16666   0.00000  Uiso   1.00
O70    O     0.18453   0.21026   0.16667   0.00000  Uiso   1.00
O71    O     0.25000   0.28973   0.09511   0.00000  Uiso   1.00
O72    O     0.25000   0.21027   0.23822   0.00000  Uiso   1.00
O73    O     0.25000   0.28973   0.23822   0.00000  Uiso   1.00
O74    O     0.25000   0.21027   0.09511   0.00000  Uiso   1.00
Zn75   Zn    0.25000   0.30307   0.16667   0.00000  Uiso   1.00
Zn76   Zn    0.25000   0.19693   0.16667   0.00000  Uiso   1.00
C77    C     0.66400   0.25002   0.16661   0.00000  Uiso   1.00
C78    C     0.71490   0.44735   0.14442   0.00000  Uiso   1.00
C79    C     0.75018   0.25000   0.07285   0.00000  Uiso   1.00
C80    C     0.74981   0.25000   0.26048   0.00000  Uiso   1.00
C81    C     0.75000   0.02669   0.16667   0.00000  Uiso   1.00
C82    C     0.75000   0.47331   0.16667   0.00000  Uiso   1.00
C83    C     0.75008   0.25001   0.02178   0.00000  Uiso   1.00
C84    C     0.74991   0.25001   0.31155   0.00000  Uiso   1.00
C85    C     0.54624   0.26885   0.20533   0.00000  Uiso   1.00
C86    C     0.95280   0.22334   0.20517   0.00000  Uiso   1.00
C87    C     0.95376   0.26877   0.12801   0.00000  Uiso   1.00
C88    C     0.83600   0.25002   0.16672   0.00000  Uiso   1.00
C89    C     0.54720   0.22324   0.12827   0.00000  Uiso   1.00
C90    C     0.59254   0.27218   0.20453   0.00000  Uiso   1.00
C91    C     0.90643   0.22553   0.20612   0.00000  Uiso   1.00
C92    C     0.90747   0.27210   0.12878   0.00000  Uiso   1.00
C93    C     0.59357   0.22544   0.12730   0.00000  Uiso   1.00
C94    C     0.61606   0.24990   0.16571   0.00000  Uiso   1.00
C95    C     0.88394   0.24990   0.16764   0.00000  Uiso   1.00
C96    C     0.52399   0.24493   0.16707   0.00000  Uiso   1.00
C97    C     0.97601   0.24494   0.16633   0.00000  Uiso   1.00
C98    C     0.61738   0.34668   0.23758   0.00000  Uiso   1.00
C99    C     0.73003   0.10224   0.12846   0.00000  Uiso   1.00
C100   C     0.87037   0.23570   0.28573   0.00000  Uiso   1.00
C101   C     0.88258   0.34653   0.09558   0.00000  Uiso   1.00
C102   C     0.62954   0.23534   0.04758   0.00000  Uiso   1.00
C103   C     0.78434   0.39776   0.18868   0.00000  Uiso   1.00
C104   C     0.76997   0.10224   0.20487   0.00000  Uiso   1.00
C105   C     0.71566   0.39776   0.14465   0.00000  Uiso   1.00
C106   C     0.72981   0.05265   0.12763   0.00000  Uiso   1.00
C107   C     0.78510   0.44735   0.18891   0.00000  Uiso   1.00
C108   C     0.77019   0.05264   0.20571   0.00000  Uiso   1.00
H109   H     0.71429   0.12158   0.09828   0.00000  Uiso   1.00
H110   H     0.58331   0.36213   0.24063   0.00000  Uiso   1.00
H111   H     0.63177   0.35601   0.20065   0.00000  Uiso   1.00
H112   H     0.63899   0.36211   0.26723   0.00000  Uiso   1.00
H113   H     0.89774   0.17363   0.25943   0.00000  Uiso   1.00
H114   H     0.90096   0.24978   0.30417   0.00000  Uiso   1.00
H115   H     0.85014   0.21661   0.31398   0.00000  Uiso   1.00
H116   H     0.85008   0.26545   0.27097   0.00000  Uiso   1.00
H117   H     0.89603   0.28671   0.05451   0.00000  Uiso   1.00
H118   H     0.91664   0.36199   0.09254   0.00000  Uiso   1.00
H119   H     0.86815   0.35591   0.13247   0.00000  Uiso   1.00
H120   H     0.81146   0.37842   0.20605   0.00000  Uiso   1.00
H121   H     0.86099   0.36189   0.06588   0.00000  Uiso   1.00
H122   H     0.60231   0.17333   0.07423   0.00000  Uiso   1.00
H123   H     0.59891   0.24921   0.02902   0.00000  Uiso   1.00
H124   H     0.64987   0.21617   0.01945   0.00000  Uiso   1.00
H125   H     0.64971   0.26523   0.06219   0.00000  Uiso   1.00
H126   H     0.71441   0.03495   0.09612   0.00000  Uiso   1.00
H127   H     0.81343   0.46504   0.20586   0.00000  Uiso   1.00
H128   H     0.78559   0.03494   0.23722   0.00000  Uiso   1.00
H129   H     0.68657   0.46505   0.12748   0.00000  Uiso   1.00
H130   H     0.78571   0.12157   0.23505   0.00000  Uiso   1.00
H131   H     0.68854   0.37843   0.12728   0.00000  Uiso   1.00
H132   H     0.52756   0.28572   0.23507   0.00000  Uiso   1.00
H133   H     0.97079   0.20531   0.23483   0.00000  Uiso   1.00
H134   H     0.97245   0.28558   0.09824   0.00000  Uiso   1.00
H135   H     0.52921   0.20514   0.09867   0.00000  Uiso   1.00
H136   H     0.60400   0.28692   0.27878   0.00000  Uiso   1.00
N137   N     0.75000   0.12624   0.16667   0.00000  Uiso   1.00
N138   N     0.75000   0.37377   0.16667   0.00000  Uiso   1.00
N139   N     0.61548   0.29607   0.24378   0.00000  Uiso   1.00
N140   N     0.88257   0.20374   0.24591   0.00000  Uiso   1.00
N141   N     0.88453   0.29591   0.08948   0.00000  Uiso   1.00
N142   N     0.61743   0.20353   0.08758   0.00000  Uiso   1.00
O143   O     0.68453   0.28974   0.16667   0.00000  Uiso   1.00
O144   O     0.81547   0.21026   0.16666   0.00000  Uiso   1.00
O145   O     0.81547   0.28974   0.16666   0.00000  Uiso   1.00
O146   O     0.68453   0.21026   0.16667   0.00000  Uiso   1.00
O147   O     0.75000   0.28973   0.09511   0.00000  Uiso   1.00
O148   O     0.75000   0.21027   0.23822   0.00000  Uiso   1.00
O149   O     0.75000   0.28973   0.23822   0.00000  Uiso   1.00
O150   O     0.75000   0.21027   0.09511   0.00000  Uiso   1.00
Zn151  Zn    0.75000   0.30307   0.16667   0.00000  Uiso   1.00
Zn152  Zn    0.75000   0.19693   0.16667   0.00000  Uiso   1.00
C153   C     0.16400   0.75002   0.16661   0.00000  Uiso   1.00
C154   C     0.21490   0.94735   0.14442   0.00000  Uiso   1.00
C155   C     0.25018   0.75000   0.07285   0.00000  Uiso   1.00
C156   C     0.24981   0.75000   0.26048   0.00000  Uiso   1.00
C157   C     0.25000   0.52669   0.16667   0.00000  Uiso   1.00
C158   C     0.25000   0.97331   0.16667   0.00000  Uiso   1.00
C159   C     0.25008   0.75001   0.02178   0.00000  Uiso   1.00
C160   C     0.24991   0.75001   0.31155   0.00000  Uiso   1.00
C161   C     0.04624   0.76885   0.20533   0.00000  Uiso   1.00
C162   C     0.45280   0.72334   0.20517   0.00000  Uiso   1.00
C163   C     0.45376   0.76877   0.12801   0.00000  Uiso   1.00
C164   C     0.33600   0.75002   0.16672   0.00000  Uiso   1.00
C165   C     0.04720   0.72324   0.12827   0.00000  Uiso   1.00
C166   C     0.09254   0.77218   0.20453   0.00000  Uiso   1.00
C167   C     0.40643   0.72553   0.20612   0.00000  Uiso   1.00
C168   C     0.40747   0.77210   0.12878   0.00000  Uiso   1.00
C169   C     0.09357   0.72544   0.12730   0.00000  Uiso   1.00
C170   C     0.11606   0.74990   0.16571   0.00000  Uiso   1.00
C171   C     0.38394   0.74990   0.16764   0.00000  Uiso   1.00
C172   C     0.02399   0.74493   0.16707   0.00000  Uiso   1.00
C173   C     0.47601   0.74494   0.16633   0.00000  Uiso   1.00
C174   C     0.11738   0.84668   0.23758   0.00000  Uiso   1.00
C175   C     0.23003   0.60224   0.12846   0.00000  Uiso   1.00
C176   C     0.37037   0.73570   0.28573   0.00000  Uiso   1.00
C177   C     0.38258   0.84653   0.09558   0.00000  Uiso   1.00
C178   C     0.12954   0.73534   0.04758   0.00000  Uiso   1.00
C179   C     0.28434   0.89776   0.18868   0.00000  Uiso   1.00
C180   C     0.26997   0.60224   0.20487   0.00000  Uiso   1.00
C181   C     0.21566   0.89776   0.14465   0.00000  Uiso   1.00
C182   C     0.22981   0.55265   0.12763   0.00000  Uiso   1.00
C183   C     0.28510   0.94735   0.18891   0.00000  Uiso   1.00
C184   C     0.27019   0.55264   0.20571   0.00000  Uiso   1.00
H185   H     0.21429   0.62158   0.09828   0.00000  Uiso   1.00
H186   H     0.08331   0.86213   0.24063   0.00000  Uiso   1.00
H187   H     0.13177   0.85601   0.20065   0.00000  Uiso   1.00
H188   H     0.13899   0.86211   0.26723   0.00000  Uiso   1.00
H189   H     0.39774   0.67363   0.25943   0.00000  Uiso   1.00
H190   H     0.40096   0.74978   0.30417   0.00000  Uiso   1.00
H191   H     0.35014   0.71661   0.31398   0.00000  Uiso   1.00
H192   H     0.35008   0.76545   0.27097   0.00000  Uiso   1.00
H193   H     0.39603   0.78671   0.05451   0.00000  Uiso   1.00
H194   H     0.41664   0.86199   0.09254   0.00000  Uiso   1.00
H195   H     0.36815   0.85591   0.13247   0.00000  Uiso   1.00
H196   H     0.31146   0.87842   0.20605   0.00000  Uiso   1.00
H197   H     0.36099   0.86189   0.06588   0.00000  Uiso   1.00
H198   H     0.10231   0.67333   0.07423   0.00000  Uiso   1.00
H199   H     0.09891   0.74921   0.02902   0.00000  Uiso   1.00
H200   H     0.14987   0.71617   0.01945   0.00000  Uiso   1.00
H201   H     0.14971   0.76523   0.06219   0.00000  Uiso   1.00
H202   H     0.21441   0.53495   0.09612   0.00000  Uiso   1.00
H203   H     0.31343   0.96504   0.20586   0.00000  Uiso   1.00
H204   H     0.28559   0.53494   0.23722   0.00000  Uiso   1.00
H205   H     0.18657   0.96505   0.12748   0.00000  Uiso   1.00
H206   H     0.28571   0.62157   0.23505   0.00000  Uiso   1.00
H207   H     0.18854   0.87843   0.12728   0.00000  Uiso   1.00
H208   H     0.02756   0.78572   0.23507   0.00000  Uiso   1.00
H209   H     0.47079   0.70531   0.23483   0.00000  Uiso   1.00
H210   H     0.47245   0.78558   0.09824   0.00000  Uiso   1.00
H211   H     0.02921   0.70514   0.09867   0.00000  Uiso   1.00
H212   H     0.10400   0.78692   0.27878   0.00000  Uiso   1.00
N213   N     0.25000   0.62624   0.16667   0.00000  Uiso   1.00
N214   N     0.25000   0.87377   0.16667   0.00000  Uiso   1.00
N215   N     0.11548   0.79607   0.24378   0.00000  Uiso   1.00
N216   N     0.38257   0.70374   0.24591   0.00000  Uiso   1.00
N217   N     0.38453   0.79591   0.08948   0.00000  Uiso   1.00
N218   N     0.11743   0.70353   0.08758   0.00000  Uiso   1.00
O219   O     0.18453   0.78974   0.16667   0.00000  Uiso   1.00
O220   O     0.31547   0.71026   0.16666   0.00000  Uiso   1.00
O221   O     0.31547   0.78974   0.16666   0.00000  Uiso   1.00
O222   O     0.18453   0.71026   0.16667   0.00000  Uiso   1.00
O223   O     0.25000   0.78973   0.09511   0.00000  Uiso   1.00
O224   O     0.25000   0.71027   0.23822   0.00000  Uiso   1.00
O225   O     0.25000   0.78973   0.23822   0.00000  Uiso   1.00
O226   O     0.25000   0.71027   0.09511   0.00000  Uiso   1.00
Zn227  Zn    0.25000   0.80307   0.16667   0.00000  Uiso   1.00
Zn228  Zn    0.25000   0.69693   0.16667   0.00000  Uiso   1.00
C229   C     0.66400   0.75002   0.16661   0.00000  Uiso   1.00
C230   C     0.71490   0.94735   0.14442   0.00000  Uiso   1.00
C231   C     0.75018   0.75000   0.07285   0.00000  Uiso   1.00
C232   C     0.74981   0.75000   0.26048   0.00000  Uiso   1.00
C233   C     0.75000   0.52669   0.16667   0.00000  Uiso   1.00
C234   C     0.75000   0.97331   0.16667   0.00000  Uiso   1.00
C235   C     0.75008   0.75001   0.02178   0.00000  Uiso   1.00
C236   C     0.74991   0.75001   0.31155   0.00000  Uiso   1.00
C237   C     0.54624   0.76885   0.20533   0.00000  Uiso   1.00
C238   C     0.95280   0.72334   0.20517   0.00000  Uiso   1.00
C239   C     0.95376   0.76877   0.12801   0.00000  Uiso   1.00
C240   C     0.83600   0.75002   0.16672   0.00000  Uiso   1.00
C241   C     0.54720   0.72324   0.12827   0.00000  Uiso   1.00
C242   C     0.59254   0.77218   0.20453   0.00000  Uiso   1.00
C243   C     0.90643   0.72553   0.20612   0.00000  Uiso   1.00
C244   C     0.90747   0.77210   0.12878   0.00000  Uiso   1.00
C245   C     0.59357   0.72544   0.12730   0.00000  Uiso   1.00
C246   C     0.61606   0.74990   0.16571   0.00000  Uiso   1.00
C247   C     0.88394   0.74990   0.16764   0.00000  Uiso   1.00
C248   C     0.52399   0.74493   0.16707   0.00000  Uiso   1.00
C249   C     0.97601   0.74494   0.16633   0.00000  Uiso   1.00
C250   C     0.61738   0.84668   0.23758   0.00000  Uiso   1.00
C251   C     0.73003   0.60224   0.12846   0.00000  Uiso   1.00
C252   C     0.87037   0.73570   0.28573   0.00000  Uiso   1.00
C253   C     0.88258   0.84653   0.09558   0.00000  Uiso   1.00
C254   C     0.62954   0.73534   0.04758   0.00000  Uiso   1.00
C255   C     0.78434   0.89776   0.18868   0.00000  Uiso   1.00
C256   C     0.76997   0.60224   0.20487   0.00000  Uiso   1.00
C257   C     0.71566   0.89776   0.14465   0.00000  Uiso   1.00
C258   C     0.72981   0.55265   0.12763   0.00000  Uiso   1.00
C259   C     0.78510   0.94735   0.18891   0.00000  Uiso   1.00
C260   C     0.77019   0.55264   0.20571   0.00000  Uiso   1.00
H261   H     0.71429   0.62158   0.09828   0.00000  Uiso   1.00
H262   H     0.58331   0.86213   0.24063   0.00000  Uiso   1.00
H263   H     0.63177   0.85601   0.20065   0.00000  Uiso   1.00
H264   H     0.63899   0.86211   0.26723   0.00000  Uiso   1.00
H265   H     0.89774   0.67363   0.25943   0.00000  Uiso   1.00
H266   H     0.90096   0.74978   0.30417   0.00000  Uiso   1.00
H267   H     0.85014   0.71661   0.31398   0.00000  Uiso   1.00
H268   H     0.85008   0.76545   0.27097   0.00000  Uiso   1.00
H269   H     0.89603   0.78671   0.05451   0.00000  Uiso   1.00
H270   H     0.91664   0.86199   0.09254   0.00000  Uiso   1.00
H271   H     0.86815   0.85591   0.13247   0.00000  Uiso   1.00
H272   H     0.81146   0.87842   0.20605   0.00000  Uiso   1.00
H273   H     0.86099   0.86189   0.06588   0.00000  Uiso   1.00
H274   H     0.60231   0.67333   0.07423   0.00000  Uiso   1.00
H275   H     0.59891   0.74921   0.02902   0.00000  Uiso   1.00
H276   H     0.64987   0.71617   0.01945   0.00000  Uiso   1.00
H277   H     0.64971   0.76523   0.06219   0.00000  Uiso   1.00
H278   H     0.71441   0.53495   0.09612   0.00000  Uiso   1.00
H279   H     0.81343   0.96504   0.20586   0.00000  Uiso   1.00
H280   H     0.78559   0.53494   0.23722   0.00000  Uiso   1.00
H281   H     0.68657   0.96505   0.12748   0.00000  Uiso   1.00
H282   H     0.78571   0.62157   0.23505   0.00000  Uiso   1.00
H283   H     0.68854   0.87843   0.12728   0.00000  Uiso   1.00
H284   H     0.52756   0.78572   0.23507   0.00000  Uiso   1.00
H285   H     0.97079   0.70531   0.23483   0.00000  Uiso   1.00
H286   H     0.97245   0.78558   0.09824   0.00000  Uiso   1.00
H287   H     0.52921   0.70514   0.09867   0.00000  Uiso   1.00
H288   H     0.60400   0.78692   0.27878   0.00000  Uiso   1.00
N289   N     0.75000   0.62624   0.16667   0.00000  Uiso   1.00
N290   N     0.75000   0.87377   0.16667   0.00000  Uiso   1.00
N291   N     0.61548   0.79607   0.24378   0.00000  Uiso   1.00
N292   N     0.88257   0.70374   0.24591   0.00000  Uiso   1.00
N293   N     0.88453   0.79591   0.08948   0.00000  Uiso   1.00
N294   N     0.61743   0.70353   0.08758   0.00000  Uiso   1.00
O295   O     0.68453   0.78974   0.16667   0.00000  Uiso   1.00
O296   O     0.81547   0.71026   0.16666   0.00000  Uiso   1.00
O297   O     0.81547   0.78974   0.16666   0.00000  Uiso   1.00
O298   O     0.68453   0.71026   0.16667   0.00000  Uiso   1.00
O299   O     0.75000   0.78973   0.09511   0.00000  Uiso   1.00
O300   O     0.75000   0.71027   0.23822   0.00000  Uiso   1.00
O301   O     0.75000   0.78973   0.23822   0.00000  Uiso   1.00
O302   O     0.75000   0.71027   0.09511   0.00000  Uiso   1.00
Zn303  Zn    0.75000   0.80307   0.16667   0.00000  Uiso   1.00
Zn304  Zn    0.75000   0.69693   0.16667   0.00000  Uiso   1.00
C305   C     0.16400   0.25002   0.49994   0.00000  Uiso   1.00
C306   C     0.21490   0.44735   0.47776   0.00000  Uiso   1.00
C307   C     0.25018   0.25000   0.40619   0.00000  Uiso   1.00
C308   C     0.24981   0.25000   0.59381   0.00000  Uiso   1.00
C309   C     0.25000   0.02669   0.50000   0.00000  Uiso   1.00
C310   C     0.25000   0.47331   0.50000   0.00000  Uiso   1.00
C311   C     0.25008   0.25001   0.35512   0.00000  Uiso   1.00
C312   C     0.24991   0.25001   0.64488   0.00000  Uiso   1.00
C313   C     0.04624   0.26885   0.53867   0.00000  Uiso   1.00
C314   C     0.45280   0.22334   0.53851   0.00000  Uiso   1.00
C315   C     0.45376   0.26877   0.46134   0.00000  Uiso   1.00
C316   C     0.33600   0.25002   0.50006   0.00000  Uiso   1.00
C317   C     0.04720   0.22324   0.46160   0.00000  Uiso   1.00
C318   C     0.09254   0.27218   0.53786   0.00000  Uiso   1.00
C319   C     0.40643   0.22553   0.53945   0.00000  Uiso   1.00
C320   C     0.40747   0.27210   0.46212   0.00000  Uiso   1.00
C321   C     0.09357   0.22544   0.46064   0.00000  Uiso   1.00
C322   C     0.11606   0.24990   0.49904   0.00000  Uiso   1.00
C323   C     0.38394   0.24990   0.50097   0.00000  Uiso   1.00
C324   C     0.02399   0.24493   0.50040   0.00000  Uiso   1.00
C325   C     0.47601   0.24494   0.49967   0.00000  Uiso   1.00
C326   C     0.11738   0.34668   0.57091   0.00000  Uiso   1.00
C327   C     0.23003   0.10224   0.46179   0.00000  Uiso   1.00
C328   C     0.37037   0.23570   0.61906   0.00000  Uiso   1.00
C329   C     0.38258   0.34653   0.42891   0.00000  Uiso   1.00
C330   C     0.12954   0.23534   0.38091   0.00000  Uiso   1.00
C331   C     0.28434   0.39776   0.52201   0.00000  Uiso   1.00
C332   C     0.26997   0.10224   0.53821   0.00000  Uiso   1.00
C333   C     0.21566   0.39776   0.47799   0.00000  Uiso   1.00
C334   C     0.22981   0.05265   0.46096   0.00000  Uiso   1.00
C335   C     0.28510   0.44735   0.52224   0.00000  Uiso   1.00
C336   C     0.27019   0.05264   0.53904   0.00000  Uiso   1.00
H337   H     0.21429   0.12158   0.43162   0.00000  Uiso   1.00
H338   H     0.08331   0.36213   0.57396   0.00000  Uiso   1.00
H339   H     0.13177   0.35601   0.53398   0.00000  Uiso   1.00
H340   H     0.13899   0.36211   0.60056   0.00000  Uiso   1.00
H341   H     0.39774   0.17363   0.59277   0.00000  Uiso   1.00
H342   H     0.40096   0.24978   0.63750   0.00000  Uiso   1.00
H343   H     0.35014   0.21661   0.64732   0.00000  Uiso   1.00
H344   H     0.35008   0.26545   0.60430   0.00000  Uiso   1.00
H345   H     0.39603   0.28671   0.38784   0.00000  Uiso   1.00
H346   H     0.41664   0.36199   0.42588   0.00000  Uiso   1.00
H347   H     0.36815   0.35591   0.46580   0.00000  Uiso   1.00
H348   H     0.31146   0.37842   0.53939   0.00000  Uiso   1.00
H349   H     0.36099   0.36189   0.39921   0.00000  Uiso   1.00
H350   H     0.10231   0.17333   0.40756   0.00000  Uiso   1.00
H351   H     0.09891   0.24921   0.36235   0.00000  Uiso   1.00
H352   H     0.14987   0.21617   0.35278   0.00000  Uiso   1.00
H353   H     0.14971   0.26523   0.39552   0.00000  Uiso   1.00
H354   H     0.21441   0.03495   0.42945   0.00000  Uiso   1.00
H355   H     0.31343   0.46504   0.53919   0.00000  Uiso   1.00
H356   H     0.28559   0.03494   0.57055   0.00000  Uiso   1.00
H357   H     0.18657   0.46505   0.46081   0.00000  Uiso   1.00
H358   H     0.28571   0.12157   0.56838   0.00000  Uiso   1.00
H359   H     0.18854   0.37843   0.46061   0.00000  Uiso   1.00
H360   H     0.02756   0.28572   0.56840   0.00000  Uiso   1.00
H361   H     0.47079   0.20531   0.56816   0.00000  Uiso   1.00
H362   H     0.47245   0.28558   0.43157   0.00000  Uiso   1.00
H363   H     0.02921   0.20514   0.43200   0.00000  Uiso   1.00
H364   H     0.10400   0.28692   0.61212   0.00000  Uiso   1.00
N365   N     0.25000   0.12624   0.50000   0.00000  Uiso   1.00
N366   N     0.25000   0.37377   0.50000   0.00000  Uiso   1.00
N367   N     0.11548   0.29607   0.57711   0.00000  Uiso   1.00
N368   N     0.38257   0.20374   0.57924   0.00000  Uiso   1.00
N369   N     0.38453   0.29591   0.42282   0.00000  Uiso   1.00
N370   N     0.11743   0.20353   0.42091   0.00000  Uiso   1.00
O371   O     0.18453   0.28974   0.50000   0.00000  Uiso   1.00
O372   O     0.31547   0.21026   0.50000   0.00000  Uiso   1.00
O373   O     0.31547   0.28974   0.50000   0.00000  Uiso   1.00
O374   O     0.18453   0.21026   0.50000   0.00000  Uiso   1.00
O375   O     0.25000   0.28973   0.42845   0.00000  Uiso   1.00
O376   O     0.25000   0.21027   0.57155   0.00000  Uiso   1.00
O377   O     0.25000   0.28973   0.57155   0.00000  Uiso   1.00
O378   O     0.25000   0.21027   0.42845   0.00000  Uiso   1.00
Zn379  Zn    0.25000   0.30307   0.50000   0.00000  Uiso   1.00
Zn380  Zn    0.25000   0.19693   0.50000   0.00000  Uiso   1.00
C381   C     0.66400   0.25002   0.49994   0.00000  Uiso   1.00
C382   C     0.71490   0.44735   0.47776   0.00000  Uiso   1.00
C383   C     0.75018   0.25000   0.40619   0.00000  Uiso   1.00
C384   C     0.74981   0.25000   0.59381   0.00000  Uiso   1.00
C385   C     0.75000   0.02669   0.50000   0.00000  Uiso   1.00
C386   C     0.75000   0.47331   0.50000   0.00000  Uiso   1.00
C387   C     0.75008   0.25001   0.35512   0.00000  Uiso   1.00
C388   C     0.74991   0.25001   0.64488   0.00000  Uiso   1.00
C389   C     0.54624   0.26885   0.53867   0.00000  Uiso   1.00
C390   C     0.95280   0.22334   0.53851   0.00000  Uiso   1.00
C391   C     0.95376   0.26877   0.46134   0.00000  Uiso   1.00
C392   C     0.83600   0.25002   0.50006   0.00000  Uiso   1.00
C393   C     0.54720   0.22324   0.46160   0.00000  Uiso   1.00
C394   C     0.59254   0.27218   0.53786   0.00000  Uiso   1.00
C395   C     0.90643   0.22553   0.53945   0.00000  Uiso   1.00
C396   C     0.90747   0.27210   0.46212   0.00000  Uiso   1.00
C397   C     0.59357   0.22544   0.46064   0.00000  Uiso   1.00
C398   C     0.61606   0.24990   0.49904   0.00000  Uiso   1.00
C399   C     0.88394   0.24990   0.50097   0.00000  Uiso   1.00
C400   C     0.52399   0.24493   0.50040   0.00000  Uiso   1.00
C401   C     0.97601   0.24494   0.49967   0.00000  Uiso   1.00
C402   C     0.61738   0.34668   0.57091   0.00000  Uiso   1.00
C403   C     0.73003   0.10224   0.46179   0.00000  Uiso   1.00
C404   C     0.87037   0.23570   0.61906   0.00000  Uiso   1.00
C405   C     0.88258   0.34653   0.42891   0.00000  Uiso   1.00
C406   C     0.62954   0.23534   0.38091   0.00000  Uiso   1.00
C407   C     0.78434   0.39776   0.52201   0.00000  Uiso   1.00
C408   C     0.76997   0.10224   0.53821   0.00000  Uiso   1.00
C409   C     0.71566   0.39776   0.47799   0.00000  Uiso   1.00
C410   C     0.72981   0.05265   0.46096   0.00000  Uiso   1.00
C411   C     0.78510   0.44735   0.52224   0.00000  Uiso   1.00
C412   C     0.77019   0.05264   0.53904   0.00000  Uiso   1.00
H413   H     0.71429   0.12158   0.43162   0.00000  Uiso   1.00
H414   H     0.58331   0.36213   0.57396   0.00000  Uiso   1.00
H415   H     0.63177   0.35601   0.53398   0.00000  Uiso   1.00
H416   H     0.63899   0.36211   0.60056   0.00000  Uiso   1.00
H417   H     0.89774   0.17363   0.59277   0.00000  Uiso   1.00
H418   H     0.90096   0.24978   0.63750   0.00000  Uiso   1.00
H419   H     0.85014   0.21661   0.64732   0.00000  Uiso   1.00
H420   H     0.85008   0.26545   0.60430   0.00000  Uiso   1.00
H421   H     0.89603   0.28671   0.38784   0.00000  Uiso   1.00
H422   H     0.91664   0.36199   0.42588   0.00000  Uiso   1.00
H423   H     0.86815   0.35591   0.46580   0.00000  Uiso   1.00
H424   H     0.81146   0.37842   0.53939   0.00000  Uiso   1.00
H425   H     0.86099   0.36189   0.39921   0.00000  Uiso   1.00
H426   H     0.60231   0.17333   0.40756   0.00000  Uiso   1.00
H427   H     0.59891   0.24921   0.36235   0.00000  Uiso   1.00
H428   H     0.64987   0.21617   0.35278   0.00000  Uiso   1.00
H429   H     0.64971   0.26523   0.39552   0.00000  Uiso   1.00
H430   H     0.71441   0.03495   0.42945   0.00000  Uiso   1.00
H431   H     0.81343   0.46504   0.53919   0.00000  Uiso   1.00
H432   H     0.78559   0.03494   0.57055   0.00000  Uiso   1.00
H433   H     0.68657   0.46505   0.46081   0.00000  Uiso   1.00
H434   H     0.78571   0.12157   0.56838   0.00000  Uiso   1.00
H435   H     0.68854   0.37843   0.46061   0.00000  Uiso   1.00
H436   H     0.52756   0.28572   0.56840   0.00000  Uiso   1.00
H437   H     0.97079   0.20531   0.56816   0.00000  Uiso   1.00
H438   H     0.97245   0.28558   0.43157   0.00000  Uiso   1.00
H439   H     0.52921   0.20514   0.43200   0.00000  Uiso   1.00
H440   H     0.60400   0.28692   0.61212   0.00000  Uiso   1.00
N441   N     0.75000   0.12624   0.50000   0.00000  Uiso   1.00
N442   N     0.75000   0.37377   0.50000   0.00000  Uiso   1.00
N443   N     0.61548   0.29607   0.57711   0.00000  Uiso   1.00
N444   N     0.88257   0.20374   0.57924   0.00000  Uiso   1.00
N445   N     0.88453   0.29591   0.42282   0.00000  Uiso   1.00
N446   N     0.61743   0.20353   0.42091   0.00000  Uiso   1.00
O447   O     0.68453   0.28974   0.50000   0.00000  Uiso   1.00
O448   O     0.81547   0.21026   0.50000   0.00000  Uiso   1.00
O449   O     0.81547   0.28974   0.50000   0.00000  Uiso   1.00
O450   O     0.68453   0.21026   0.50000   0.00000  Uiso   1.00
O451   O     0.75000   0.28973   0.42845   0.00000  Uiso   1.00
O452   O     0.75000   0.21027   0.57155   0.00000  Uiso   1.00
O453   O     0.75000   0.28973   0.57155   0.00000  Uiso   1.00
O454   O     0.75000   0.21027   0.42845   0.00000  Uiso   1.00
Zn455  Zn    0.75000   0.30307   0.50000   0.00000  Uiso   1.00
Zn456  Zn    0.75000   0.19693   0.50000   0.00000  Uiso   1.00
C457   C     0.16400   0.75002   0.49994   0.00000  Uiso   1.00
C458   C     0.21490   0.94735   0.47776   0.00000  Uiso   1.00
C459   C     0.25018   0.75000   0.40619   0.00000  Uiso   1.00
C460   C     0.24981   0.75000   0.59381   0.00000  Uiso   1.00
C461   C     0.25000   0.52669   0.50000   0.00000  Uiso   1.00
C462   C     0.25000   0.97331   0.50000   0.00000  Uiso   1.00
C463   C     0.25008   0.75001   0.35512   0.00000  Uiso   1.00
C464   C     0.24991   0.75001   0.64488   0.00000  Uiso   1.00
C465   C     0.04624   0.76885   0.53867   0.00000  Uiso   1.00
C466   C     0.45280   0.72334   0.53851   0.00000  Uiso   1.00
C467   C     0.45376   0.76877   0.46134   0.00000  Uiso   1.00
C468   C     0.33600   0.75002   0.50006   0.00000  Uiso   1.00
C469   C     0.04720   0.72324   0.46160   0.00000  Uiso   1.00
C470   C     0.09254   0.77218   0.53786   0.00000  Uiso   1.00
C471   C     0.40643   0.72553   0.53945   0.00000  Uiso   1.00
C472   C     0.40747   0.77210   0.46212   0.00000  Uiso   1.00
C473   C     0.09357   0.72544   0.46064   0.00000  Uiso   1.00
C474   C     0.11606   0.74990   0.49904   0.00000  Uiso   1.00
C475   C     0.38394   0.74990   0.50097   0.00000  Uiso   1.00
C476   C     0.02399   0.74493   0.50040   0.00000  Uiso   1.00
C477   C     0.47601   0.74494   0.49967   0.00000  Uiso   1.00
C478   C     0.11738   0.84668   0.57091   0.00000  Uiso   1.00
C479   C     0.23003   0.60224   0.46179   0.00000  Uiso   1.00
C480   C     0.37037   0.73570   0.61906   0.00000  Uiso   1.00
C481   C     0.38258   0.84653   0.42891   0.00000  Uiso   1.00
C482   C     0.12954   0.73534   0.38091   0.00000  Uiso   1.00
C483   C     0.28434   0.89776   0.52201   0.00000  Uiso   1.00
C484   C     0.26997   0.60224   0.53821   0.00000  Uiso   1.00
C485   C     0.21566   0.89776   0.47799   0.00000  Uiso   1.00
C486   C     0.22981   0.55265   0.46096   0.00000  Uiso   1.00
C487   C     0.28510   0.94735   0.52224   0.00000  Uiso   1.00
C488   C     0.27019   0.55264   0.53904   0.00000  Uiso   1.00
H489   H     0.21429   0.62158   0.43162   0.00000  Uiso   1.00
H490   H     0.08331   0.86213   0.57396   0.00000  Uiso   1.00
H491   H     0.13177   0.85601   0.53398   0.00000  Uiso   1.00
H492   H     0.13899   0.86211   0.60056   0.00000  Uiso   1.00
H493   H     0.39774   0.67363   0.59277   0.00000  Uiso   1.00
H494   H     0.40096   0.74978   0.63750   0.00000  Uiso   1.00
H495   H     0.35014   0.71661   0.64732   0.00000  Uiso   1.00
H496   H     0.35008   0.76545   0.60430   0.00000  Uiso   1.00
H497   H     0.39603   0.78671   0.38784   0.00000  Uiso   1.00
H498   H     0.41664   0.86199   0.42588   0.00000  Uiso   1.00
H499   H     0.36815   0.85591   0.46580   0.00000  Uiso   1.00
H500   H     0.31146   0.87842   0.53939   0.00000  Uiso   1.00
H501   H     0.36099   0.86189   0.39921   0.00000  Uiso   1.00
H502   H     0.10231   0.67333   0.40756   0.00000  Uiso   1.00
H503   H     0.09891   0.74921   0.36235   0.00000  Uiso   1.00
H504   H     0.14987   0.71617   0.35278   0.00000  Uiso   1.00
H505   H     0.14971   0.76523   0.39552   0.00000  Uiso   1.00
H506   H     0.21441   0.53495   0.42945   0.00000  Uiso   1.00
H507   H     0.31343   0.96504   0.53919   0.00000  Uiso   1.00
H508   H     0.28559   0.53494   0.57055   0.00000  Uiso   1.00
H509   H     0.18657   0.96505   0.46081   0.00000  Uiso   1.00
H510   H     0.28571   0.62157   0.56838   0.00000  Uiso   1.00
H511   H     0.18854   0.87843   0.46061   0.00000  Uiso   1.00
H512   H     0.02756   0.78572   0.56840   0.00000  Uiso   1.00
H513   H     0.47079   0.70531   0.56816   0.00000  Uiso   1.00
H514   H     0.47245   0.78558   0.43157   0.00000  Uiso   1.00
H515   H     0.02921   0.70514   0.43200   0.00000  Uiso   1.00
H516   H     0.10400   0.78692   0.61212   0.00000  Uiso   1.00
N517   N     0.25000   0.62624   0.50000   0.00000  Uiso   1.00
N518   N     0.25000   0.87377   0.50000   0.00000  Uiso   1.00
N519   N     0.11548   0.79607   0.57711   0.00000  Uiso   1.00
N520   N     0.38257   0.70374   0.57924   0.00000  Uiso   1.00
N521   N     0.38453   0.79591   0.42282   0.00000  Uiso   1.00
N522   N     0.11743   0.70353   0.42091   0.00000  Uiso   1.00
O523   O     0.18453   0.78974   0.50000   0.00000  Uiso   1.00
O524   O     0.31547   0.71026   0.50000   0.00000  Uiso   1.00
O525   O     0.31547   0.78974   0.50000   0.00000  Uiso   1.00
O526   O     0.18453   0.71026   0.50000   0.00000  Uiso   1.00
O527   O     0.25000   0.78973   0.42845   0.00000  Uiso   1.00
O528   O     0.25000   0.71027   0.57155   0.00000  Uiso   1.00
O529   O     0.25000   0.78973   0.57155   0.00000  Uiso   1.00
O530   O     0.25000   0.71027   0.42845   0.00000  Uiso   1.00
Zn531  Zn    0.25000   0.80307   0.50000   0.00000  Uiso   1.00
Zn532  Zn    0.25000   0.69693   0.50000   0.00000  Uiso   1.00
C533   C     0.66400   0.75002   0.49994   0.00000  Uiso   1.00
C534   C     0.71490   0.94735   0.47776   0.00000  Uiso   1.00
C535   C     0.75018   0.75000   0.40619   0.00000  Uiso   1.00
C536   C     0.74981   0.75000   0.59381   0.00000  Uiso   1.00
C537   C     0.75000   0.52669   0.50000   0.00000  Uiso   1.00
C538   C     0.75000   0.97331   0.50000   0.00000  Uiso   1.00
C539   C     0.75008   0.75001   0.35512   0.00000  Uiso   1.00
C540   C     0.74991   0.75001   0.64488   0.00000  Uiso   1.00
C541   C     0.54624   0.76885   0.53867   0.00000  Uiso   1.00
C542   C     0.95280   0.72334   0.53851   0.00000  Uiso   1.00
C543   C     0.95376   0.76877   0.46134   0.00000  Uiso   1.00
C544   C     0.83600   0.75002   0.50006   0.00000  Uiso   1.00
C545   C     0.54720   0.72324   0.46160   0.00000  Uiso   1.00
C546   C     0.59254   0.77218   0.53786   0.00000  Uiso   1.00
C547   C     0.90643   0.72553   0.53945   0.00000  Uiso   1.00
C548   C     0.90747   0.77210   0.46212   0.00000  Uiso   1.00
C549   C     0.59357   0.72544   0.46064   0.00000  Uiso   1.00
C550   C     0.61606   0.74990   0.49904   0.00000  Uiso   1.00
C551   C     0.88394   0.74990   0.50097   0.00000  Uiso   1.00
C552   C     0.52399   0.74493   0.50040   0.00000  Uiso   1.00
C553   C     0.97601   0.74494   0.49967   0.00000  Uiso   1.00
C554   C     0.61738   0.84668   0.57091   0.00000  Uiso   1.00
C555   C     0.73003   0.60224   0.46179   0.00000  Uiso   1.00
C556   C     0.87037   0.73570   0.61906   0.00000  Uiso   1.00
C557   C     0.88258   0.84653   0.42891   0.00000  Uiso   1.00
C558   C     0.62954   0.73534   0.38091   0.00000  Uiso   1.00
C559   C     0.78434   0.89776   0.52201   0.00000  Uiso   1.00
C560   C     0.76997   0.60224   0.53821   0.00000  Uiso   1.00
C561   C     0.71566   0.89776   0.47799   0.00000  Uiso   1.00
C562   C     0.72981   0.55265   0.46096   0.00000  Uiso   1.00
C563   C     0.78510   0.94735   0.52224   0.00000  Uiso   1.00
C564   C     0.77019   0.55264   0.53904   0.00000  Uiso   1.00
H565   H     0.71429   0.62158   0.43162   0.00000  Uiso   1.00
H566   H     0.58331   0.86213   0.57396   0.00000  Uiso   1.00
H567   H     0.63177   0.85601   0.53398   0.00000  Uiso   1.00
H568   H     0.63899   0.86211   0.60056   0.00000  Uiso   1.00
H569   H     0.89774   0.67363   0.59277   0.00000  Uiso   1.00
H570   H     0.90096   0.74978   0.63750   0.00000  Uiso   1.00
H571   H     0.85014   0.71661   0.64732   0.00000  Uiso   1.00
H572   H     0.85008   0.76545   0.60430   0.00000  Uiso   1.00
H573   H     0.89603   0.78671   0.38784   0.00000  Uiso   1.00
H574   H     0.91664   0.86199   0.42588   0.00000  Uiso   1.00
H575   H     0.86815   0.85591   0.46580   0.00000  Uiso   1.00
H576   H     0.81146   0.87842   0.53939   0.00000  Uiso   1.00
H577   H     0.86099   0.86189   0.39921   0.00000  Uiso   1.00
H578   H     0.60231   0.67333   0.40756   0.00000  Uiso   1.00
H579   H     0.59891   0.74921   0.36235   0.00000  Uiso   1.00
H580   H     0.64987   0.71617   0.35278   0.00000  Uiso   1.00
H581   H     0.64971   0.76523   0.39552   0.00000  Uiso   1.00
H582   H     0.71441   0.53495   0.42945   0.00000  Uiso   1.00
H583   H     0.81343   0.96504   0.53919   0.00000  Uiso   1.00
H584   H     0.78559   0.53494   0.57055   0.00000  Uiso   1.00
H585   H     0.68657   0.96505   0.46081   0.00000  Uiso   1.00
H586   H     0.78571   0.62157   0.56838   0.00000  Uiso   1.00
H587   H     0.68854   0.87843   0.46061   0.00000  Uiso   1.00
H588   H     0.52756   0.78572   0.56840   0.00000  Uiso   1.00
H589   H     0.97079   0.70531   0.56816   0.00000  Uiso   1.00
H590   H     0.97245   0.78558   0.43157   0.00000  Uiso   1.00
H591   H     0.52921   0.70514   0.43200   0.00000  Uiso   1.00
H592   H     0.60400   0.78692   0.61212   0.00000  Uiso   1.00
N593   N     0.75000   0.62624   0.50000   0.00000  Uiso   1.00
N594   N     0.75000   0.87377   0.50000   0.00000  Uiso   1.00
N595   N     0.61548   0.79607   0.57711   0.00000  Uiso   1.00
N596   N     0.88257   0.70374   0.57924   0.00000  Uiso   1.00
N597   N     0.88453   0.79591   0.42282   0.00000  Uiso   1.00
N598   N     0.61743   0.70353   0.42091   0.00000  Uiso   1.00
O599   O     0.68453   0.78974   0.50000   0.00000  Uiso   1.00
O600   O     0.81547   0.71026   0.50000   0.00000  Uiso   1.00
O601   O     0.81547   0.78974   0.50000   0.00000  Uiso   1.00
O602   O     0.68453   0.71026   0.50000   0.00000  Uiso   1.00
O603   O     0.75000   0.78973   0.42845   0.00000  Uiso   1.00
O604   O     0.75000   0.71027   0.57155   0.00000  Uiso   1.00
O605   O     0.75000   0.78973   0.57155   0.00000  Uiso   1.00
O606   O     0.75000   0.71027   0.42845   0.00000  Uiso   1.00
Zn607  Zn    0.75000   0.80307   0.50000   0.00000  Uiso   1.00
Zn608  Zn    0.75000   0.69693   0.50000   0.00000  Uiso   1.00
C609   C     0.16400   0.25002   0.83327   0.00000  Uiso   1.00
C610   C     0.21490   0.44735   0.81109   0.00000  Uiso   1.00
C611   C     0.25018   0.25000   0.73952   0.00000  Uiso   1.00
C612   C     0.24981   0.25000   0.92715   0.00000  Uiso   1.00
C613   C     0.25000   0.02669   0.83333   0.00000  Uiso   1.00
C614   C     0.25000   0.47331   0.83333   0.00000  Uiso   1.00
C615   C     0.25008   0.25001   0.68845   0.00000  Uiso   1.00
C616   C     0.24991   0.25001   0.97821   0.00000  Uiso   1.00
C617   C     0.04624   0.26885   0.87200   0.00000  Uiso   1.00
C618   C     0.45280   0.22334   0.87184   0.00000  Uiso   1.00
C619   C     0.45376   0.26877   0.79467   0.00000  Uiso   1.00
C620   C     0.33600   0.25002   0.83339   0.00000  Uiso   1.00
C621   C     0.04720   0.22324   0.79494   0.00000  Uiso   1.00
C622   C     0.09254   0.27218   0.87120   0.00000  Uiso   1.00
C623   C     0.40643   0.22553   0.87278   0.00000  Uiso   1.00
C624   C     0.40747   0.27210   0.79545   0.00000  Uiso   1.00
C625   C     0.09357   0.22544   0.79397   0.00000  Uiso   1.00
C626   C     0.11606   0.24990   0.83237   0.00000  Uiso   1.00
C627   C     0.38394   0.24990   0.83431   0.00000  Uiso   1.00
C628   C     0.02399   0.24493   0.83373   0.00000  Uiso   1.00
C629   C     0.47601   0.24494   0.83300   0.00000  Uiso   1.00
C630   C     0.11738   0.34668   0.90424   0.00000  Uiso   1.00
C631   C     0.23003   0.10224   0.79513   0.00000  Uiso   1.00
C632   C     0.37037   0.23570   0.95240   0.00000  Uiso   1.00
C633   C     0.38258   0.34653   0.76225   0.00000  Uiso   1.00
C634   C     0.12954   0.23534   0.71425   0.00000  Uiso   1.00
C635   C     0.28434   0.39776   0.85534   0.00000  Uiso   1.00
C636   C     0.26997   0.10224   0.87154   0.00000  Uiso   1.00
C637   C     0.21566   0.39776   0.81132   0.00000  Uiso   1.00
C638   C     0.22981   0.05265   0.79429   0.00000  Uiso   1.00
C639   C     0.28510   0.44735   0.85557   0.00000  Uiso   1.00
C640   C     0.27019   0.05264   0.87237   0.00000  Uiso   1.00
H641   H     0.21429   0.12158   0.76495   0.00000  Uiso   1.00
H642   H     0.08331   0.36213   0.90729   0.00000  Uiso   1.00
H643   H     0.13177   0.35601   0.86731   0.00000  Uiso   1.00
H644   H     0.13899   0.36211   0.93390   0.00000  Uiso   1.00
H645   H     0.39774   0.17363   0.92610   0.00000  Uiso   1.00
H646   H     0.40096   0.24978   0.97083   0.00000  Uiso   1.00
H647   H     0.35014   0.21661   0.98065   0.00000  Uiso   1.00
H648   H     0.35008   0.26545   0.93763   0.00000  Uiso   1.00
H649   H     0.39603   0.28671   0.72118   0.00000  Uiso   1.00
H650   H     0.41664   0.36199   0.75921   0.00000  Uiso   1.00
H651   H     0.36815   0.35591   0.79914   0.00000  Uiso   1.00
H652   H     0.31146   0.37842   0.87272   0.00000  Uiso   1.00
H653   H     0.36099   0.36189   0.73254   0.00000  Uiso   1.00
H654   H     0.10231   0.17333   0.74090   0.00000  Uiso   1.00
H655   H     0.09891   0.24921   0.69569   0.00000  Uiso   1.00
H656   H     0.14987   0.21617   0.68612   0.00000  Uiso   1.00
H657   H     0.14971   0.26523   0.72886   0.00000  Uiso   1.00
H658   H     0.21441   0.03495   0.76278   0.00000  Uiso   1.00
H659   H     0.31343   0.46504   0.87252   0.00000  Uiso   1.00
H660   H     0.28559   0.03494   0.90388   0.00000  Uiso   1.00
H661   H     0.18657   0.46505   0.79414   0.00000  Uiso   1.00
H662   H     0.28571   0.12157   0.90172   0.00000  Uiso   1.00
H663   H     0.18854   0.37843   0.79394   0.00000  Uiso   1.00
H664   H     0.02756   0.28572   0.90173   0.00000  Uiso   1.00
H665   H     0.47079   0.20531   0.90149   0.00000  Uiso   1.00
H666   H     0.47245   0.28558   0.76491   0.00000  Uiso   1.00
H667   H     0.02921   0.20514   0.76534   0.00000  Uiso   1.00
H668   H     0.10400   0.28692   0.94545   0.00000  Uiso   1.00
N669   N     0.25000   0.12624   0.83333   0.00000  Uiso   1.00
N670   N     0.25000   0.37377   0.83333   0.00000  Uiso   1.00
N671   N     0.11548   0.29607   0.91044   0.00000  Uiso   1.00
N672   N     0.38257   0.20374   0.91258   0.00000  Uiso   1.00
N673   N     0.38453   0.29591   0.75615   0.00000  Uiso   1.00
N674   N     0.11743   0.20353   0.75424   0.00000  Uiso   1.00
O675   O     0.18453   0.28974   0.83334   0.00000  Uiso   1.00
O676   O     0.31547   0.21026   0.83333   0.00000  Uiso   1.00
O677   O     0.31547   0.28974   0.83333   0.00000  Uiso   1.00
O678   O     0.18453   0.21026   0.83334   0.00000  Uiso   1.00
O679   O     0.25000   0.28973   0.76178   0.00000  Uiso   1.00
O680   O     0.25000   0.21027   0.90489   0.00000  Uiso   1.00
O681   O     0.25000   0.28973   0.90489   0.00000  Uiso   1.00
O682   O     0.25000   0.21027   0.76178   0.00000  Uiso   1.00
Zn683  Zn    0.25000   0.30307   0.83333   0.00000  Uiso   1.00
Zn684  Zn    0.25000   0.19693   0.83333   0.00000  Uiso   1.00
C685   C     0.66400   0.25002   0.83327   0.00000  Uiso   1.00
C686   C     0.71490   0.44735   0.81109   0.00000  Uiso   1.00
C687   C     0.75018   0.25000   0.73952   0.00000  Uiso   1.00
C688   C     0.74981   0.25000   0.92715   0.00000  Uiso   1.00
C689   C     0.75000   0.02669   0.83333   0.00000  Uiso   1.00
C690   C     0.75000   0.47331   0.83333   0.00000  Uiso   1.00
C691   C     0.75008   0.25001   0.68845   0.00000  Uiso   1.00
C692   C     0.74991   0.25001   0.97821   0.00000  Uiso   1.00
C693   C     0.54624   0.26885   0.87200   0.00000  Uiso   1.00
C694   C     0.95280   0.22334   0.87184   0.00000  Uiso   1.00
C695   C     0.95376   0.26877   0.79467   0.00000  Uiso   1.00
C696   C     0.83600   0.25002   0.83339   0.00000  Uiso   1.00
C697   C     0.54720   0.22324   0.79494   0.00000  Uiso   1.00
C698   C     0.59254   0.27218   0.87120   0.00000  Uiso   1.00
C699   C     0.90643   0.22553   0.87278   0.00000  Uiso   1.00
C700   C     0.90747   0.27210   0.79545   0.00000  Uiso   1.00
C701   C     0.59357   0.22544   0.79397   0.00000  Uiso   1.00
C702   C     0.61606   0.24990   0.83237   0.00000  Uiso   1.00
C703   C     0.88394   0.24990   0.83431   0.00000  Uiso   1.00
C704   C     0.52399   0.24493   0.83373   0.00000  Uiso   1.00
C705   C     0.97601   0.24494   0.83300   0.00000  Uiso   1.00
C706   C     0.61738   0.34668   0.90424   0.00000  Uiso   1.00
C707   C     0.73003   0.10224   0.79513   0.00000  Uiso   1.00
C708   C     0.87037   0.23570   0.95240   0.00000  Uiso   1.00
C709   C     0.88258   0.34653   0.76225   0.00000  Uiso   1.00
C710   C     0.62954   0.23534   0.71425   0.00000  Uiso   1.00
C711   C     0.78434   0.39776   0.85534   0.00000  Uiso   1.00
C712   C     0.76997   0.10224   0.87154   0.00000  Uiso   1.00
C713   C     0.71566   0.39776   0.81132   0.00000  Uiso   1.00
C714   C     0.72981   0.05265   0.79429   0.00000  Uiso   1.00
C715   C     0.78510   0.44735   0.85557   0.00000  Uiso   1.00
C716   C     0.77019   0.05264   0.87237   0.00000  Uiso   1.00
H717   H     0.71429   0.12158   0.76495   0.00000  Uiso   1.00
H718   H     0.58331   0.36213   0.90729   0.00000  Uiso   1.00
H719   H     0.63177   0.35601   0.86731   0.00000  Uiso   1.00
H720   H     0.63899   0.36211   0.93390   0.00000  Uiso   1.00
H721   H     0.89774   0.17363   0.92610   0.00000  Uiso   1.00
H722   H     0.90096   0.24978   0.97083   0.00000  Uiso   1.00
H723   H     0.85014   0.21661   0.98065   0.00000  Uiso   1.00
H724   H     0.85008   0.26545   0.93763   0.00000  Uiso   1.00
H725   H     0.89603   0.28671   0.72118   0.00000  Uiso   1.00
H726   H     0.91664   0.36199   0.75921   0.00000  Uiso   1.00
H727   H     0.86815   0.35591   0.79914   0.00000  Uiso   1.00
H728   H     0.81146   0.37842   0.87272   0.00000  Uiso   1.00
H729   H     0.86099   0.36189   0.73254   0.00000  Uiso   1.00
H730   H     0.60231   0.17333   0.74090   0.00000  Uiso   1.00
H731   H     0.59891   0.24921   0.69569   0.00000  Uiso   1.00
H732   H     0.64987   0.21617   0.68612   0.00000  Uiso   1.00
H733   H     0.64971   0.26523   0.72886   0.00000  Uiso   1.00
H734   H     0.71441   0.03495   0.76278   0.00000  Uiso   1.00
H735   H     0.81343   0.46504   0.87252   0.00000  Uiso   1.00
H736   H     0.78559   0.03494   0.90388   0.00000  Uiso   1.00
H737   H     0.68657   0.46505   0.79414   0.00000  Uiso   1.00
H738   H     0.78571   0.12157   0.90172   0.00000  Uiso   1.00
H739   H     0.68854   0.37843   0.79394   0.00000  Uiso   1.00
H740   H     0.52756   0.28572   0.90173   0.00000  Uiso   1.00
H741   H     0.97079   0.20531   0.90149   0.00000  Uiso   1.00
H742   H     0.97245   0.28558   0.76491   0.00000  Uiso   1.00
H743   H     0.52921   0.20514   0.76534   0.00000  Uiso   1.00
H744   H     0.60400   0.28692   0.94545   0.00000  Uiso   1.00
N745   N     0.75000   0.12624   0.83333   0.00000  Uiso   1.00
N746   N     0.75000   0.37377   0.83333   0.00000  Uiso   1.00
N747   N     0.61548   0.29607   0.91044   0.00000  Uiso   1.00
N748   N     0.88257   0.20374   0.91258   0.00000  Uiso   1.00
N749   N     0.88453   0.29591   0.75615   0.00000  Uiso   1.00
N750   N     0.61743   0.20353   0.75424   0.00000  Uiso   1.00
O751   O     0.68453   0.28974   0.83334   0.00000  Uiso   1.00
O752   O     0.81547   0.21026   0.83333   0.00000  Uiso   1.00
O753   O     0.81547   0.28974   0.83333   0.00000  Uiso   1.00
O754   O     0.68453   0.21026   0.83334   0.00000  Uiso   1.00
O755   O     0.75000   0.28973   0.76178   0.00000  Uiso   1.00
O756   O     0.75000   0.21027   0.90489   0.00000  Uiso   1.00
O757   O     0.75000   0.28973   0.90489   0.00000  Uiso   1.00
O758   O     0.75000   0.21027   0.76178   0.00000  Uiso   1.00
Zn759  Zn    0.75000   0.30307   0.83333   0.00000  Uiso   1.00
Zn760  Zn    0.75000   0.19693   0.83333   0.00000  Uiso   1.00
C761   C     0.16400   0.75002   0.83327   0.00000  Uiso   1.00
C762   C     0.21490   0.94735   0.81109   0.00000  Uiso   1.00
C763   C     0.25018   0.75000   0.73952   0.00000  Uiso   1.00
C764   C     0.24981   0.75000   0.92715   0.00000  Uiso   1.00
C765   C     0.25000   0.52669   0.83333   0.00000  Uiso   1.00
C766   C     0.25000   0.97331   0.83333   0.00000  Uiso   1.00
C767   C     0.25008   0.75001   0.68845   0.00000  Uiso   1.00
C768   C     0.24991   0.75001   0.97821   0.00000  Uiso   1.00
C769   C     0.04624   0.76885   0.87200   0.00000  Uiso   1.00
C770   C     0.45280   0.72334   0.87184   0.00000  Uiso   1.00
C771   C     0.45376   0.76877   0.79467   0.00000  Uiso   1.00
C772   C     0.33600   0.75002   0.83339   0.00000  Uiso   1.00
C773   C     0.04720   0.72324   0.79494   0.00000  Uiso   1.00
C774   C     0.09254   0.77218   0.87120   0.00000  Uiso   1.00
C775   C     0.40643   0.72553   0.87278   0.00000  Uiso   1.00
C776   C     0.40747   0.77210   0.79545   0.00000  Uiso   1.00
C777   C     0.09357   0.72544   0.79397   0.00000  Uiso   1.00
C778   C     0.11606   0.74990   0.83237   0.00000  Uiso   1.00
C779   C     0.38394   0.74990   0.83431   0.00000  Uiso   1.00
C780   C     0.02399   0.74493   0.83373   0.00000  Uiso   1.00
C781   C     0.47601   0.74494   0.83300   0.00000  Uiso   1.00
C782   C     0.11738   0.84668   0.90424   0.00000  Uiso   1.00
C783   C     0.23003   0.60224   0.79513   0.00000  Uiso   1.00
C784   C     0.37037   0.73570   0.95240   0.00000  Uiso   1.00
C785   C     0.38258   0.84653   0.76225   0.00000  Uiso   1.00
C786   C     0.12954   0.73534   0.71425   0.00000  Uiso   1.00
C787   C     0.28434   0.89776   0.85534   0.00000  Uiso   1.00
C788   C     0.26997   0.60224   0.87154   0.00000  Uiso   1.00
C789   C     0.21566   0.89776   0.81132   0.00000  Uiso   1.00
C790   C     0.22981   0.55265   0.79429   0.00000  Uiso   1.00
C791   C     0.28510   0.94735   0.85557   0.00000  Uiso   1.00
C792   C     0.27019   0.55264   0.87237   0.00000  Uiso   1.00
H793   H     0.21429   0.62158   0.76495   0.00000  Uiso   1.00
H794   H     0.08331   0.86213   0.90729   0.00000  Uiso   1.00
H795   H     0.13177   0.85601   0.86731   0.00000  Uiso   1.00
H796   H     0.13899   0.86211   0.93390   0.00000  Uiso   1.00
H797   H     0.39774   0.67363   0.92610   0.00000  Uiso   1.00
H798   H     0.40096   0.74978   0.97083   0.00000  Uiso   1.00
H799   H     0.35014   0.71661   0.98065   0.00000  Uiso   1.00
H800   H     0.35008   0.76545   0.93763   0.00000  Uiso   1.00
H801   H     0.39603   0.78671   0.72118   0.00000  Uiso   1.00
H802   H     0.41664   0.86199   0.75921   0.00000  Uiso   1.00
H803   H     0.36815   0.85591   0.79914   0.00000  Uiso   1.00
H804   H     0.31146   0.87842   0.87272   0.00000  Uiso   1.00
H805   H     0.36099   0.86189   0.73254   0.00000  Uiso   1.00
H806   H     0.10231   0.67333   0.74090   0.00000  Uiso   1.00
H807   H     0.09891   0.74921   0.69569   0.00000  Uiso   1.00
H808   H     0.14987   0.71617   0.68612   0.00000  Uiso   1.00
H809   H     0.14971   0.76523   0.72886   0.00000  Uiso   1.00
H810   H     0.21441   0.53495   0.76278   0.00000  Uiso   1.00
H811   H     0.31343   0.96504   0.87252   0.00000  Uiso   1.00
H812   H     0.28559   0.53494   0.90388   0.00000  Uiso   1.00
H813   H     0.18657   0.96505   0.79414   0.00000  Uiso   1.00
H814   H     0.28571   0.62157   0.90172   0.00000  Uiso   1.00
H815   H     0.18854   0.87843   0.79394   0.00000  Uiso   1.00
H816   H     0.02756   0.78572   0.90173   0.00000  Uiso   1.00
H817   H     0.47079   0.70531   0.90149   0.00000  Uiso   1.00
H818   H     0.47245   0.78558   0.76491   0.00000  Uiso   1.00
H819   H     0.02921   0.70514   0.76534   0.00000  Uiso   1.00
H820   H     0.10400   0.78692   0.94545   0.00000  Uiso   1.00
N821   N     0.25000   0.62624   0.83333   0.00000  Uiso   1.00
N822   N     0.25000   0.87377   0.83333   0.00000  Uiso   1.00
N823   N     0.11548   0.79607   0.91044   0.00000  Uiso   1.00
N824   N     0.38257   0.70374   0.91258   0.00000  Uiso   1.00
N825   N     0.38453   0.79591   0.75615   0.00000  Uiso   1.00
N826   N     0.11743   0.70353   0.75424   0.00000  Uiso   1.00
O827   O     0.18453   0.78974   0.83334   0.00000  Uiso   1.00
O828   O     0.31547   0.71026   0.83333   0.00000  Uiso   1.00
O829   O     0.31547   0.78974   0.83333   0.00000  Uiso   1.00
O830   O     0.18453   0.71026   0.83334   0.00000  Uiso   1.00
O831   O     0.25000   0.78973   0.76178   0.00000  Uiso   1.00
O832   O     0.25000   0.71027   0.90489   0.00000  Uiso   1.00
O833   O     0.25000   0.78973   0.90489   0.00000  Uiso   1.00
O834   O     0.25000   0.71027   0.76178   0.00000  Uiso   1.00
Zn835  Zn    0.25000   0.80307   0.83333   0.00000  Uiso   1.00
Zn836  Zn    0.25000   0.69693   0.83333   0.00000  Uiso   1.00
C837   C     0.66400   0.75002   0.83327   0.00000  Uiso   1.00
C838   C     0.71490   0.94735   0.81109   0.00000  Uiso   1.00
C839   C     0.75018   0.75000   0.73952   0.00000  Uiso   1.00
C840   C     0.74981   0.75000   0.92715   0.00000  Uiso   1.00
C841   C     0.75000   0.52669   0.83333   0.00000  Uiso   1.00
C842   C     0.75000   0.97331   0.83333   0.00000  Uiso   1.00
C843   C     0.75008   0.75001   0.68845   0.00000  Uiso   1.00
C844   C     0.74991   0.75001   0.97821   0.00000  Uiso   1.00
C845   C     0.54624   0.76885   0.87200   0.00000  Uiso   1.00
C846   C     0.95280   0.72334   0.87184   0.00000  Uiso   1.00
C847   C     0.95376   0.76877   0.79467   0.00000  Uiso   1.00
C848   C     0.83600   0.75002   0.83339   0.00000  Uiso   1.00
C849   C     0.54720   0.72324   0.79494   0.00000  Uiso   1.00
C850   C     0.59254   0.77218   0.87120   0.00000  Uiso   1.00
C851   C     0.90643   0.72553   0.87278   0.00000  Uiso   1.00
C852   C     0.90747   0.77210   0.79545   0.00000  Uiso   1.00
C853   C     0.59357   0.72544   0.79397   0.00000  Uiso   1.00
C854   C     0.61606   0.74990   0.83237   0.00000  Uiso   1.00
C855   C     0.88394   0.74990   0.83431   0.00000  Uiso   1.00
C856   C     0.52399   0.74493   0.83373   0.00000  Uiso   1.00
C857   C     0.97601   0.74494   0.83300   0.00000  Uiso   1.00
C858   C     0.61738   0.84668   0.90424   0.00000  Uiso   1.00
C859   C     0.73003   0.60224   0.79513   0.00000  Uiso   1.00
C860   C     0.87037   0.73570   0.95240   0.00000  Uiso   1.00
C861   C     0.88258   0.84653   0.76225   0.00000  Uiso   1.00
C862   C     0.62954   0.73534   0.71425   0.00000  Uiso   1.00
C863   C     0.78434   0.89776   0.85534   0.00000  Uiso   1.00
C864   C     0.76997   0.60224   0.87154   0.00000  Uiso   1.00
C865   C     0.71566   0.89776   0.81132   0.00000  Uiso   1.00
C866   C     0.72981   0.55265   0.79429   0.00000  Uiso   1.00
C867   C     0.78510   0.94735   0.85557   0.00000  Uiso   1.00
C868   C     0.77019   0.55264   0.87237   0.00000  Uiso   1.00
H869   H     0.71429   0.62158   0.76495   0.00000  Uiso   1.00
H870   H     0.58331   0.86213   0.90729   0.00000  Uiso   1.00
H871   H     0.63177   0.85601   0.86731   0.00000  Uiso   1.00
H872   H     0.63899   0.86211   0.93390   0.00000  Uiso   1.00
H873   H     0.89774   0.67363   0.92610   0.00000  Uiso   1.00
H874   H     0.90096   0.74978   0.97083   0.00000  Uiso   1.00
H875   H     0.85014   0.71661   0.98065   0.00000  Uiso   1.00
H876   H     0.85008   0.76545   0.93763   0.00000  Uiso   1.00
H877   H     0.89603   0.78671   0.72118   0.00000  Uiso   1.00
H878   H     0.91664   0.86199   0.75921   0.00000  Uiso   1.00
H879   H     0.86815   0.85591   0.79914   0.00000  Uiso   1.00
H880   H     0.81146   0.87842   0.87272   0.00000  Uiso   1.00
H881   H     0.86099   0.86189   0.73254   0.00000  Uiso   1.00
H882   H     0.60231   0.67333   0.74090   0.00000  Uiso   1.00
H883   H     0.59891   0.74921   0.69569   0.00000  Uiso   1.00
H884   H     0.64987   0.71617   0.68612   0.00000  Uiso   1.00
H885   H     0.64971   0.76523   0.72886   0.00000  Uiso   1.00
H886   H     0.71441   0.53495   0.76278   0.00000  Uiso   1.00
H887   H     0.81343   0.96504   0.87252   0.00000  Uiso   1.00
H888   H     0.78559   0.53494   0.90388   0.00000  Uiso   1.00
H889   H     0.68657   0.96505   0.79414   0.00000  Uiso   1.00
H890   H     0.78571   0.62157   0.90172   0.00000  Uiso   1.00
H891   H     0.68854   0.87843   0.79394   0.00000  Uiso   1.00
H892   H     0.52756   0.78572   0.90173   0.00000  Uiso   1.00
H893   H     0.97079   0.70531   0.90149   0.00000  Uiso   1.00
H894   H     0.97245   0.78558   0.76491   0.00000  Uiso   1.00
H895   H     0.52921   0.70514   0.76534   0.00000  Uiso   1.00
H896   H     0.60400   0.78692   0.94545   0.00000  Uiso   1.00
N897   N     0.75000   0.62624   0.83333   0.00000  Uiso   1.00
N898   N     0.75000   0.87377   0.83333   0.00000  Uiso   1.00
N899   N     0.61548   0.79607   0.91044   0.00000  Uiso   1.00
N900   N     0.88257   0.70374   0.91258   0.00000  Uiso   1.00
N901   N     0.88453   0.79591   0.75615   0.00000  Uiso   1.00
N902   N     0.61743   0.70353   0.75424   0.00000  Uiso   1.00
O903   O     0.68453   0.78974   0.83334   0.00000  Uiso   1.00
O904   O     0.81547   0.71026   0.83333   0.00000  Uiso   1.00
O905   O     0.81547   0.78974   0.83333   0.00000  Uiso   1.00
O906   O     0.68453   0.71026   0.83334   0.00000  Uiso   1.00
O907   O     0.75000   0.78973   0.76178   0.00000  Uiso   1.00
O908   O     0.75000   0.71027   0.90489   0.00000  Uiso   1.00
O909   O     0.75000   0.78973   0.90489   0.00000  Uiso   1.00
O910   O     0.75000   0.71027   0.76178   0.00000  Uiso   1.00
Zn911  Zn    0.75000   0.80307   0.83333   0.00000  Uiso   1.00
Zn912  Zn    0.75000   0.69693   0.83333   0.00000  Uiso   1.00
loop_
_geom_bond_atom_site_label_1
_geom_bond_atom_site_label_2
_geom_bond_distance
_geom_bond_site_symmetry_2
_ccdc_geom_bond_type
C1     O70     1.284   .     A
C1     C18     1.432   .     S
C1     O67     1.283   .     A
C2     C6      1.411   .     A
C2     C29     1.407   .     A
C2     H53     1.082   .     S
C3     O71     1.275   .     A
C3     C7      1.365   .     S
C3     O74     1.275   .     A
C4     O73     1.275   .     A
C4     O72     1.275   .     A
C4     C8      1.365   .     S
C5     C32     1.411   .     A
C5     C30     1.411   .     A
C5     C158    1.515   1_545 S
C6     C31     1.411   .     A
C6     C157    1.515   .     S
C7     C616    1.165   1_554 S
C8     C311    1.165   .     S
C9     C14     1.387   .     A
C9     C20     1.394   .     A
C9     H56     1.085   .     S
C10    C15     1.387   .     A
C10    H57     1.084   .     S
C10    C21     1.393   .     A
C11    H58     1.084   .     S
C11    C16     1.387   .     A
C11    C21     1.394   .     A
C12    O68     1.284   .     A
C12    C19     1.432   .     S
C12    O69     1.283   .     A
C13    H59     1.084   .     S
C13    C17     1.387   .     A
C13    C20     1.393   .     A
C14    C18     1.406   .     A
C14    N63     1.423   .     S
C15    N64     1.424   .     S
C15    C19     1.408   .     A
C16    C19     1.406   .     A
C16    N65     1.423   .     S
C17    C18     1.408   .     A
C17    N66     1.424   .     S
C20    C97     1.434   1_455 S
C21    C96     1.434   .     S
C22    H36     1.110   .     S
C22    H35     1.110   .     S
C22    H34     1.112   .     S
C22    N63     1.447   .     S
C23    C30     1.407   .     A
C23    N61     1.363   .     A
C23    H33     1.082   .     S
C24    H38     1.111   .     S
C24    H39     1.110   .     S
C24    N64     1.446   .     S
C24    H40     1.111   .     S
C25    H42     1.112   .     S
C25    H43     1.110   .     S
C25    H45     1.110   .     S
C25    N65     1.447   .     S
C26    H48     1.111   .     S
C26    H47     1.111   .     S
C26    H49     1.111   .     S
C26    N66     1.446   .     S
C27    N62     1.363   .     A
C27    C31     1.407   .     A
C27    H44     1.082   .     S
C28    N61     1.363   .     A
C28    H54     1.082   .     S
C28    C32     1.407   .     A
C29    N62     1.363   .     A
C29    H55     1.082   .     S
C30    H50     1.082   .     S
C31    H51     1.082   .     S
C32    H52     1.082   .     S
H37    N64     1.032   .     S
H41    N65     1.031   .     S
H46    N66     1.032   .     S
H60    N63     1.031   .     S
N61    Zn76    2.006   .     S
N62    Zn75    2.006   .     S
O67    Zn75    1.992   .     S
O68    Zn76    1.992   .     S
O69    Zn75    1.992   .     S
O70    Zn76    1.992   .     S
O71    Zn75    1.950   .     S
O72    Zn76    1.950   .     S
O73    Zn75    1.950   .     S
O74    Zn76    1.950   .     S
C77    O146    1.284   .     A
C77    C94     1.432   .     S
C77    O143    1.283   .     A
C78    C82     1.411   .     A
C78    C105    1.407   .     A
C78    H129    1.082   .     S
C79    O147    1.275   .     A
C79    C83     1.365   .     S
C79    O150    1.275   .     A
C80    O149    1.275   .     A
C80    O148    1.275   .     A
C80    C84     1.365   .     S
C81    C108    1.411   .     A
C81    C106    1.411   .     A
C81    C234    1.515   1_545 S
C82    C107    1.411   .     A
C82    C233    1.515   .     S
C83    C692    1.165   1_554 S
C84    C387    1.165   .     S
C85    C90     1.387   .     A
C85    C96     1.394   .     A
C85    H132    1.085   .     S
C86    C91     1.387   .     A
C86    H133    1.084   .     S
C86    C97     1.393   .     A
C87    H134    1.084   .     S
C87    C92     1.387   .     A
C87    C97     1.394   .     A
C88    O144    1.284   .     A
C88    C95     1.432   .     S
C88    O145    1.283   .     A
C89    H135    1.084   .     S
C89    C93     1.387   .     A
C89    C96     1.393   .     A
C90    C94     1.406   .     A
C90    N139    1.423   .     S
C91    N140    1.424   .     S
C91    C95     1.408   .     A
C92    C95     1.406   .     A
C92    N141    1.423   .     S
C93    C94     1.408   .     A
C93    N142    1.424   .     S
C97    C20     1.434   1_655 S
C98    H112    1.110   .     S
C98    H111    1.110   .     S
C98    H110    1.112   .     S
C98    N139    1.447   .     S
C99    C106    1.407   .     A
C99    N137    1.363   .     A
C99    H109    1.082   .     S
C100   H114    1.111   .     S
C100   H115    1.110   .     S
C100   N140    1.446   .     S
C100   H116    1.111   .     S
C101   H118    1.112   .     S
C101   H119    1.110   .     S
C101   H121    1.110   .     S
C101   N141    1.447   .     S
C102   H124    1.111   .     S
C102   H123    1.111   .     S
C102   H125    1.111   .     S
C102   N142    1.446   .     S
C103   N138    1.363   .     A
C103   C107    1.407   .     A
C103   H120    1.082   .     S
C104   N137    1.363   .     A
C104   H130    1.082   .     S
C104   C108    1.407   .     A
C105   N138    1.363   .     A
C105   H131    1.082   .     S
C106   H126    1.082   .     S
C107   H127    1.082   .     S
C108   H128    1.082   .     S
H113   N140    1.032   .     S
H117   N141    1.031   .     S
H122   N142    1.032   .     S
H136   N139    1.031   .     S
N137   Zn152   2.006   .     S
N138   Zn151   2.006   .     S
O143   Zn151   1.992   .     S
O144   Zn152   1.992   .     S
O145   Zn151   1.992   .     S
O146   Zn152   1.992   .     S
O147   Zn151   1.950   .     S
O148   Zn152   1.950   .     S
O149   Zn151   1.950   .     S
O150   Zn152   1.950   .     S
C153   O222    1.284   .     A
C153   C170    1.432   .     S
C153   O219    1.283   .     A
C154   C158    1.411   .     A
C154   C181    1.407   .     A
C154   H205    1.082   .     S
C155   O223    1.275   .     A
C155   C159    1.365   .     S
C155   O226    1.275   .     A
C156   O225    1.275   .     A
C156   O224    1.275   .     A
C156   C160    1.365   .     S
C157   C184    1.411   .     A
C157   C182    1.411   .     A
C158   C183    1.411   .     A
C158   C5      1.515   1_565 S
C159   C768    1.165   1_554 S
C160   C463    1.165   .     S
C161   C166    1.387   .     A
C161   C172    1.394   .     A
C161   H208    1.085   .     S
C162   C167    1.387   .     A
C162   H209    1.084   .     S
C162   C173    1.393   .     A
C163   H210    1.084   .     S
C163   C168    1.387   .     A
C163   C173    1.394   .     A
C164   O220    1.284   .     A
C164   C171    1.432   .     S
C164   O221    1.283   .     A
C165   H211    1.084   .     S
C165   C169    1.387   .     A
C165   C172    1.393   .     A
C166   C170    1.406   .     A
C166   N215    1.423   .     S
C167   N216    1.424   .     S
C167   C171    1.408   .     A
C168   C171    1.406   .     A
C168   N217    1.423   .     S
C169   C170    1.408   .     A
C169   N218    1.424   .     S
C172   C249    1.434   1_455 S
C173   C248    1.434   .     S
C174   H188    1.110   .     S
C174   H187    1.110   .     S
C174   H186    1.112   .     S
C174   N215    1.447   .     S
C175   C182    1.407   .     A
C175   N213    1.363   .     A
C175   H185    1.082   .     S
C176   H190    1.111   .     S
C176   H191    1.110   .     S
C176   N216    1.446   .     S
C176   H192    1.111   .     S
C177   H194    1.112   .     S
C177   H195    1.110   .     S
C177   H197    1.110   .     S
C177   N217    1.447   .     S
C178   H200    1.111   .     S
C178   H199    1.111   .     S
C178   H201    1.111   .     S
C178   N218    1.446   .     S
C179   N214    1.363   .     A
C179   C183    1.407   .     A
C179   H196    1.082   .     S
C180   N213    1.363   .     A
C180   H206    1.082   .     S
C180   C184    1.407   .     A
C181   N214    1.363   .     A
C181   H207    1.082   .     S
C182   H202    1.082   .     S
C183   H203    1.082   .     S
C184   H204    1.082   .     S
H189   N216    1.032   .     S
H193   N217    1.031   .     S
H198   N218    1.032   .     S
H212   N215    1.031   .     S
N213   Zn228   2.006   .     S
N214   Zn227   2.006   .     S
O219   Zn227   1.992   .     S
O220   Zn228   1.992   .     S
O221   Zn227   1.992   .     S
O222   Zn228   1.992   .     S
O223   Zn227   1.950   .     S
O224   Zn228   1.950   .     S
O225   Zn227   1.950   .     S
O226   Zn228   1.950   .     S
C229   O298    1.284   .     A
C229   C246    1.432   .     S
C229   O295    1.283   .     A
C230   C234    1.411   .     A
C230   C257    1.407   .     A
C230   H281    1.082   .     S
C231   O299    1.275   .     A
C231   C235    1.365   .     S
C231   O302    1.275   .     A
C232   O301    1.275   .     A
C232   O300    1.275   .     A
C232   C236    1.365   .     S
C233   C260    1.411   .     A
C233   C258    1.411   .     A
C234   C259    1.411   .     A
C234   C81     1.515   1_565 S
C235   C844    1.165   1_554 S
C236   C539    1.165   .     S
C237   C242    1.387   .     A
C237   C248    1.394   .     A
C237   H284    1.085   .     S
C238   C243    1.387   .     A
C238   H285    1.084   .     S
C238   C249    1.393   .     A
C239   H286    1.084   .     S
C239   C244    1.387   .     A
C239   C249    1.394   .     A
C240   O296    1.284   .     A
C240   C247    1.432   .     S
C240   O297    1.283   .     A
C241   H287    1.084   .     S
C241   C245    1.387   .     A
C241   C248    1.393   .     A
C242   C246    1.406   .     A
C242   N291    1.423   .     S
C243   N292    1.424   .     S
C243   C247    1.408   .     A
C244   C247    1.406   .     A
C244   N293    1.423   .     S
C245   C246    1.408   .     A
C245   N294    1.424   .     S
C249   C172    1.434   1_655 S
C250   H264    1.110   .     S
C250   H263    1.110   .     S
C250   H262    1.112   .     S
C250   N291    1.447   .     S
C251   C258    1.407   .     A
C251   N289    1.363   .     A
C251   H261    1.082   .     S
C252   H266    1.111   .     S
C252   H267    1.110   .     S
C252   N292    1.446   .     S
C252   H268    1.111   .     S
C253   H270    1.112   .     S
C253   H271    1.110   .     S
C253   H273    1.110   .     S
C253   N293    1.447   .     S
C254   H276    1.111   .     S
C254   H275    1.111   .     S
C254   H277    1.111   .     S
C254   N294    1.446   .     S
C255   N290    1.363   .     A
C255   C259    1.407   .     A
C255   H272    1.082   .     S
C256   N289    1.363   .     A
C256   H282    1.082   .     S
C256   C260    1.407   .     A
C257   N290    1.363   .     A
C257   H283    1.082   .     S
C258   H278    1.082   .     S
C259   H279    1.082   .     S
C260   H280    1.082   .     S
H265   N292    1.032   .     S
H269   N293    1.031   .     S
H274   N294    1.032   .     S
H288   N291    1.031   .     S
N289   Zn304   2.006   .     S
N290   Zn303   2.006   .     S
O295   Zn303   1.992   .     S
O296   Zn304   1.992   .     S
O297   Zn303   1.992   .     S
O298   Zn304   1.992   .     S
O299   Zn303   1.950   .     S
O300   Zn304   1.950   .     S
O301   Zn303   1.950   .     S
O302   Zn304   1.950   .     S
C305   O374    1.284   .     A
C305   C322    1.432   .     S
C305   O371    1.283   .     A
C306   C310    1.411   .     A
C306   C333    1.407   .     A
C306   H357    1.082   .     S
C307   O375    1.275   .     A
C307   C311    1.365   .     S
C307   O378    1.275   .     A
C308   O377    1.275   .     A
C308   O376    1.275   .     A
C308   C312    1.365   .     S
C309   C336    1.411   .     A
C309   C334    1.411   .     A
C309   C462    1.515   1_545 S
C310   C335    1.411   .     A
C310   C461    1.515   .     S
C312   C615    1.165   .     S
C313   C318    1.387   .     A
C313   C324    1.394   .     A
C313   H360    1.085   .     S
C314   C319    1.387   .     A
C314   H361    1.084   .     S
C314   C325    1.393   .     A
C315   H362    1.084   .     S
C315   C320    1.387   .     A
C315   C325    1.394   .     A
C316   O372    1.284   .     A
C316   C323    1.432   .     S
C316   O373    1.283   .     A
C317   H363    1.084   .     S
C317   C321    1.387   .     A
C317   C324    1.393   .     A
C318   C322    1.406   .     A
C318   N367    1.423   .     S
C319   N368    1.424   .     S
C319   C323    1.408   .     A
C320   C323    1.406   .     A
C320   N369    1.423   .     S
C321   C322    1.408   .     A
C321   N370    1.424   .     S
C324   C401    1.434   1_455 S
C325   C400    1.434   .     S
C326   H340    1.110   .     S
C326   H339    1.110   .     S
C326   H338    1.112   .     S
C326   N367    1.447   .     S
C327   C334    1.407   .     A
C327   N365    1.363   .     A
C327   H337    1.082   .     S
C328   H342    1.111   .     S
C328   H343    1.110   .     S
C328   N368    1.446   .     S
C328   H344    1.111   .     S
C329   H346    1.112   .     S
C329   H347    1.110   .     S
C329   H349    1.110   .     S
C329   N369    1.447   .     S
C330   H352    1.111   .     S
C330   H351    1.111   .     S
C330   H353    1.111   .     S
C330   N370    1.446   .     S
C331   N366    1.363   .     A
C331   C335    1.407   .     A
C331   H348    1.082   .     S
C332   N365    1.363   .     A
C332   H358    1.082   .     S
C332   C336    1.407   .     A
C333   N366    1.363   .     A
C333   H359    1.082   .     S
C334   H354    1.082   .     S
C335   H355    1.082   .     S
C336   H356    1.082   .     S
H341   N368    1.032   .     S
H345   N369    1.031   .     S
H350   N370    1.032   .     S
H364   N367    1.031   .     S
N365   Zn380   2.006   .     S
N366   Zn379   2.006   .     S
O371   Zn379   1.992   .     S
O372   Zn380   1.992   .     S
O373   Zn379   1.992   .     S
O374   Zn380   1.992   .     S
O375   Zn379   1.950   .     S
O376   Zn380   1.950   .     S
O377   Zn379   1.950   .     S
O378   Zn380   1.950   .     S
C381   O450    1.284   .     A
C381   C398    1.432   .     S
C381   O447    1.283   .     A
C382   C386    1.411   .     A
C382   C409    1.407   .     A
C382   H433    1.082   .     S
C383   O451    1.275   .     A
C383   C387    1.365   .     S
C383   O454    1.275   .     A
C384   O453    1.275   .     A
C384   O452    1.275   .     A
C384   C388    1.365   .     S
C385   C412    1.411   .     A
C385   C410    1.411   .     A
C385   C538    1.515   1_545 S
C386   C411    1.411   .     A
C386   C537    1.515   .     S
C388   C691    1.165   .     S
C389   C394    1.387   .     A
C389   C400    1.394   .     A
C389   H436    1.085   .     S
C390   C395    1.387   .     A
C390   H437    1.084   .     S
C390   C401    1.393   .     A
C391   H438    1.084   .     S
C391   C396    1.387   .     A
C391   C401    1.394   .     A
C392   O448    1.284   .     A
C392   C399    1.432   .     S
C392   O449    1.283   .     A
C393   H439    1.084   .     S
C393   C397    1.387   .     A
C393   C400    1.393   .     A
C394   C398    1.406   .     A
C394   N443    1.423   .     S
C395   N444    1.424   .     S
C395   C399    1.408   .     A
C396   C399    1.406   .     A
C396   N445    1.423   .     S
C397   C398    1.408   .     A
C397   N446    1.424   .     S
C401   C324    1.434   1_655 S
C402   H416    1.110   .     S
C402   H415    1.110   .     S
C402   H414    1.112   .     S
C402   N443    1.447   .     S
C403   C410    1.407   .     A
C403   N441    1.363   .     A
C403   H413    1.082   .     S
C404   H418    1.111   .     S
C404   H419    1.110   .     S
C404   N444    1.446   .     S
C404   H420    1.111   .     S
C405   H422    1.112   .     S
C405   H423    1.110   .     S
C405   H425    1.110   .     S
C405   N445    1.447   .     S
C406   H428    1.111   .     S
C406   H427    1.111   .     S
C406   H429    1.111   .     S
C406   N446    1.446   .     S
C407   N442    1.363   .     A
C407   C411    1.407   .     A
C407   H424    1.082   .     S
C408   N441    1.363   .     A
C408   H434    1.082   .     S
C408   C412    1.407   .     A
C409   N442    1.363   .     A
C409   H435    1.082   .     S
C410   H430    1.082   .     S
C411   H431    1.082   .     S
C412   H432    1.082   .     S
H417   N444    1.032   .     S
H421   N445    1.031   .     S
H426   N446    1.032   .     S
H440   N443    1.031   .     S
N441   Zn456   2.006   .     S
N442   Zn455   2.006   .     S
O447   Zn455   1.992   .     S
O448   Zn456   1.992   .     S
O449   Zn455   1.992   .     S
O450   Zn456   1.992   .     S
O451   Zn455   1.950   .     S
O452   Zn456   1.950   .     S
O453   Zn455   1.950   .     S
O454   Zn456   1.950   .     S
C457   O526    1.284   .     A
C457   C474    1.432   .     S
C457   O523    1.283   .     A
C458   C462    1.411   .     A
C458   C485    1.407   .     A
C458   H509    1.082   .     S
C459   O527    1.275   .     A
C459   C463    1.365   .     S
C459   O530    1.275   .     A
C460   O529    1.275   .     A
C460   O528    1.275   .     A
C460   C464    1.365   .     S
C461   C488    1.411   .     A
C461   C486    1.411   .     A
C462   C487    1.411   .     A
C462   C309    1.515   1_565 S
C464   C767    1.165   .     S
C465   C470    1.387   .     A
C465   C476    1.394   .     A
C465   H512    1.085   .     S
C466   C471    1.387   .     A
C466   H513    1.084   .     S
C466   C477    1.393   .     A
C467   H514    1.084   .     S
C467   C472    1.387   .     A
C467   C477    1.394   .     A
C468   O524    1.284   .     A
C468   C475    1.432   .     S
C468   O525    1.283   .     A
C469   H515    1.084   .     S
C469   C473    1.387   .     A
C469   C476    1.393   .     A
C470   C474    1.406   .     A
C470   N519    1.423   .     S
C471   N520    1.424   .     S
C471   C475    1.408   .     A
C472   C475    1.406   .     A
C472   N521    1.423   .     S
C473   C474    1.408   .     A
C473   N522    1.424   .     S
C476   C553    1.434   1_455 S
C477   C552    1.434   .     S
C478   H492    1.110   .     S
C478   H491    1.110   .     S
C478   H490    1.112   .     S
C478   N519    1.447   .     S
C479   C486    1.407   .     A
C479   N517    1.363   .     A
C479   H489    1.082   .     S
C480   H494    1.111   .     S
C480   H495    1.110   .     S
C480   N520    1.446   .     S
C480   H496    1.111   .     S
C481   H498    1.112   .     S
C481   H499    1.110   .     S
C481   H501    1.110   .     S
C481   N521    1.447   .     S
C482   H504    1.111   .     S
C482   H503    1.111   .     S
C482   H505    1.111   .     S
C482   N522    1.446   .     S
C483   N518    1.363   .     A
C483   C487    1.407   .     A
C483   H500    1.082   .     S
C484   N517    1.363   .     A
C484   H510    1.082   .     S
C484   C488    1.407   .     A
C485   N518    1.363   .     A
C485   H511    1.082   .     S
C486   H506    1.082   .     S
C487   H507    1.082   .     S
C488   H508    1.082   .     S
H493   N520    1.032   .     S
H497   N521    1.031   .     S
H502   N522    1.032   .     S
H516   N519    1.031   .     S
N517   Zn532   2.006   .     S
N518   Zn531   2.006   .     S
O523   Zn531   1.992   .     S
O524   Zn532   1.992   .     S
O525   Zn531   1.992   .     S
O526   Zn532   1.992   .     S
O527   Zn531   1.950   .     S
O528   Zn532   1.950   .     S
O529   Zn531   1.950   .     S
O530   Zn532   1.950   .     S
C533   O602    1.284   .     A
C533   C550    1.432   .     S
C533   O599    1.283   .     A
C534   C538    1.411   .     A
C534   C561    1.407   .     A
C534   H585    1.082   .     S
C535   O603    1.275   .     A
C535   C539    1.365   .     S
C535   O606    1.275   .     A
C536   O605    1.275   .     A
C536   O604    1.275   .     A
C536   C540    1.365   .     S
C537   C564    1.411   .     A
C537   C562    1.411   .     A
C538   C563    1.411   .     A
C538   C385    1.515   1_565 S
C540   C843    1.165   .     S
C541   C546    1.387   .     A
C541   C552    1.394   .     A
C541   H588    1.085   .     S
C542   C547    1.387   .     A
C542   H589    1.084   .     S
C542   C553    1.393   .     A
C543   H590    1.084   .     S
C543   C548    1.387   .     A
C543   C553    1.394   .     A
C544   O600    1.284   .     A
C544   C551    1.432   .     S
C544   O601    1.283   .     A
C545   H591    1.084   .     S
C545   C549    1.387   .     A
C545   C552    1.393   .     A
C546   C550    1.406   .     A
C546   N595    1.423   .     S
C547   N596    1.424   .     S
C547   C551    1.408   .     A
C548   C551    1.406   .     A
C548   N597    1.423   .     S
C549   C550    1.408   .     A
C549   N598    1.424   .     S
C553   C476    1.434   1_655 S
C554   H568    1.110   .     S
C554   H567    1.110   .     S
C554   H566    1.112   .     S
C554   N595    1.447   .     S
C555   C562    1.407   .     A
C555   N593    1.363   .     A
C555   H565    1.082   .     S
C556   H570    1.111   .     S
C556   H571    1.110   .     S
C556   N596    1.446   .     S
C556   H572    1.111   .     S
C557   H574    1.112   .     S
C557   H575    1.110   .     S
C557   H577    1.110   .     S
C557   N597    1.447   .     S
C558   H580    1.111   .     S
C558   H579    1.111   .     S
C558   H581    1.111   .     S
C558   N598    1.446   .     S
C559   N594    1.363   .     A
C559   C563    1.407   .     A
C559   H576    1.082   .     S
C560   N593    1.363   .     A
C560   H586    1.082   .     S
C560   C564    1.407   .     A
C561   N594    1.363   .     A
C561   H587    1.082   .     S
C562   H582    1.082   .     S
C563   H583    1.082   .     S
C564   H584    1.082   .     S
H569   N596    1.032   .     S
H573   N597    1.031   .     S
H578   N598    1.032   .     S
H592   N595    1.031   .     S
N593   Zn608   2.006   .     S
N594   Zn607   2.006   .     S
O599   Zn607   1.992   .     S
O600   Zn608   1.992   .     S
O601   Zn607   1.992   .     S
O602   Zn608   1.992   .     S
O603   Zn607   1.950   .     S
O604   Zn608   1.950   .     S
O605   Zn607   1.950   .     S
O606   Zn608   1.950   .     S
C609   O678    1.284   .     A
C609   C626    1.432   .     S
C609   O675    1.283   .     A
C610   C614    1.411   .     A
C610   C637    1.407   .     A
C610   H661    1.082   .     S
C611   O679    1.275   .     A
C611   C615    1.365   .     S
C611   O682    1.275   .     A
C612   O681    1.275   .     A
C612   O680    1.275   .     A
C612   C616    1.365   .     S
C613   C640    1.411   .     A
C613   C638    1.411   .     A
C613   C766    1.515   1_545 S
C614   C639    1.411   .     A
C614   C765    1.515   .     S
C616   C7      1.165   1_556 S
C617   C622    1.387   .     A
C617   C628    1.394   .     A
C617   H664    1.085   .     S
C618   C623    1.387   .     A
C618   H665    1.084   .     S
C618   C629    1.393   .     A
C619   H666    1.084   .     S
C619   C624    1.387   .     A
C619   C629    1.394   .     A
C620   O676    1.284   .     A
C620   C627    1.432   .     S
C620   O677    1.283   .     A
C621   H667    1.084   .     S
C621   C625    1.387   .     A
C621   C628    1.393   .     A
C622   C626    1.406   .     A
C622   N671    1.423   .     S
C623   N672    1.424   .     S
C623   C627    1.408   .     A
C624   C627    1.406   .     A
C624   N673    1.423   .     S
C625   C626    1.408   .     A
C625   N674    1.424   .     S
C628   C705    1.434   1_455 S
C629   C704    1.434   .     S
C630   H644    1.110   .     S
C630   H643    1.110   .     S
C630   H642    1.112   .     S
C630   N671    1.447   .     S
C631   C638    1.407   .     A
C631   N669    1.363   .     A
C631   H641    1.082   .     S
C632   H646    1.111   .     S
C632   H647    1.110   .     S
C632   N672    1.446   .     S
C632   H648    1.111   .     S
C633   H650    1.112   .     S
C633   H651    1.110   .     S
C633   H653    1.110   .     S
C633   N673    1.447   .     S
C634   H656    1.111   .     S
C634   H655    1.111   .     S
C634   H657    1.111   .     S
C634   N674    1.446   .     S
C635   N670    1.363   .     A
C635   C639    1.407   .     A
C635   H652    1.082   .     S
C636   N669    1.363   .     A
C636   H662    1.082   .     S
C636   C640    1.407   .     A
C637   N670    1.363   .     A
C637   H663    1.082   .     S
C638   H658    1.082   .     S
C639   H659    1.082   .     S
C640   H660    1.082   .     S
H645   N672    1.032   .     S
H649   N673    1.031   .     S
H654   N674    1.032   .     S
H668   N671    1.031   .     S
N669   Zn684   2.006   .     S
N670   Zn683   2.006   .     S
O675   Zn683   1.992   .     S
O676   Zn684   1.992   .     S
O677   Zn683   1.992   .     S
O678   Zn684   1.992   .     S
O679   Zn683   1.950   .     S
O680   Zn684   1.950   .     S
O681   Zn683   1.950   .     S
O682   Zn684   1.950   .     S
C685   O754    1.284   .     A
C685   C702    1.432   .     S
C685   O751    1.283   .     A
C686   C690    1.411   .     A
C686   C713    1.407   .     A
C686   H737    1.082   .     S
C687   O755    1.275   .     A
C687   C691    1.365   .     S
C687   O758    1.275   .     A
C688   O757    1.275   .     A
C688   O756    1.275   .     A
C688   C692    1.365   .     S
C689   C716    1.411   .     A
C689   C714    1.411   .     A
C689   C842    1.515   1_545 S
C690   C715    1.411   .     A
C690   C841    1.515   .     S
C692   C83     1.165   1_556 S
C693   C698    1.387   .     A
C693   C704    1.394   .     A
C693   H740    1.085   .     S
C694   C699    1.387   .     A
C694   H741    1.084   .     S
C694   C705    1.393   .     A
C695   H742    1.084   .     S
C695   C700    1.387   .     A
C695   C705    1.394   .     A
C696   O752    1.284   .     A
C696   C703    1.432   .     S
C696   O753    1.283   .     A
C697   H743    1.084   .     S
C697   C701    1.387   .     A
C697   C704    1.393   .     A
C698   C702    1.406   .     A
C698   N747    1.423   .     S
C699   N748    1.424   .     S
C699   C703    1.408   .     A
C700   C703    1.406   .     A
C700   N749    1.423   .     S
C701   C702    1.408   .     A
C701   N750    1.424   .     S
C705   C628    1.434   1_655 S
C706   H720    1.110   .     S
C706   H719    1.110   .     S
C706   H718    1.112   .     S
C706   N747    1.447   .     S
C707   C714    1.407   .     A
C707   N745    1.363   .     A
C707   H717    1.082   .     S
C708   H722    1.111   .     S
C708   H723    1.110   .     S
C708   N748    1.446   .     S
C708   H724    1.111   .     S
C709   H726    1.112   .     S
C709   H727    1.110   .     S
C709   H729    1.110   .     S
C709   N749    1.447   .     S
C710   H732    1.111   .     S
C710   H731    1.111   .     S
C710   H733    1.111   .     S
C710   N750    1.446   .     S
C711   N746    1.363   .     A
C711   C715    1.407   .     A
C711   H728    1.082   .     S
C712   N745    1.363   .     A
C712   H738    1.082   .     S
C712   C716    1.407   .     A
C713   N746    1.363   .     A
C713   H739    1.082   .     S
C714   H734    1.082   .     S
C715   H735    1.082   .     S
C716   H736    1.082   .     S
H721   N748    1.032   .     S
H725   N749    1.031   .     S
H730   N750    1.032   .     S
H744   N747    1.031   .     S
N745   Zn760   2.006   .     S
N746   Zn759   2.006   .     S
O751   Zn759   1.992   .     S
O752   Zn760   1.992   .     S
O753   Zn759   1.992   .     S
O754   Zn760   1.992   .     S
O755   Zn759   1.950   .     S
O756   Zn760   1.950   .     S
O757   Zn759   1.950   .     S
O758   Zn760   1.950   .     S
C761   O830    1.284   .     A
C761   C778    1.432   .     S
C761   O827    1.283   .     A
C762   C766    1.411   .     A
C762   C789    1.407   .     A
C762   H813    1.082   .     S
C763   O831    1.275   .     A
C763   C767    1.365   .     S
C763   O834    1.275   .     A
C764   O833    1.275   .     A
C764   O832    1.275   .     A
C764   C768    1.365   .     S
C765   C792    1.411   .     A
C765   C790    1.411   .     A
C766   C791    1.411   .     A
C766   C613    1.515   1_565 S
C768   C159    1.165   1_556 S
C769   C774    1.387   .     A
C769   C780    1.394   .     A
C769   H816    1.085   .     S
C770   C775    1.387   .     A
C770   H817    1.084   .     S
C770   C781    1.393   .     A
C771   H818    1.084   .     S
C771   C776    1.387   .     A
C771   C781    1.394   .     A
C772   O828    1.284   .     A
C772   C779    1.432   .     S
C772   O829    1.283   .     A
C773   H819    1.084   .     S
C773   C777    1.387   .     A
C773   C780    1.393   .     A
C774   C778    1.406   .     A
C774   N823    1.423   .     S
C775   N824    1.424   .     S
C775   C779    1.408   .     A
C776   C779    1.406   .     A
C776   N825    1.423   .     S
C777   C778    1.408   .     A
C777   N826    1.424   .     S
C780   C857    1.434   1_455 S
C781   C856    1.434   .     S
C782   H796    1.110   .     S
C782   H795    1.110   .     S
C782   H794    1.112   .     S
C782   N823    1.447   .     S
C783   C790    1.407   .     A
C783   N821    1.363   .     A
C783   H793    1.082   .     S
C784   H798    1.111   .     S
C784   H799    1.110   .     S
C784   N824    1.446   .     S
C784   H800    1.111   .     S
C785   H802    1.112   .     S
C785   H803    1.110   .     S
C785   H805    1.110   .     S
C785   N825    1.447   .     S
C786   H808    1.111   .     S
C786   H807    1.111   .     S
C786   H809    1.111   .     S
C786   N826    1.446   .     S
C787   N822    1.363   .     A
C787   C791    1.407   .     A
C787   H804    1.082   .     S
C788   N821    1.363   .     A
C788   H814    1.082   .     S
C788   C792    1.407   .     A
C789   N822    1.363   .     A
C789   H815    1.082   .     S
C790   H810    1.082   .     S
C791   H811    1.082   .     S
C792   H812    1.082   .     S
H797   N824    1.032   .     S
H801   N825    1.031   .     S
H806   N826    1.032   .     S
H820   N823    1.031   .     S
N821   Zn836   2.006   .     S
N822   Zn835   2.006   .     S
O827   Zn835   1.992   .     S
O828   Zn836   1.992   .     S
O829   Zn835   1.992   .     S
O830   Zn836   1.992   .     S
O831   Zn835   1.950   .     S
O832   Zn836   1.950   .     S
O833   Zn835   1.950   .     S
O834   Zn836   1.950   .     S
C837   O906    1.284   .     A
C837   C854    1.432   .     S
C837   O903    1.283   .     A
C838   C842    1.411   .     A
C838   C865    1.407   .     A
C838   H889    1.082   .     S
C839   O907    1.275   .     A
C839   C843    1.365   .     S
C839   O910    1.275   .     A
C840   O909    1.275   .     A
C840   O908    1.275   .     A
C840   C844    1.365   .     S
C841   C868    1.411   .     A
C841   C866    1.411   .     A
C842   C867    1.411   .     A
C842   C689    1.515   1_565 S
C844   C235    1.165   1_556 S
C845   C850    1.387   .     A
C845   C856    1.394   .     A
C845   H892    1.085   .     S
C846   C851    1.387   .     A
C846   H893    1.084   .     S
C846   C857    1.393   .     A
C847   H894    1.084   .     S
C847   C852    1.387   .     A
C847   C857    1.394   .     A
C848   O904    1.284   .     A
C848   C855    1.432   .     S
C848   O905    1.283   .     A
C849   H895    1.084   .     S
C849   C853    1.387   .     A
C849   C856    1.393   .     A
C850   C854    1.406   .     A
C850   N899    1.423   .     S
C851   N900    1.424   .     S
C851   C855    1.408   .     A
C852   C855    1.406   .     A
C852   N901    1.423   .     S
C853   C854    1.408   .     A
C853   N902    1.424   .     S
C857   C780    1.434   1_655 S
C858   H872    1.110   .     S
C858   H871    1.110   .     S
C858   H870    1.112   .     S
C858   N899    1.447   .     S
C859   C866    1.407   .     A
C859   N897    1.363   .     A
C859   H869    1.082   .     S
C860   H874    1.111   .     S
C860   H875    1.110   .     S
C860   N900    1.446   .     S
C860   H876    1.111   .     S
C861   H878    1.112   .     S
C861   H879    1.110   .     S
C861   H881    1.110   .     S
C861   N901    1.447   .     S
C862   H884    1.111   .     S
C862   H883    1.111   .     S
C862   H885    1.111   .     S
C862   N902    1.446   .     S
C863   N898    1.363   .     A
C863   C867    1.407   .     A
C863   H880    1.082   .     S
C864   N897    1.363   .     A
C864   H890    1.082   .     S
C864   C868    1.407   .     A
C865   N898    1.363   .     A
C865   H891    1.082   .     S
C866   H886    1.082   .     S
C867   H887    1.082   .     S
C868   H888    1.082   .     S
H873   N900    1.032   .     S
H877   N901    1.031   .     S
H882   N902    1.032   .     S
H896   N899    1.031   .     S
N897   Zn912   2.006   .     S
N898   Zn911   2.006   .     S
O903   Zn911   1.992   .     S
O904   Zn912   1.992   .     S
O905   Zn911   1.992   .     S
O906   Zn912   1.992   .     S
O907   Zn911   1.950   .     S
O908   Zn912   1.950   .     S
O909   Zn911   1.950   .     S
O910   Zn912   1.950   .     S
