data_str_m3_o1_o16_pcu_sym.237
_audit_creation_date              2020-01-03
_audit_creation_method            'Materials Studio'
_symmetry_space_group_name_H-M    'P1'
_symmetry_Int_Tables_number       1
_symmetry_cell_setting            triclinic
loop_
_symmetry_equiv_pos_as_xyz
  x,y,z
_cell_length_a                    29.8496
_cell_length_b                    32.2026
_cell_length_c                    26.2145
_cell_angle_alpha                 90.8597
_cell_angle_beta                  68.6798
_cell_angle_gamma                 87.3885
loop_
_atom_site_label
_atom_site_type_symbol
_atom_site_fract_x
_atom_site_fract_y
_atom_site_fract_z
_atom_site_U_iso_or_equiv
_atom_site_adp_type
_atom_site_occupancy
C1     C     0.16545   0.24645   0.25114   0.00000  Uiso   1.00
C2     C     0.14296   0.16143   0.49341   0.00000  Uiso   1.00
C3     C     0.15066   0.14700   0.43964   0.00000  Uiso   1.00
C4     C     0.18126   0.15522   0.01346   0.00000  Uiso   1.00
C5     C     0.22167   0.12753   0.48434   0.00000  Uiso   1.00
C6     C     0.22187   0.10528   0.43743   0.00000  Uiso   1.00
C7     C     0.18638   0.11453   0.41558   0.00000  Uiso   1.00
C8     C     0.18206   0.17702   0.06023   0.00000  Uiso   1.00
C9     C     0.25281   0.13639   0.05774   0.00000  Uiso   1.00
C10    C     0.12161   0.16490   0.41244   0.00000  Uiso   1.00
C11    C     0.20456   0.30877   0.21704   0.00000  Uiso   1.00
C12    C     0.13964   0.16603   0.35245   0.00000  Uiso   1.00
C13    C     0.20661   0.01777   0.21780   0.00000  Uiso   1.00
C14    C     0.16664   0.04228   0.25274   0.00000  Uiso   1.00
C15    C     0.12453   0.02356   0.28702   0.00000  Uiso   1.00
C16    C     0.12401   0.31388   0.28726   0.00000  Uiso   1.00
C17    C     0.16390   0.29044   0.25153   0.00000  Uiso   1.00
C18    C     0.32303   0.14234   0.21292   0.00000  Uiso   1.00
C19    C     0.03731   0.14241   0.21317   0.00000  Uiso   1.00
C20    C     0.01002   0.18930   0.28880   0.00000  Uiso   1.00
C21    C     0.29589   0.19030   0.28770   0.00000  Uiso   1.00
C22    C     0.16703   0.08668   0.25070   0.00000  Uiso   1.00
C23    C     0.19389   0.16660   0.14733   0.00000  Uiso   1.00
C24    C     0.25978   0.12203   0.00446   0.00000  Uiso   1.00
C25    C     0.21179   0.16183   0.08712   0.00000  Uiso   1.00
C26    C     0.07918   0.18811   0.44243   0.00000  Uiso   1.00
C27    C     0.06509   0.19340   0.49891   0.00000  Uiso   1.00
C28    C     0.09629   0.17936   0.02524   0.00000  Uiso   1.00
H29    H     0.05713   0.20233   0.42187   0.00000  Uiso   1.00
H30    H     0.23522   0.28997   0.18964   0.00000  Uiso   1.00
N31    N     0.04760   0.16668   0.25001   0.00000  Uiso   1.00
N32    N     0.28573   0.16665   0.25000   0.00000  Uiso   1.00
O33    O     0.12846   0.22775   0.25000   0.00000  Uiso   1.00
O34    O     0.20490   0.22774   0.25000   0.00000  Uiso   1.00
O35    O     0.10947   0.16666   0.32681   0.00000  Uiso   1.00
O36    O     0.18591   0.16665   0.32681   0.00000  Uiso   1.00
O37    O     0.12843   0.10559   0.24999   0.00000  Uiso   1.00
O38    O     0.20488   0.10558   0.24999   0.00000  Uiso   1.00
O39    O     0.14742   0.16668   0.17319   0.00000  Uiso   1.00
O40    O     0.22387   0.16667   0.17319   0.00000  Uiso   1.00
Zn41   Zn    0.11562   0.16667   0.25000   0.00000  Uiso   1.00
Zn42   Zn    0.21771   0.16666   0.25000   0.00000  Uiso   1.00
N43    N     0.28696   0.12461   0.08224   0.00000  Uiso   1.00
H44    H     0.32028   0.13571   0.05877   0.00000  Uiso   1.00
H45    H     0.29079   0.09214   0.08113   0.00000  Uiso   1.00
N46    N     0.24973   0.03481   0.18234   0.00000  Uiso   1.00
H47    H     0.24080   0.05784   0.15951   0.00000  Uiso   1.00
H48    H     0.26626   0.04735   0.20742   0.00000  Uiso   1.00
N49    N     0.08194   0.04712   0.32170   0.00000  Uiso   1.00
H50    H     0.06472   0.06091   0.29744   0.00000  Uiso   1.00
H51    H     0.09100   0.07005   0.34416   0.00000  Uiso   1.00
N52    N     0.08367   0.29391   0.32461   0.00000  Uiso   1.00
H53    H     0.07917   0.30346   0.36455   0.00000  Uiso   1.00
H54    H     0.05282   0.30378   0.31715   0.00000  Uiso   1.00
N55    N     0.31512   0.11697   0.17226   0.00000  Uiso   1.00
H56    H     0.32783   0.08662   0.17478   0.00000  Uiso   1.00
H57    H     0.27858   0.11566   0.18161   0.00000  Uiso   1.00
C58    C     0.07467   0.11469   0.17596   0.00000  Uiso   1.00
N59    N     0.10435   0.09229   0.14601   0.00000  Uiso   1.00
N60    N     0.01696   0.20969   0.33377   0.00000  Uiso   1.00
H61    H     0.04831   0.22562   0.31874   0.00000  Uiso   1.00
H62    H     0.02163   0.18651   0.35906   0.00000  Uiso   1.00
N63    N     0.25805   0.21567   0.32691   0.00000  Uiso   1.00
H64    H     0.25418   0.20602   0.36613   0.00000  Uiso   1.00
H65    H     0.26828   0.24644   0.32347   0.00000  Uiso   1.00
N66    N     0.25657   0.07136   0.41332   0.00000  Uiso   1.00
H67    H     0.23846   0.04407   0.41509   0.00000  Uiso   1.00
H68    H     0.27570   0.07753   0.37227   0.00000  Uiso   1.00
C69    C     0.30622   0.10201   0.47199   0.00000  Uiso   1.00
N70    N     0.01011   0.08623   0.44633   0.00000  Uiso   1.00
C71    C     0.16042   0.21880   0.07547   0.00000  Uiso   1.00
N72    N     0.14359   0.25228   0.08762   0.00000  Uiso   1.00
N73    N     0.07826   0.17782   0.08386   0.00000  Uiso   1.00
H74    H     0.04953   0.15828   0.09532   0.00000  Uiso   1.00
H75    H     0.06451   0.20746   0.10062   0.00000  Uiso   1.00
C76    C     0.01906   0.21453   0.02918   0.00000  Uiso   1.00
N77    N     0.31549   0.23143   0.05346   0.00000  Uiso   1.00
N78    N     0.18365   0.08615   0.37418   0.00000  Uiso   1.00
H79    H     0.21138   0.09175   0.33740   0.00000  Uiso   1.00
H80    H     0.15042   0.08900   0.36977   0.00000  Uiso   1.00
C81    C     0.49878   0.24645   0.25114   0.00000  Uiso   1.00
C82    C     0.47629   0.16143   0.49341   0.00000  Uiso   1.00
C83    C     0.48399   0.14700   0.43964   0.00000  Uiso   1.00
C84    C     0.51459   0.15522   0.01346   0.00000  Uiso   1.00
C85    C     0.55500   0.12753   0.48434   0.00000  Uiso   1.00
C86    C     0.55520   0.10528   0.43743   0.00000  Uiso   1.00
C87    C     0.51972   0.11453   0.41558   0.00000  Uiso   1.00
C88    C     0.51539   0.17702   0.06023   0.00000  Uiso   1.00
C89    C     0.58614   0.13639   0.05774   0.00000  Uiso   1.00
C90    C     0.45494   0.16490   0.41244   0.00000  Uiso   1.00
C91    C     0.53789   0.30877   0.21704   0.00000  Uiso   1.00
C92    C     0.47297   0.16603   0.35245   0.00000  Uiso   1.00
C93    C     0.53994   0.01777   0.21780   0.00000  Uiso   1.00
C94    C     0.49997   0.04228   0.25274   0.00000  Uiso   1.00
C95    C     0.45786   0.02356   0.28702   0.00000  Uiso   1.00
C96    C     0.45734   0.31388   0.28726   0.00000  Uiso   1.00
C97    C     0.49724   0.29044   0.25153   0.00000  Uiso   1.00
C98    C     0.65637   0.14234   0.21292   0.00000  Uiso   1.00
C99    C     0.37064   0.14241   0.21317   0.00000  Uiso   1.00
C100   C     0.34336   0.18930   0.28880   0.00000  Uiso   1.00
C101   C     0.62923   0.19030   0.28770   0.00000  Uiso   1.00
C102   C     0.50037   0.08668   0.25070   0.00000  Uiso   1.00
C103   C     0.52722   0.16660   0.14733   0.00000  Uiso   1.00
C104   C     0.59312   0.12203   0.00446   0.00000  Uiso   1.00
C105   C     0.54512   0.16183   0.08712   0.00000  Uiso   1.00
C106   C     0.41252   0.18811   0.44243   0.00000  Uiso   1.00
C107   C     0.39842   0.19340   0.49891   0.00000  Uiso   1.00
C108   C     0.42962   0.17936   0.02524   0.00000  Uiso   1.00
H109   H     0.39047   0.20233   0.42187   0.00000  Uiso   1.00
H110   H     0.56855   0.28997   0.18964   0.00000  Uiso   1.00
N111   N     0.38093   0.16668   0.25001   0.00000  Uiso   1.00
N112   N     0.61906   0.16665   0.25000   0.00000  Uiso   1.00
O113   O     0.46179   0.22775   0.25000   0.00000  Uiso   1.00
O114   O     0.53823   0.22774   0.25000   0.00000  Uiso   1.00
O115   O     0.44280   0.16666   0.32681   0.00000  Uiso   1.00
O116   O     0.51924   0.16665   0.32681   0.00000  Uiso   1.00
O117   O     0.46177   0.10559   0.24999   0.00000  Uiso   1.00
O118   O     0.53821   0.10558   0.24999   0.00000  Uiso   1.00
O119   O     0.48076   0.16668   0.17319   0.00000  Uiso   1.00
O120   O     0.55720   0.16667   0.17319   0.00000  Uiso   1.00
Zn121  Zn    0.44896   0.16667   0.25000   0.00000  Uiso   1.00
Zn122  Zn    0.55104   0.16666   0.25000   0.00000  Uiso   1.00
N123   N     0.62030   0.12461   0.08224   0.00000  Uiso   1.00
H124   H     0.65362   0.13571   0.05877   0.00000  Uiso   1.00
H125   H     0.62413   0.09214   0.08113   0.00000  Uiso   1.00
N126   N     0.58307   0.03481   0.18234   0.00000  Uiso   1.00
H127   H     0.57413   0.05784   0.15951   0.00000  Uiso   1.00
H128   H     0.59959   0.04735   0.20742   0.00000  Uiso   1.00
N129   N     0.41528   0.04712   0.32170   0.00000  Uiso   1.00
H130   H     0.39805   0.06091   0.29744   0.00000  Uiso   1.00
H131   H     0.42433   0.07005   0.34416   0.00000  Uiso   1.00
N132   N     0.41700   0.29391   0.32461   0.00000  Uiso   1.00
H133   H     0.41251   0.30346   0.36455   0.00000  Uiso   1.00
H134   H     0.38615   0.30378   0.31715   0.00000  Uiso   1.00
N135   N     0.64846   0.11697   0.17226   0.00000  Uiso   1.00
H136   H     0.66116   0.08662   0.17478   0.00000  Uiso   1.00
H137   H     0.61191   0.11566   0.18161   0.00000  Uiso   1.00
C138   C     0.40801   0.11469   0.17596   0.00000  Uiso   1.00
N139   N     0.43768   0.09229   0.14601   0.00000  Uiso   1.00
N140   N     0.35030   0.20969   0.33377   0.00000  Uiso   1.00
H141   H     0.38164   0.22562   0.31874   0.00000  Uiso   1.00
H142   H     0.35496   0.18651   0.35906   0.00000  Uiso   1.00
N143   N     0.59139   0.21567   0.32691   0.00000  Uiso   1.00
H144   H     0.58751   0.20602   0.36613   0.00000  Uiso   1.00
H145   H     0.60161   0.24644   0.32347   0.00000  Uiso   1.00
N146   N     0.58990   0.07136   0.41332   0.00000  Uiso   1.00
H147   H     0.57179   0.04407   0.41509   0.00000  Uiso   1.00
H148   H     0.60904   0.07753   0.37227   0.00000  Uiso   1.00
C149   C     0.63956   0.10201   0.47199   0.00000  Uiso   1.00
N150   N     0.34344   0.08623   0.44633   0.00000  Uiso   1.00
C151   C     0.49375   0.21880   0.07547   0.00000  Uiso   1.00
N152   N     0.47693   0.25228   0.08762   0.00000  Uiso   1.00
N153   N     0.41160   0.17782   0.08386   0.00000  Uiso   1.00
H154   H     0.38287   0.15828   0.09532   0.00000  Uiso   1.00
H155   H     0.39784   0.20746   0.10062   0.00000  Uiso   1.00
C156   C     0.35239   0.21453   0.02918   0.00000  Uiso   1.00
N157   N     0.64883   0.23143   0.05346   0.00000  Uiso   1.00
N158   N     0.51698   0.08615   0.37418   0.00000  Uiso   1.00
H159   H     0.54471   0.09175   0.33740   0.00000  Uiso   1.00
H160   H     0.48376   0.08900   0.36977   0.00000  Uiso   1.00
C161   C     0.83211   0.24645   0.25114   0.00000  Uiso   1.00
C162   C     0.80963   0.16143   0.49341   0.00000  Uiso   1.00
C163   C     0.81733   0.14700   0.43964   0.00000  Uiso   1.00
C164   C     0.84792   0.15522   0.01346   0.00000  Uiso   1.00
C165   C     0.88833   0.12753   0.48434   0.00000  Uiso   1.00
C166   C     0.88853   0.10528   0.43743   0.00000  Uiso   1.00
C167   C     0.85305   0.11453   0.41558   0.00000  Uiso   1.00
C168   C     0.84873   0.17702   0.06023   0.00000  Uiso   1.00
C169   C     0.91948   0.13639   0.05774   0.00000  Uiso   1.00
C170   C     0.78828   0.16490   0.41244   0.00000  Uiso   1.00
C171   C     0.87122   0.30877   0.21704   0.00000  Uiso   1.00
C172   C     0.80631   0.16603   0.35245   0.00000  Uiso   1.00
C173   C     0.87328   0.01777   0.21780   0.00000  Uiso   1.00
C174   C     0.83330   0.04228   0.25274   0.00000  Uiso   1.00
C175   C     0.79119   0.02356   0.28702   0.00000  Uiso   1.00
C176   C     0.79067   0.31388   0.28726   0.00000  Uiso   1.00
C177   C     0.83057   0.29044   0.25153   0.00000  Uiso   1.00
C178   C     0.98970   0.14234   0.21292   0.00000  Uiso   1.00
C179   C     0.70398   0.14241   0.21317   0.00000  Uiso   1.00
C180   C     0.67669   0.18930   0.28880   0.00000  Uiso   1.00
C181   C     0.96256   0.19030   0.28770   0.00000  Uiso   1.00
C182   C     0.83370   0.08668   0.25070   0.00000  Uiso   1.00
C183   C     0.86055   0.16660   0.14733   0.00000  Uiso   1.00
C184   C     0.92645   0.12203   0.00446   0.00000  Uiso   1.00
C185   C     0.87845   0.16183   0.08712   0.00000  Uiso   1.00
C186   C     0.74585   0.18811   0.44243   0.00000  Uiso   1.00
C187   C     0.73175   0.19340   0.49891   0.00000  Uiso   1.00
C188   C     0.76296   0.17936   0.02524   0.00000  Uiso   1.00
H189   H     0.72380   0.20233   0.42187   0.00000  Uiso   1.00
H190   H     0.90189   0.28997   0.18964   0.00000  Uiso   1.00
N191   N     0.71426   0.16668   0.25001   0.00000  Uiso   1.00
N192   N     0.95239   0.16665   0.25000   0.00000  Uiso   1.00
O193   O     0.79512   0.22775   0.25000   0.00000  Uiso   1.00
O194   O     0.87157   0.22774   0.25000   0.00000  Uiso   1.00
O195   O     0.77613   0.16666   0.32681   0.00000  Uiso   1.00
O196   O     0.85258   0.16665   0.32681   0.00000  Uiso   1.00
O197   O     0.79510   0.10559   0.24999   0.00000  Uiso   1.00
O198   O     0.87154   0.10558   0.24999   0.00000  Uiso   1.00
O199   O     0.81409   0.16668   0.17319   0.00000  Uiso   1.00
O200   O     0.89053   0.16667   0.17319   0.00000  Uiso   1.00
Zn201  Zn    0.78229   0.16667   0.25000   0.00000  Uiso   1.00
Zn202  Zn    0.88438   0.16666   0.25000   0.00000  Uiso   1.00
N203   N     0.95363   0.12461   0.08224   0.00000  Uiso   1.00
H204   H     0.98695   0.13571   0.05877   0.00000  Uiso   1.00
H205   H     0.95746   0.09214   0.08113   0.00000  Uiso   1.00
N206   N     0.91640   0.03481   0.18234   0.00000  Uiso   1.00
H207   H     0.90746   0.05784   0.15951   0.00000  Uiso   1.00
H208   H     0.93292   0.04735   0.20742   0.00000  Uiso   1.00
N209   N     0.74861   0.04712   0.32170   0.00000  Uiso   1.00
H210   H     0.73138   0.06091   0.29744   0.00000  Uiso   1.00
H211   H     0.75766   0.07005   0.34416   0.00000  Uiso   1.00
N212   N     0.75033   0.29391   0.32461   0.00000  Uiso   1.00
H213   H     0.74584   0.30346   0.36455   0.00000  Uiso   1.00
H214   H     0.71948   0.30378   0.31715   0.00000  Uiso   1.00
N215   N     0.98179   0.11697   0.17226   0.00000  Uiso   1.00
H216   H     0.99450   0.08662   0.17478   0.00000  Uiso   1.00
H217   H     0.94524   0.11566   0.18161   0.00000  Uiso   1.00
C218   C     0.74134   0.11469   0.17596   0.00000  Uiso   1.00
N219   N     0.77102   0.09229   0.14601   0.00000  Uiso   1.00
N220   N     0.68363   0.20969   0.33377   0.00000  Uiso   1.00
H221   H     0.71497   0.22562   0.31874   0.00000  Uiso   1.00
H222   H     0.68830   0.18651   0.35906   0.00000  Uiso   1.00
N223   N     0.92472   0.21567   0.32691   0.00000  Uiso   1.00
H224   H     0.92085   0.20602   0.36613   0.00000  Uiso   1.00
H225   H     0.93494   0.24644   0.32347   0.00000  Uiso   1.00
N226   N     0.92323   0.07136   0.41332   0.00000  Uiso   1.00
H227   H     0.90513   0.04407   0.41509   0.00000  Uiso   1.00
H228   H     0.94237   0.07753   0.37227   0.00000  Uiso   1.00
C229   C     0.97289   0.10201   0.47199   0.00000  Uiso   1.00
N230   N     0.67677   0.08623   0.44633   0.00000  Uiso   1.00
C231   C     0.82709   0.21880   0.07547   0.00000  Uiso   1.00
N232   N     0.81026   0.25228   0.08762   0.00000  Uiso   1.00
N233   N     0.74493   0.17782   0.08386   0.00000  Uiso   1.00
H234   H     0.71620   0.15828   0.09532   0.00000  Uiso   1.00
H235   H     0.73118   0.20746   0.10062   0.00000  Uiso   1.00
C236   C     0.68573   0.21453   0.02918   0.00000  Uiso   1.00
N237   N     0.98216   0.23143   0.05346   0.00000  Uiso   1.00
N238   N     0.85031   0.08615   0.37418   0.00000  Uiso   1.00
H239   H     0.87805   0.09175   0.33740   0.00000  Uiso   1.00
H240   H     0.81709   0.08900   0.36977   0.00000  Uiso   1.00
C241   C     0.16545   0.57978   0.25114   0.00000  Uiso   1.00
C242   C     0.14296   0.49476   0.49341   0.00000  Uiso   1.00
C243   C     0.15066   0.48033   0.43964   0.00000  Uiso   1.00
C244   C     0.18126   0.48855   0.01346   0.00000  Uiso   1.00
C245   C     0.22167   0.46086   0.48434   0.00000  Uiso   1.00
C246   C     0.22187   0.43861   0.43743   0.00000  Uiso   1.00
C247   C     0.18638   0.44787   0.41558   0.00000  Uiso   1.00
C248   C     0.18206   0.51035   0.06023   0.00000  Uiso   1.00
C249   C     0.25281   0.46972   0.05774   0.00000  Uiso   1.00
C250   C     0.12161   0.49823   0.41244   0.00000  Uiso   1.00
C251   C     0.20456   0.64211   0.21704   0.00000  Uiso   1.00
C252   C     0.13964   0.49936   0.35245   0.00000  Uiso   1.00
C253   C     0.20661   0.35110   0.21780   0.00000  Uiso   1.00
C254   C     0.16664   0.37561   0.25274   0.00000  Uiso   1.00
C255   C     0.12453   0.35689   0.28702   0.00000  Uiso   1.00
C256   C     0.12401   0.64721   0.28726   0.00000  Uiso   1.00
C257   C     0.16390   0.62377   0.25153   0.00000  Uiso   1.00
C258   C     0.32303   0.47567   0.21292   0.00000  Uiso   1.00
C259   C     0.03731   0.47574   0.21317   0.00000  Uiso   1.00
C260   C     0.01002   0.52263   0.28880   0.00000  Uiso   1.00
C261   C     0.29589   0.52363   0.28770   0.00000  Uiso   1.00
C262   C     0.16703   0.42002   0.25070   0.00000  Uiso   1.00
C263   C     0.19389   0.49993   0.14733   0.00000  Uiso   1.00
C264   C     0.25978   0.45536   0.00446   0.00000  Uiso   1.00
C265   C     0.21179   0.49516   0.08712   0.00000  Uiso   1.00
C266   C     0.07918   0.52144   0.44243   0.00000  Uiso   1.00
C267   C     0.06509   0.52673   0.49891   0.00000  Uiso   1.00
C268   C     0.09629   0.51270   0.02524   0.00000  Uiso   1.00
H269   H     0.05713   0.53567   0.42187   0.00000  Uiso   1.00
H270   H     0.23522   0.62330   0.18964   0.00000  Uiso   1.00
N271   N     0.04760   0.50001   0.25001   0.00000  Uiso   1.00
N272   N     0.28573   0.49998   0.25000   0.00000  Uiso   1.00
O273   O     0.12846   0.56108   0.25000   0.00000  Uiso   1.00
O274   O     0.20490   0.56107   0.25000   0.00000  Uiso   1.00
O275   O     0.10947   0.50000   0.32681   0.00000  Uiso   1.00
O276   O     0.18591   0.49999   0.32681   0.00000  Uiso   1.00
O277   O     0.12843   0.43893   0.24999   0.00000  Uiso   1.00
O278   O     0.20488   0.43892   0.24999   0.00000  Uiso   1.00
O279   O     0.14742   0.50001   0.17319   0.00000  Uiso   1.00
O280   O     0.22387   0.50000   0.17319   0.00000  Uiso   1.00
Zn281  Zn    0.11562   0.50001   0.25000   0.00000  Uiso   1.00
Zn282  Zn    0.21771   0.49999   0.25000   0.00000  Uiso   1.00
N283   N     0.28696   0.45794   0.08224   0.00000  Uiso   1.00
H284   H     0.32028   0.46904   0.05877   0.00000  Uiso   1.00
H285   H     0.29079   0.42548   0.08113   0.00000  Uiso   1.00
N286   N     0.24973   0.36814   0.18234   0.00000  Uiso   1.00
H287   H     0.24080   0.39117   0.15951   0.00000  Uiso   1.00
H288   H     0.26626   0.38068   0.20742   0.00000  Uiso   1.00
N289   N     0.08194   0.38045   0.32170   0.00000  Uiso   1.00
H290   H     0.06472   0.39425   0.29744   0.00000  Uiso   1.00
H291   H     0.09100   0.40338   0.34416   0.00000  Uiso   1.00
N292   N     0.08367   0.62724   0.32461   0.00000  Uiso   1.00
H293   H     0.07917   0.63679   0.36455   0.00000  Uiso   1.00
H294   H     0.05282   0.63711   0.31715   0.00000  Uiso   1.00
N295   N     0.31512   0.45031   0.17226   0.00000  Uiso   1.00
H296   H     0.32783   0.41996   0.17478   0.00000  Uiso   1.00
H297   H     0.27858   0.44899   0.18161   0.00000  Uiso   1.00
C298   C     0.07467   0.44803   0.17596   0.00000  Uiso   1.00
N299   N     0.10435   0.42562   0.14601   0.00000  Uiso   1.00
N300   N     0.01696   0.54302   0.33377   0.00000  Uiso   1.00
H301   H     0.04831   0.55895   0.31874   0.00000  Uiso   1.00
H302   H     0.02163   0.51985   0.35906   0.00000  Uiso   1.00
N303   N     0.25805   0.54901   0.32691   0.00000  Uiso   1.00
H304   H     0.25418   0.53936   0.36613   0.00000  Uiso   1.00
H305   H     0.26828   0.57977   0.32347   0.00000  Uiso   1.00
N306   N     0.25657   0.40470   0.41332   0.00000  Uiso   1.00
H307   H     0.23846   0.37740   0.41509   0.00000  Uiso   1.00
H308   H     0.27570   0.41086   0.37227   0.00000  Uiso   1.00
C309   C     0.30622   0.43535   0.47199   0.00000  Uiso   1.00
N310   N     0.01011   0.41957   0.44633   0.00000  Uiso   1.00
C311   C     0.16042   0.55214   0.07547   0.00000  Uiso   1.00
N312   N     0.14359   0.58562   0.08762   0.00000  Uiso   1.00
N313   N     0.07826   0.51116   0.08386   0.00000  Uiso   1.00
H314   H     0.04953   0.49161   0.09532   0.00000  Uiso   1.00
H315   H     0.06451   0.54079   0.10062   0.00000  Uiso   1.00
C316   C     0.01906   0.54786   0.02918   0.00000  Uiso   1.00
N317   N     0.31549   0.56476   0.05346   0.00000  Uiso   1.00
N318   N     0.18365   0.41948   0.37418   0.00000  Uiso   1.00
H319   H     0.21138   0.42509   0.33740   0.00000  Uiso   1.00
H320   H     0.15042   0.42233   0.36977   0.00000  Uiso   1.00
C321   C     0.49878   0.57978   0.25114   0.00000  Uiso   1.00
C322   C     0.47629   0.49476   0.49341   0.00000  Uiso   1.00
C323   C     0.48399   0.48033   0.43964   0.00000  Uiso   1.00
C324   C     0.51459   0.48855   0.01346   0.00000  Uiso   1.00
C325   C     0.55500   0.46086   0.48434   0.00000  Uiso   1.00
C326   C     0.55520   0.43861   0.43743   0.00000  Uiso   1.00
C327   C     0.51972   0.44787   0.41558   0.00000  Uiso   1.00
C328   C     0.51539   0.51035   0.06023   0.00000  Uiso   1.00
C329   C     0.58614   0.46972   0.05774   0.00000  Uiso   1.00
C330   C     0.45494   0.49823   0.41244   0.00000  Uiso   1.00
C331   C     0.53789   0.64211   0.21704   0.00000  Uiso   1.00
C332   C     0.47297   0.49936   0.35245   0.00000  Uiso   1.00
C333   C     0.53994   0.35110   0.21780   0.00000  Uiso   1.00
C334   C     0.49997   0.37561   0.25274   0.00000  Uiso   1.00
C335   C     0.45786   0.35689   0.28702   0.00000  Uiso   1.00
C336   C     0.45734   0.64721   0.28726   0.00000  Uiso   1.00
C337   C     0.49724   0.62377   0.25153   0.00000  Uiso   1.00
C338   C     0.65637   0.47567   0.21292   0.00000  Uiso   1.00
C339   C     0.37064   0.47574   0.21317   0.00000  Uiso   1.00
C340   C     0.34336   0.52263   0.28880   0.00000  Uiso   1.00
C341   C     0.62923   0.52363   0.28770   0.00000  Uiso   1.00
C342   C     0.50037   0.42002   0.25070   0.00000  Uiso   1.00
C343   C     0.52722   0.49993   0.14733   0.00000  Uiso   1.00
C344   C     0.59312   0.45536   0.00446   0.00000  Uiso   1.00
C345   C     0.54512   0.49516   0.08712   0.00000  Uiso   1.00
C346   C     0.41252   0.52144   0.44243   0.00000  Uiso   1.00
C347   C     0.39842   0.52673   0.49891   0.00000  Uiso   1.00
C348   C     0.42962   0.51270   0.02524   0.00000  Uiso   1.00
H349   H     0.39047   0.53567   0.42187   0.00000  Uiso   1.00
H350   H     0.56855   0.62330   0.18964   0.00000  Uiso   1.00
N351   N     0.38093   0.50001   0.25001   0.00000  Uiso   1.00
N352   N     0.61906   0.49998   0.25000   0.00000  Uiso   1.00
O353   O     0.46179   0.56108   0.25000   0.00000  Uiso   1.00
O354   O     0.53823   0.56107   0.25000   0.00000  Uiso   1.00
O355   O     0.44280   0.50000   0.32681   0.00000  Uiso   1.00
O356   O     0.51924   0.49999   0.32681   0.00000  Uiso   1.00
O357   O     0.46177   0.43893   0.24999   0.00000  Uiso   1.00
O358   O     0.53821   0.43892   0.24999   0.00000  Uiso   1.00
O359   O     0.48076   0.50001   0.17319   0.00000  Uiso   1.00
O360   O     0.55720   0.50000   0.17319   0.00000  Uiso   1.00
Zn361  Zn    0.44896   0.50001   0.25000   0.00000  Uiso   1.00
Zn362  Zn    0.55104   0.49999   0.25000   0.00000  Uiso   1.00
N363   N     0.62030   0.45794   0.08224   0.00000  Uiso   1.00
H364   H     0.65362   0.46904   0.05877   0.00000  Uiso   1.00
H365   H     0.62413   0.42548   0.08113   0.00000  Uiso   1.00
N366   N     0.58307   0.36814   0.18234   0.00000  Uiso   1.00
H367   H     0.57413   0.39117   0.15951   0.00000  Uiso   1.00
H368   H     0.59959   0.38068   0.20742   0.00000  Uiso   1.00
N369   N     0.41528   0.38045   0.32170   0.00000  Uiso   1.00
H370   H     0.39805   0.39425   0.29744   0.00000  Uiso   1.00
H371   H     0.42433   0.40338   0.34416   0.00000  Uiso   1.00
N372   N     0.41700   0.62724   0.32461   0.00000  Uiso   1.00
H373   H     0.41251   0.63679   0.36455   0.00000  Uiso   1.00
H374   H     0.38615   0.63711   0.31715   0.00000  Uiso   1.00
N375   N     0.64846   0.45031   0.17226   0.00000  Uiso   1.00
H376   H     0.66116   0.41996   0.17478   0.00000  Uiso   1.00
H377   H     0.61191   0.44899   0.18161   0.00000  Uiso   1.00
C378   C     0.40801   0.44803   0.17596   0.00000  Uiso   1.00
N379   N     0.43768   0.42562   0.14601   0.00000  Uiso   1.00
N380   N     0.35030   0.54302   0.33377   0.00000  Uiso   1.00
H381   H     0.38164   0.55895   0.31874   0.00000  Uiso   1.00
H382   H     0.35496   0.51985   0.35906   0.00000  Uiso   1.00
N383   N     0.59139   0.54901   0.32691   0.00000  Uiso   1.00
H384   H     0.58751   0.53936   0.36613   0.00000  Uiso   1.00
H385   H     0.60161   0.57977   0.32347   0.00000  Uiso   1.00
N386   N     0.58990   0.40470   0.41332   0.00000  Uiso   1.00
H387   H     0.57179   0.37740   0.41509   0.00000  Uiso   1.00
H388   H     0.60904   0.41086   0.37227   0.00000  Uiso   1.00
C389   C     0.63956   0.43535   0.47199   0.00000  Uiso   1.00
N390   N     0.34344   0.41957   0.44633   0.00000  Uiso   1.00
C391   C     0.49375   0.55214   0.07547   0.00000  Uiso   1.00
N392   N     0.47693   0.58562   0.08762   0.00000  Uiso   1.00
N393   N     0.41160   0.51116   0.08386   0.00000  Uiso   1.00
H394   H     0.38287   0.49161   0.09532   0.00000  Uiso   1.00
H395   H     0.39784   0.54079   0.10062   0.00000  Uiso   1.00
C396   C     0.35239   0.54786   0.02918   0.00000  Uiso   1.00
N397   N     0.64883   0.56476   0.05346   0.00000  Uiso   1.00
N398   N     0.51698   0.41948   0.37418   0.00000  Uiso   1.00
H399   H     0.54471   0.42509   0.33740   0.00000  Uiso   1.00
H400   H     0.48376   0.42233   0.36977   0.00000  Uiso   1.00
C401   C     0.83211   0.57978   0.25114   0.00000  Uiso   1.00
C402   C     0.80963   0.49476   0.49341   0.00000  Uiso   1.00
C403   C     0.81733   0.48033   0.43964   0.00000  Uiso   1.00
C404   C     0.84792   0.48855   0.01346   0.00000  Uiso   1.00
C405   C     0.88833   0.46086   0.48434   0.00000  Uiso   1.00
C406   C     0.88853   0.43861   0.43743   0.00000  Uiso   1.00
C407   C     0.85305   0.44787   0.41558   0.00000  Uiso   1.00
C408   C     0.84873   0.51035   0.06023   0.00000  Uiso   1.00
C409   C     0.91948   0.46972   0.05774   0.00000  Uiso   1.00
C410   C     0.78828   0.49823   0.41244   0.00000  Uiso   1.00
C411   C     0.87122   0.64211   0.21704   0.00000  Uiso   1.00
C412   C     0.80631   0.49936   0.35245   0.00000  Uiso   1.00
C413   C     0.87328   0.35110   0.21780   0.00000  Uiso   1.00
C414   C     0.83330   0.37561   0.25274   0.00000  Uiso   1.00
C415   C     0.79119   0.35689   0.28702   0.00000  Uiso   1.00
C416   C     0.79067   0.64721   0.28726   0.00000  Uiso   1.00
C417   C     0.83057   0.62377   0.25153   0.00000  Uiso   1.00
C418   C     0.98970   0.47567   0.21292   0.00000  Uiso   1.00
C419   C     0.70398   0.47574   0.21317   0.00000  Uiso   1.00
C420   C     0.67669   0.52263   0.28880   0.00000  Uiso   1.00
C421   C     0.96256   0.52363   0.28770   0.00000  Uiso   1.00
C422   C     0.83370   0.42002   0.25070   0.00000  Uiso   1.00
C423   C     0.86055   0.49993   0.14733   0.00000  Uiso   1.00
C424   C     0.92645   0.45536   0.00446   0.00000  Uiso   1.00
C425   C     0.87845   0.49516   0.08712   0.00000  Uiso   1.00
C426   C     0.74585   0.52144   0.44243   0.00000  Uiso   1.00
C427   C     0.73175   0.52673   0.49891   0.00000  Uiso   1.00
C428   C     0.76296   0.51270   0.02524   0.00000  Uiso   1.00
H429   H     0.72380   0.53567   0.42187   0.00000  Uiso   1.00
H430   H     0.90189   0.62330   0.18964   0.00000  Uiso   1.00
N431   N     0.71426   0.50001   0.25001   0.00000  Uiso   1.00
N432   N     0.95239   0.49998   0.25000   0.00000  Uiso   1.00
O433   O     0.79512   0.56108   0.25000   0.00000  Uiso   1.00
O434   O     0.87157   0.56107   0.25000   0.00000  Uiso   1.00
O435   O     0.77613   0.50000   0.32681   0.00000  Uiso   1.00
O436   O     0.85258   0.49999   0.32681   0.00000  Uiso   1.00
O437   O     0.79510   0.43893   0.24999   0.00000  Uiso   1.00
O438   O     0.87154   0.43892   0.24999   0.00000  Uiso   1.00
O439   O     0.81409   0.50001   0.17319   0.00000  Uiso   1.00
O440   O     0.89053   0.50000   0.17319   0.00000  Uiso   1.00
Zn441  Zn    0.78229   0.50001   0.25000   0.00000  Uiso   1.00
Zn442  Zn    0.88438   0.49999   0.25000   0.00000  Uiso   1.00
N443   N     0.95363   0.45794   0.08224   0.00000  Uiso   1.00
H444   H     0.98695   0.46904   0.05877   0.00000  Uiso   1.00
H445   H     0.95746   0.42548   0.08113   0.00000  Uiso   1.00
N446   N     0.91640   0.36814   0.18234   0.00000  Uiso   1.00
H447   H     0.90746   0.39117   0.15951   0.00000  Uiso   1.00
H448   H     0.93292   0.38068   0.20742   0.00000  Uiso   1.00
N449   N     0.74861   0.38045   0.32170   0.00000  Uiso   1.00
H450   H     0.73138   0.39425   0.29744   0.00000  Uiso   1.00
H451   H     0.75766   0.40338   0.34416   0.00000  Uiso   1.00
N452   N     0.75033   0.62724   0.32461   0.00000  Uiso   1.00
H453   H     0.74584   0.63679   0.36455   0.00000  Uiso   1.00
H454   H     0.71948   0.63711   0.31715   0.00000  Uiso   1.00
N455   N     0.98179   0.45031   0.17226   0.00000  Uiso   1.00
H456   H     0.99450   0.41996   0.17478   0.00000  Uiso   1.00
H457   H     0.94524   0.44899   0.18161   0.00000  Uiso   1.00
C458   C     0.74134   0.44803   0.17596   0.00000  Uiso   1.00
N459   N     0.77102   0.42562   0.14601   0.00000  Uiso   1.00
N460   N     0.68363   0.54302   0.33377   0.00000  Uiso   1.00
H461   H     0.71497   0.55895   0.31874   0.00000  Uiso   1.00
H462   H     0.68830   0.51985   0.35906   0.00000  Uiso   1.00
N463   N     0.92472   0.54901   0.32691   0.00000  Uiso   1.00
H464   H     0.92085   0.53936   0.36613   0.00000  Uiso   1.00
H465   H     0.93494   0.57977   0.32347   0.00000  Uiso   1.00
N466   N     0.92323   0.40470   0.41332   0.00000  Uiso   1.00
H467   H     0.90513   0.37740   0.41509   0.00000  Uiso   1.00
H468   H     0.94237   0.41086   0.37227   0.00000  Uiso   1.00
C469   C     0.97289   0.43535   0.47199   0.00000  Uiso   1.00
N470   N     0.67677   0.41957   0.44633   0.00000  Uiso   1.00
C471   C     0.82709   0.55214   0.07547   0.00000  Uiso   1.00
N472   N     0.81026   0.58562   0.08762   0.00000  Uiso   1.00
N473   N     0.74493   0.51116   0.08386   0.00000  Uiso   1.00
H474   H     0.71620   0.49161   0.09532   0.00000  Uiso   1.00
H475   H     0.73118   0.54079   0.10062   0.00000  Uiso   1.00
C476   C     0.68573   0.54786   0.02918   0.00000  Uiso   1.00
N477   N     0.98216   0.56476   0.05346   0.00000  Uiso   1.00
N478   N     0.85031   0.41948   0.37418   0.00000  Uiso   1.00
H479   H     0.87805   0.42509   0.33740   0.00000  Uiso   1.00
H480   H     0.81709   0.42233   0.36977   0.00000  Uiso   1.00
C481   C     0.16545   0.91312   0.25114   0.00000  Uiso   1.00
C482   C     0.14296   0.82810   0.49341   0.00000  Uiso   1.00
C483   C     0.15066   0.81367   0.43964   0.00000  Uiso   1.00
C484   C     0.18126   0.82189   0.01346   0.00000  Uiso   1.00
C485   C     0.22167   0.79420   0.48434   0.00000  Uiso   1.00
C486   C     0.22187   0.77195   0.43743   0.00000  Uiso   1.00
C487   C     0.18638   0.78120   0.41558   0.00000  Uiso   1.00
C488   C     0.18206   0.84369   0.06023   0.00000  Uiso   1.00
C489   C     0.25281   0.80306   0.05774   0.00000  Uiso   1.00
C490   C     0.12161   0.83156   0.41244   0.00000  Uiso   1.00
C491   C     0.20456   0.97544   0.21704   0.00000  Uiso   1.00
C492   C     0.13964   0.83269   0.35245   0.00000  Uiso   1.00
C493   C     0.20661   0.68444   0.21780   0.00000  Uiso   1.00
C494   C     0.16664   0.70894   0.25274   0.00000  Uiso   1.00
C495   C     0.12453   0.69023   0.28702   0.00000  Uiso   1.00
C496   C     0.12401   0.98054   0.28726   0.00000  Uiso   1.00
C497   C     0.16390   0.95710   0.25153   0.00000  Uiso   1.00
C498   C     0.32303   0.80901   0.21292   0.00000  Uiso   1.00
C499   C     0.03731   0.80908   0.21317   0.00000  Uiso   1.00
C500   C     0.01002   0.85597   0.28880   0.00000  Uiso   1.00
C501   C     0.29589   0.85696   0.28770   0.00000  Uiso   1.00
C502   C     0.16703   0.75335   0.25070   0.00000  Uiso   1.00
C503   C     0.19389   0.83326   0.14733   0.00000  Uiso   1.00
C504   C     0.25978   0.78869   0.00446   0.00000  Uiso   1.00
C505   C     0.21179   0.82849   0.08712   0.00000  Uiso   1.00
C506   C     0.07918   0.85477   0.44243   0.00000  Uiso   1.00
C507   C     0.06509   0.86006   0.49891   0.00000  Uiso   1.00
C508   C     0.09629   0.84603   0.02524   0.00000  Uiso   1.00
H509   H     0.05713   0.86900   0.42187   0.00000  Uiso   1.00
H510   H     0.23522   0.95664   0.18964   0.00000  Uiso   1.00
N511   N     0.04760   0.83334   0.25001   0.00000  Uiso   1.00
N512   N     0.28573   0.83331   0.25000   0.00000  Uiso   1.00
O513   O     0.12846   0.89442   0.25000   0.00000  Uiso   1.00
O514   O     0.20490   0.89441   0.25000   0.00000  Uiso   1.00
O515   O     0.10947   0.83333   0.32681   0.00000  Uiso   1.00
O516   O     0.18591   0.83332   0.32681   0.00000  Uiso   1.00
O517   O     0.12843   0.77226   0.24999   0.00000  Uiso   1.00
O518   O     0.20488   0.77225   0.24999   0.00000  Uiso   1.00
O519   O     0.14742   0.83335   0.17319   0.00000  Uiso   1.00
O520   O     0.22387   0.83334   0.17319   0.00000  Uiso   1.00
Zn521  Zn    0.11562   0.83334   0.25000   0.00000  Uiso   1.00
Zn522  Zn    0.21771   0.83333   0.25000   0.00000  Uiso   1.00
N523   N     0.28696   0.79127   0.08224   0.00000  Uiso   1.00
H524   H     0.32028   0.80238   0.05877   0.00000  Uiso   1.00
H525   H     0.29079   0.75881   0.08113   0.00000  Uiso   1.00
N526   N     0.24973   0.70147   0.18234   0.00000  Uiso   1.00
H527   H     0.24080   0.72450   0.15951   0.00000  Uiso   1.00
H528   H     0.26626   0.71401   0.20742   0.00000  Uiso   1.00
N529   N     0.08194   0.71378   0.32170   0.00000  Uiso   1.00
H530   H     0.06472   0.72758   0.29744   0.00000  Uiso   1.00
H531   H     0.09100   0.73672   0.34416   0.00000  Uiso   1.00
N532   N     0.08367   0.96057   0.32461   0.00000  Uiso   1.00
H533   H     0.07917   0.97013   0.36455   0.00000  Uiso   1.00
H534   H     0.05282   0.97044   0.31715   0.00000  Uiso   1.00
N535   N     0.31512   0.78364   0.17226   0.00000  Uiso   1.00
H536   H     0.32783   0.75329   0.17478   0.00000  Uiso   1.00
H537   H     0.27858   0.78233   0.18161   0.00000  Uiso   1.00
C538   C     0.07467   0.78136   0.17596   0.00000  Uiso   1.00
N539   N     0.10435   0.75896   0.14601   0.00000  Uiso   1.00
N540   N     0.01696   0.87635   0.33377   0.00000  Uiso   1.00
H541   H     0.04831   0.89229   0.31874   0.00000  Uiso   1.00
H542   H     0.02163   0.85318   0.35906   0.00000  Uiso   1.00
N543   N     0.25805   0.88234   0.32691   0.00000  Uiso   1.00
H544   H     0.25418   0.87269   0.36613   0.00000  Uiso   1.00
H545   H     0.26828   0.91310   0.32347   0.00000  Uiso   1.00
N546   N     0.25657   0.73803   0.41332   0.00000  Uiso   1.00
H547   H     0.23846   0.71073   0.41509   0.00000  Uiso   1.00
H548   H     0.27570   0.74419   0.37227   0.00000  Uiso   1.00
C549   C     0.30622   0.76868   0.47199   0.00000  Uiso   1.00
N550   N     0.01011   0.75290   0.44633   0.00000  Uiso   1.00
C551   C     0.16042   0.88547   0.07547   0.00000  Uiso   1.00
N552   N     0.14359   0.91895   0.08762   0.00000  Uiso   1.00
N553   N     0.07826   0.84449   0.08386   0.00000  Uiso   1.00
H554   H     0.04953   0.82494   0.09532   0.00000  Uiso   1.00
H555   H     0.06451   0.87412   0.10062   0.00000  Uiso   1.00
C556   C     0.01906   0.88120   0.02918   0.00000  Uiso   1.00
N557   N     0.31549   0.89809   0.05346   0.00000  Uiso   1.00
N558   N     0.18365   0.75282   0.37418   0.00000  Uiso   1.00
H559   H     0.21138   0.75842   0.33740   0.00000  Uiso   1.00
H560   H     0.15042   0.75567   0.36977   0.00000  Uiso   1.00
C561   C     0.49878   0.91312   0.25114   0.00000  Uiso   1.00
C562   C     0.47629   0.82810   0.49341   0.00000  Uiso   1.00
C563   C     0.48399   0.81367   0.43964   0.00000  Uiso   1.00
C564   C     0.51459   0.82189   0.01346   0.00000  Uiso   1.00
C565   C     0.55500   0.79420   0.48434   0.00000  Uiso   1.00
C566   C     0.55520   0.77195   0.43743   0.00000  Uiso   1.00
C567   C     0.51972   0.78120   0.41558   0.00000  Uiso   1.00
C568   C     0.51539   0.84369   0.06023   0.00000  Uiso   1.00
C569   C     0.58614   0.80306   0.05774   0.00000  Uiso   1.00
C570   C     0.45494   0.83156   0.41244   0.00000  Uiso   1.00
C571   C     0.53789   0.97544   0.21704   0.00000  Uiso   1.00
C572   C     0.47297   0.83269   0.35245   0.00000  Uiso   1.00
C573   C     0.53994   0.68444   0.21780   0.00000  Uiso   1.00
C574   C     0.49997   0.70894   0.25274   0.00000  Uiso   1.00
C575   C     0.45786   0.69023   0.28702   0.00000  Uiso   1.00
C576   C     0.45734   0.98054   0.28726   0.00000  Uiso   1.00
C577   C     0.49724   0.95710   0.25153   0.00000  Uiso   1.00
C578   C     0.65637   0.80901   0.21292   0.00000  Uiso   1.00
C579   C     0.37064   0.80908   0.21317   0.00000  Uiso   1.00
C580   C     0.34336   0.85597   0.28880   0.00000  Uiso   1.00
C581   C     0.62923   0.85696   0.28770   0.00000  Uiso   1.00
C582   C     0.50037   0.75335   0.25070   0.00000  Uiso   1.00
C583   C     0.52722   0.83326   0.14733   0.00000  Uiso   1.00
C584   C     0.59312   0.78869   0.00446   0.00000  Uiso   1.00
C585   C     0.54512   0.82849   0.08712   0.00000  Uiso   1.00
C586   C     0.41252   0.85477   0.44243   0.00000  Uiso   1.00
C587   C     0.39842   0.86006   0.49891   0.00000  Uiso   1.00
C588   C     0.42962   0.84603   0.02524   0.00000  Uiso   1.00
H589   H     0.39047   0.86900   0.42187   0.00000  Uiso   1.00
H590   H     0.56855   0.95664   0.18964   0.00000  Uiso   1.00
N591   N     0.38093   0.83334   0.25001   0.00000  Uiso   1.00
N592   N     0.61906   0.83331   0.25000   0.00000  Uiso   1.00
O593   O     0.46179   0.89442   0.25000   0.00000  Uiso   1.00
O594   O     0.53823   0.89441   0.25000   0.00000  Uiso   1.00
O595   O     0.44280   0.83333   0.32681   0.00000  Uiso   1.00
O596   O     0.51924   0.83332   0.32681   0.00000  Uiso   1.00
O597   O     0.46177   0.77226   0.24999   0.00000  Uiso   1.00
O598   O     0.53821   0.77225   0.24999   0.00000  Uiso   1.00
O599   O     0.48076   0.83335   0.17319   0.00000  Uiso   1.00
O600   O     0.55720   0.83334   0.17319   0.00000  Uiso   1.00
Zn601  Zn    0.44896   0.83334   0.25000   0.00000  Uiso   1.00
Zn602  Zn    0.55104   0.83333   0.25000   0.00000  Uiso   1.00
N603   N     0.62030   0.79127   0.08224   0.00000  Uiso   1.00
H604   H     0.65362   0.80238   0.05877   0.00000  Uiso   1.00
H605   H     0.62413   0.75881   0.08113   0.00000  Uiso   1.00
N606   N     0.58307   0.70147   0.18234   0.00000  Uiso   1.00
H607   H     0.57413   0.72450   0.15951   0.00000  Uiso   1.00
H608   H     0.59959   0.71401   0.20742   0.00000  Uiso   1.00
N609   N     0.41528   0.71378   0.32170   0.00000  Uiso   1.00
H610   H     0.39805   0.72758   0.29744   0.00000  Uiso   1.00
H611   H     0.42433   0.73672   0.34416   0.00000  Uiso   1.00
N612   N     0.41700   0.96057   0.32461   0.00000  Uiso   1.00
H613   H     0.41251   0.97013   0.36455   0.00000  Uiso   1.00
H614   H     0.38615   0.97044   0.31715   0.00000  Uiso   1.00
N615   N     0.64846   0.78364   0.17226   0.00000  Uiso   1.00
H616   H     0.66116   0.75329   0.17478   0.00000  Uiso   1.00
H617   H     0.61191   0.78233   0.18161   0.00000  Uiso   1.00
C618   C     0.40801   0.78136   0.17596   0.00000  Uiso   1.00
N619   N     0.43768   0.75896   0.14601   0.00000  Uiso   1.00
N620   N     0.35030   0.87635   0.33377   0.00000  Uiso   1.00
H621   H     0.38164   0.89229   0.31874   0.00000  Uiso   1.00
H622   H     0.35496   0.85318   0.35906   0.00000  Uiso   1.00
N623   N     0.59139   0.88234   0.32691   0.00000  Uiso   1.00
H624   H     0.58751   0.87269   0.36613   0.00000  Uiso   1.00
H625   H     0.60161   0.91310   0.32347   0.00000  Uiso   1.00
N626   N     0.58990   0.73803   0.41332   0.00000  Uiso   1.00
H627   H     0.57179   0.71073   0.41509   0.00000  Uiso   1.00
H628   H     0.60904   0.74419   0.37227   0.00000  Uiso   1.00
C629   C     0.63956   0.76868   0.47199   0.00000  Uiso   1.00
N630   N     0.34344   0.75290   0.44633   0.00000  Uiso   1.00
C631   C     0.49375   0.88547   0.07547   0.00000  Uiso   1.00
N632   N     0.47693   0.91895   0.08762   0.00000  Uiso   1.00
N633   N     0.41160   0.84449   0.08386   0.00000  Uiso   1.00
H634   H     0.38287   0.82494   0.09532   0.00000  Uiso   1.00
H635   H     0.39784   0.87412   0.10062   0.00000  Uiso   1.00
C636   C     0.35239   0.88120   0.02918   0.00000  Uiso   1.00
N637   N     0.64883   0.89809   0.05346   0.00000  Uiso   1.00
N638   N     0.51698   0.75282   0.37418   0.00000  Uiso   1.00
H639   H     0.54471   0.75842   0.33740   0.00000  Uiso   1.00
H640   H     0.48376   0.75567   0.36977   0.00000  Uiso   1.00
C641   C     0.83211   0.91312   0.25114   0.00000  Uiso   1.00
C642   C     0.80963   0.82810   0.49341   0.00000  Uiso   1.00
C643   C     0.81733   0.81367   0.43964   0.00000  Uiso   1.00
C644   C     0.84792   0.82189   0.01346   0.00000  Uiso   1.00
C645   C     0.88833   0.79420   0.48434   0.00000  Uiso   1.00
C646   C     0.88853   0.77195   0.43743   0.00000  Uiso   1.00
C647   C     0.85305   0.78120   0.41558   0.00000  Uiso   1.00
C648   C     0.84873   0.84369   0.06023   0.00000  Uiso   1.00
C649   C     0.91948   0.80306   0.05774   0.00000  Uiso   1.00
C650   C     0.78828   0.83156   0.41244   0.00000  Uiso   1.00
C651   C     0.87122   0.97544   0.21704   0.00000  Uiso   1.00
C652   C     0.80631   0.83269   0.35245   0.00000  Uiso   1.00
C653   C     0.87328   0.68444   0.21780   0.00000  Uiso   1.00
C654   C     0.83330   0.70894   0.25274   0.00000  Uiso   1.00
C655   C     0.79119   0.69023   0.28702   0.00000  Uiso   1.00
C656   C     0.79067   0.98054   0.28726   0.00000  Uiso   1.00
C657   C     0.83057   0.95710   0.25153   0.00000  Uiso   1.00
C658   C     0.98970   0.80901   0.21292   0.00000  Uiso   1.00
C659   C     0.70398   0.80908   0.21317   0.00000  Uiso   1.00
C660   C     0.67669   0.85597   0.28880   0.00000  Uiso   1.00
C661   C     0.96256   0.85696   0.28770   0.00000  Uiso   1.00
C662   C     0.83370   0.75335   0.25070   0.00000  Uiso   1.00
C663   C     0.86055   0.83326   0.14733   0.00000  Uiso   1.00
C664   C     0.92645   0.78869   0.00446   0.00000  Uiso   1.00
C665   C     0.87845   0.82849   0.08712   0.00000  Uiso   1.00
C666   C     0.74585   0.85477   0.44243   0.00000  Uiso   1.00
C667   C     0.73175   0.86006   0.49891   0.00000  Uiso   1.00
C668   C     0.76296   0.84603   0.02524   0.00000  Uiso   1.00
H669   H     0.72380   0.86900   0.42187   0.00000  Uiso   1.00
H670   H     0.90189   0.95664   0.18964   0.00000  Uiso   1.00
N671   N     0.71426   0.83334   0.25001   0.00000  Uiso   1.00
N672   N     0.95239   0.83331   0.25000   0.00000  Uiso   1.00
O673   O     0.79512   0.89442   0.25000   0.00000  Uiso   1.00
O674   O     0.87157   0.89441   0.25000   0.00000  Uiso   1.00
O675   O     0.77613   0.83333   0.32681   0.00000  Uiso   1.00
O676   O     0.85258   0.83332   0.32681   0.00000  Uiso   1.00
O677   O     0.79510   0.77226   0.24999   0.00000  Uiso   1.00
O678   O     0.87154   0.77225   0.24999   0.00000  Uiso   1.00
O679   O     0.81409   0.83335   0.17319   0.00000  Uiso   1.00
O680   O     0.89053   0.83334   0.17319   0.00000  Uiso   1.00
Zn681  Zn    0.78229   0.83334   0.25000   0.00000  Uiso   1.00
Zn682  Zn    0.88438   0.83333   0.25000   0.00000  Uiso   1.00
N683   N     0.95363   0.79127   0.08224   0.00000  Uiso   1.00
H684   H     0.98695   0.80238   0.05877   0.00000  Uiso   1.00
H685   H     0.95746   0.75881   0.08113   0.00000  Uiso   1.00
N686   N     0.91640   0.70147   0.18234   0.00000  Uiso   1.00
H687   H     0.90746   0.72450   0.15951   0.00000  Uiso   1.00
H688   H     0.93292   0.71401   0.20742   0.00000  Uiso   1.00
N689   N     0.74861   0.71378   0.32170   0.00000  Uiso   1.00
H690   H     0.73138   0.72758   0.29744   0.00000  Uiso   1.00
H691   H     0.75766   0.73672   0.34416   0.00000  Uiso   1.00
N692   N     0.75033   0.96057   0.32461   0.00000  Uiso   1.00
H693   H     0.74584   0.97013   0.36455   0.00000  Uiso   1.00
H694   H     0.71948   0.97044   0.31715   0.00000  Uiso   1.00
N695   N     0.98179   0.78364   0.17226   0.00000  Uiso   1.00
H696   H     0.99450   0.75329   0.17478   0.00000  Uiso   1.00
H697   H     0.94524   0.78233   0.18161   0.00000  Uiso   1.00
C698   C     0.74134   0.78136   0.17596   0.00000  Uiso   1.00
N699   N     0.77102   0.75896   0.14601   0.00000  Uiso   1.00
N700   N     0.68363   0.87635   0.33377   0.00000  Uiso   1.00
H701   H     0.71497   0.89229   0.31874   0.00000  Uiso   1.00
H702   H     0.68830   0.85318   0.35906   0.00000  Uiso   1.00
N703   N     0.92472   0.88234   0.32691   0.00000  Uiso   1.00
H704   H     0.92085   0.87269   0.36613   0.00000  Uiso   1.00
H705   H     0.93494   0.91310   0.32347   0.00000  Uiso   1.00
N706   N     0.92323   0.73803   0.41332   0.00000  Uiso   1.00
H707   H     0.90513   0.71073   0.41509   0.00000  Uiso   1.00
H708   H     0.94237   0.74419   0.37227   0.00000  Uiso   1.00
C709   C     0.97289   0.76868   0.47199   0.00000  Uiso   1.00
N710   N     0.67677   0.75290   0.44633   0.00000  Uiso   1.00
C711   C     0.82709   0.88547   0.07547   0.00000  Uiso   1.00
N712   N     0.81026   0.91895   0.08762   0.00000  Uiso   1.00
N713   N     0.74493   0.84449   0.08386   0.00000  Uiso   1.00
H714   H     0.71620   0.82494   0.09532   0.00000  Uiso   1.00
H715   H     0.73118   0.87412   0.10062   0.00000  Uiso   1.00
C716   C     0.68573   0.88120   0.02918   0.00000  Uiso   1.00
N717   N     0.98216   0.89809   0.05346   0.00000  Uiso   1.00
N718   N     0.85031   0.75282   0.37418   0.00000  Uiso   1.00
H719   H     0.87805   0.75842   0.33740   0.00000  Uiso   1.00
H720   H     0.81709   0.75567   0.36977   0.00000  Uiso   1.00
C721   C     0.16545   0.24645   0.75114   0.00000  Uiso   1.00
C722   C     0.14296   0.16143   0.99341   0.00000  Uiso   1.00
C723   C     0.15066   0.14700   0.93964   0.00000  Uiso   1.00
C724   C     0.18126   0.15522   0.51346   0.00000  Uiso   1.00
C725   C     0.22167   0.12753   0.98434   0.00000  Uiso   1.00
C726   C     0.22187   0.10528   0.93743   0.00000  Uiso   1.00
C727   C     0.18638   0.11453   0.91558   0.00000  Uiso   1.00
C728   C     0.18206   0.17702   0.56023   0.00000  Uiso   1.00
C729   C     0.25281   0.13639   0.55774   0.00000  Uiso   1.00
C730   C     0.12161   0.16490   0.91244   0.00000  Uiso   1.00
C731   C     0.20456   0.30877   0.71704   0.00000  Uiso   1.00
C732   C     0.13964   0.16603   0.85245   0.00000  Uiso   1.00
C733   C     0.20661   0.01777   0.71780   0.00000  Uiso   1.00
C734   C     0.16664   0.04228   0.75274   0.00000  Uiso   1.00
C735   C     0.12453   0.02356   0.78702   0.00000  Uiso   1.00
C736   C     0.12401   0.31388   0.78726   0.00000  Uiso   1.00
C737   C     0.16390   0.29044   0.75153   0.00000  Uiso   1.00
C738   C     0.32303   0.14234   0.71292   0.00000  Uiso   1.00
C739   C     0.03731   0.14241   0.71317   0.00000  Uiso   1.00
C740   C     0.01002   0.18930   0.78880   0.00000  Uiso   1.00
C741   C     0.29589   0.19030   0.78770   0.00000  Uiso   1.00
C742   C     0.16703   0.08668   0.75070   0.00000  Uiso   1.00
C743   C     0.19389   0.16660   0.64733   0.00000  Uiso   1.00
C744   C     0.25978   0.12203   0.50446   0.00000  Uiso   1.00
C745   C     0.21179   0.16183   0.58712   0.00000  Uiso   1.00
C746   C     0.07918   0.18811   0.94243   0.00000  Uiso   1.00
C747   C     0.06509   0.19340   0.99891   0.00000  Uiso   1.00
C748   C     0.09629   0.17936   0.52524   0.00000  Uiso   1.00
H749   H     0.05713   0.20233   0.92187   0.00000  Uiso   1.00
H750   H     0.23522   0.28997   0.68964   0.00000  Uiso   1.00
N751   N     0.04760   0.16668   0.75001   0.00000  Uiso   1.00
N752   N     0.28573   0.16665   0.75000   0.00000  Uiso   1.00
O753   O     0.12846   0.22775   0.75000   0.00000  Uiso   1.00
O754   O     0.20490   0.22774   0.75000   0.00000  Uiso   1.00
O755   O     0.10947   0.16666   0.82681   0.00000  Uiso   1.00
O756   O     0.18591   0.16665   0.82681   0.00000  Uiso   1.00
O757   O     0.12843   0.10559   0.74999   0.00000  Uiso   1.00
O758   O     0.20488   0.10558   0.74999   0.00000  Uiso   1.00
O759   O     0.14742   0.16668   0.67319   0.00000  Uiso   1.00
O760   O     0.22387   0.16667   0.67319   0.00000  Uiso   1.00
Zn761  Zn    0.11562   0.16667   0.75000   0.00000  Uiso   1.00
Zn762  Zn    0.21771   0.16666   0.75000   0.00000  Uiso   1.00
N763   N     0.28696   0.12461   0.58224   0.00000  Uiso   1.00
H764   H     0.32028   0.13571   0.55877   0.00000  Uiso   1.00
H765   H     0.29079   0.09214   0.58113   0.00000  Uiso   1.00
N766   N     0.24973   0.03481   0.68234   0.00000  Uiso   1.00
H767   H     0.24080   0.05784   0.65951   0.00000  Uiso   1.00
H768   H     0.26626   0.04735   0.70742   0.00000  Uiso   1.00
N769   N     0.08194   0.04712   0.82170   0.00000  Uiso   1.00
H770   H     0.06472   0.06091   0.79744   0.00000  Uiso   1.00
H771   H     0.09100   0.07005   0.84416   0.00000  Uiso   1.00
N772   N     0.08367   0.29391   0.82461   0.00000  Uiso   1.00
H773   H     0.07917   0.30346   0.86455   0.00000  Uiso   1.00
H774   H     0.05282   0.30378   0.81715   0.00000  Uiso   1.00
N775   N     0.31512   0.11697   0.67226   0.00000  Uiso   1.00
H776   H     0.32783   0.08662   0.67478   0.00000  Uiso   1.00
H777   H     0.27858   0.11566   0.68161   0.00000  Uiso   1.00
C778   C     0.07467   0.11469   0.67596   0.00000  Uiso   1.00
N779   N     0.10435   0.09229   0.64601   0.00000  Uiso   1.00
N780   N     0.01696   0.20969   0.83377   0.00000  Uiso   1.00
H781   H     0.04831   0.22562   0.81874   0.00000  Uiso   1.00
H782   H     0.02163   0.18651   0.85906   0.00000  Uiso   1.00
N783   N     0.25805   0.21567   0.82691   0.00000  Uiso   1.00
H784   H     0.25418   0.20602   0.86613   0.00000  Uiso   1.00
H785   H     0.26828   0.24644   0.82347   0.00000  Uiso   1.00
N786   N     0.25657   0.07136   0.91332   0.00000  Uiso   1.00
H787   H     0.23846   0.04407   0.91509   0.00000  Uiso   1.00
H788   H     0.27570   0.07753   0.87227   0.00000  Uiso   1.00
C789   C     0.30622   0.10201   0.97199   0.00000  Uiso   1.00
N790   N     0.01011   0.08623   0.94633   0.00000  Uiso   1.00
C791   C     0.16042   0.21880   0.57547   0.00000  Uiso   1.00
N792   N     0.14359   0.25228   0.58762   0.00000  Uiso   1.00
N793   N     0.07826   0.17782   0.58386   0.00000  Uiso   1.00
H794   H     0.04953   0.15828   0.59532   0.00000  Uiso   1.00
H795   H     0.06451   0.20746   0.60062   0.00000  Uiso   1.00
C796   C     0.01906   0.21453   0.52918   0.00000  Uiso   1.00
N797   N     0.31549   0.23143   0.55346   0.00000  Uiso   1.00
N798   N     0.18365   0.08615   0.87418   0.00000  Uiso   1.00
H799   H     0.21138   0.09175   0.83740   0.00000  Uiso   1.00
H800   H     0.15042   0.08900   0.86977   0.00000  Uiso   1.00
C801   C     0.49878   0.24645   0.75114   0.00000  Uiso   1.00
C802   C     0.47629   0.16143   0.99341   0.00000  Uiso   1.00
C803   C     0.48399   0.14700   0.93964   0.00000  Uiso   1.00
C804   C     0.51459   0.15522   0.51346   0.00000  Uiso   1.00
C805   C     0.55500   0.12753   0.98434   0.00000  Uiso   1.00
C806   C     0.55520   0.10528   0.93743   0.00000  Uiso   1.00
C807   C     0.51972   0.11453   0.91558   0.00000  Uiso   1.00
C808   C     0.51539   0.17702   0.56023   0.00000  Uiso   1.00
C809   C     0.58614   0.13639   0.55774   0.00000  Uiso   1.00
C810   C     0.45494   0.16490   0.91244   0.00000  Uiso   1.00
C811   C     0.53789   0.30877   0.71704   0.00000  Uiso   1.00
C812   C     0.47297   0.16603   0.85245   0.00000  Uiso   1.00
C813   C     0.53994   0.01777   0.71780   0.00000  Uiso   1.00
C814   C     0.49997   0.04228   0.75274   0.00000  Uiso   1.00
C815   C     0.45786   0.02356   0.78702   0.00000  Uiso   1.00
C816   C     0.45734   0.31388   0.78726   0.00000  Uiso   1.00
C817   C     0.49724   0.29044   0.75153   0.00000  Uiso   1.00
C818   C     0.65637   0.14234   0.71292   0.00000  Uiso   1.00
C819   C     0.37064   0.14241   0.71317   0.00000  Uiso   1.00
C820   C     0.34336   0.18930   0.78880   0.00000  Uiso   1.00
C821   C     0.62923   0.19030   0.78770   0.00000  Uiso   1.00
C822   C     0.50037   0.08668   0.75070   0.00000  Uiso   1.00
C823   C     0.52722   0.16660   0.64733   0.00000  Uiso   1.00
C824   C     0.59312   0.12203   0.50446   0.00000  Uiso   1.00
C825   C     0.54512   0.16183   0.58712   0.00000  Uiso   1.00
C826   C     0.41252   0.18811   0.94243   0.00000  Uiso   1.00
C827   C     0.39842   0.19340   0.99891   0.00000  Uiso   1.00
C828   C     0.42962   0.17936   0.52524   0.00000  Uiso   1.00
H829   H     0.39047   0.20233   0.92187   0.00000  Uiso   1.00
H830   H     0.56855   0.28997   0.68964   0.00000  Uiso   1.00
N831   N     0.38093   0.16668   0.75001   0.00000  Uiso   1.00
N832   N     0.61906   0.16665   0.75000   0.00000  Uiso   1.00
O833   O     0.46179   0.22775   0.75000   0.00000  Uiso   1.00
O834   O     0.53823   0.22774   0.75000   0.00000  Uiso   1.00
O835   O     0.44280   0.16666   0.82681   0.00000  Uiso   1.00
O836   O     0.51924   0.16665   0.82681   0.00000  Uiso   1.00
O837   O     0.46177   0.10559   0.74999   0.00000  Uiso   1.00
O838   O     0.53821   0.10558   0.74999   0.00000  Uiso   1.00
O839   O     0.48076   0.16668   0.67319   0.00000  Uiso   1.00
O840   O     0.55720   0.16667   0.67319   0.00000  Uiso   1.00
Zn841  Zn    0.44896   0.16667   0.75000   0.00000  Uiso   1.00
Zn842  Zn    0.55104   0.16666   0.75000   0.00000  Uiso   1.00
N843   N     0.62030   0.12461   0.58224   0.00000  Uiso   1.00
H844   H     0.65362   0.13571   0.55877   0.00000  Uiso   1.00
H845   H     0.62413   0.09214   0.58113   0.00000  Uiso   1.00
N846   N     0.58307   0.03481   0.68234   0.00000  Uiso   1.00
H847   H     0.57413   0.05784   0.65951   0.00000  Uiso   1.00
H848   H     0.59959   0.04735   0.70742   0.00000  Uiso   1.00
N849   N     0.41528   0.04712   0.82170   0.00000  Uiso   1.00
H850   H     0.39805   0.06091   0.79744   0.00000  Uiso   1.00
H851   H     0.42433   0.07005   0.84416   0.00000  Uiso   1.00
N852   N     0.41700   0.29391   0.82461   0.00000  Uiso   1.00
H853   H     0.41251   0.30346   0.86455   0.00000  Uiso   1.00
H854   H     0.38615   0.30378   0.81715   0.00000  Uiso   1.00
N855   N     0.64846   0.11697   0.67226   0.00000  Uiso   1.00
H856   H     0.66116   0.08662   0.67478   0.00000  Uiso   1.00
H857   H     0.61191   0.11566   0.68161   0.00000  Uiso   1.00
C858   C     0.40801   0.11469   0.67596   0.00000  Uiso   1.00
N859   N     0.43768   0.09229   0.64601   0.00000  Uiso   1.00
N860   N     0.35030   0.20969   0.83377   0.00000  Uiso   1.00
H861   H     0.38164   0.22562   0.81874   0.00000  Uiso   1.00
H862   H     0.35496   0.18651   0.85906   0.00000  Uiso   1.00
N863   N     0.59139   0.21567   0.82691   0.00000  Uiso   1.00
H864   H     0.58751   0.20602   0.86613   0.00000  Uiso   1.00
H865   H     0.60161   0.24644   0.82347   0.00000  Uiso   1.00
N866   N     0.58990   0.07136   0.91332   0.00000  Uiso   1.00
H867   H     0.57179   0.04407   0.91509   0.00000  Uiso   1.00
H868   H     0.60904   0.07753   0.87227   0.00000  Uiso   1.00
C869   C     0.63956   0.10201   0.97199   0.00000  Uiso   1.00
N870   N     0.34344   0.08623   0.94633   0.00000  Uiso   1.00
C871   C     0.49375   0.21880   0.57547   0.00000  Uiso   1.00
N872   N     0.47693   0.25228   0.58762   0.00000  Uiso   1.00
N873   N     0.41160   0.17782   0.58386   0.00000  Uiso   1.00
H874   H     0.38287   0.15828   0.59532   0.00000  Uiso   1.00
H875   H     0.39784   0.20746   0.60062   0.00000  Uiso   1.00
C876   C     0.35239   0.21453   0.52918   0.00000  Uiso   1.00
N877   N     0.64883   0.23143   0.55346   0.00000  Uiso   1.00
N878   N     0.51698   0.08615   0.87418   0.00000  Uiso   1.00
H879   H     0.54471   0.09175   0.83740   0.00000  Uiso   1.00
H880   H     0.48376   0.08900   0.86977   0.00000  Uiso   1.00
C881   C     0.83211   0.24645   0.75114   0.00000  Uiso   1.00
C882   C     0.80963   0.16143   0.99341   0.00000  Uiso   1.00
C883   C     0.81733   0.14700   0.93964   0.00000  Uiso   1.00
C884   C     0.84792   0.15522   0.51346   0.00000  Uiso   1.00
C885   C     0.88833   0.12753   0.98434   0.00000  Uiso   1.00
C886   C     0.88853   0.10528   0.93743   0.00000  Uiso   1.00
C887   C     0.85305   0.11453   0.91558   0.00000  Uiso   1.00
C888   C     0.84873   0.17702   0.56023   0.00000  Uiso   1.00
C889   C     0.91948   0.13639   0.55774   0.00000  Uiso   1.00
C890   C     0.78828   0.16490   0.91244   0.00000  Uiso   1.00
C891   C     0.87122   0.30877   0.71704   0.00000  Uiso   1.00
C892   C     0.80631   0.16603   0.85245   0.00000  Uiso   1.00
C893   C     0.87328   0.01777   0.71780   0.00000  Uiso   1.00
C894   C     0.83330   0.04228   0.75274   0.00000  Uiso   1.00
C895   C     0.79119   0.02356   0.78702   0.00000  Uiso   1.00
C896   C     0.79067   0.31388   0.78726   0.00000  Uiso   1.00
C897   C     0.83057   0.29044   0.75153   0.00000  Uiso   1.00
C898   C     0.98970   0.14234   0.71292   0.00000  Uiso   1.00
C899   C     0.70398   0.14241   0.71317   0.00000  Uiso   1.00
C900   C     0.67669   0.18930   0.78880   0.00000  Uiso   1.00
C901   C     0.96256   0.19030   0.78770   0.00000  Uiso   1.00
C902   C     0.83370   0.08668   0.75070   0.00000  Uiso   1.00
C903   C     0.86055   0.16660   0.64733   0.00000  Uiso   1.00
C904   C     0.92645   0.12203   0.50446   0.00000  Uiso   1.00
C905   C     0.87845   0.16183   0.58712   0.00000  Uiso   1.00
C906   C     0.74585   0.18811   0.94243   0.00000  Uiso   1.00
C907   C     0.73175   0.19340   0.99891   0.00000  Uiso   1.00
C908   C     0.76296   0.17936   0.52524   0.00000  Uiso   1.00
H909   H     0.72380   0.20233   0.92187   0.00000  Uiso   1.00
H910   H     0.90189   0.28997   0.68964   0.00000  Uiso   1.00
N911   N     0.71426   0.16668   0.75001   0.00000  Uiso   1.00
N912   N     0.95239   0.16665   0.75000   0.00000  Uiso   1.00
O913   O     0.79512   0.22775   0.75000   0.00000  Uiso   1.00
O914   O     0.87157   0.22774   0.75000   0.00000  Uiso   1.00
O915   O     0.77613   0.16666   0.82681   0.00000  Uiso   1.00
O916   O     0.85258   0.16665   0.82681   0.00000  Uiso   1.00
O917   O     0.79510   0.10559   0.74999   0.00000  Uiso   1.00
O918   O     0.87154   0.10558   0.74999   0.00000  Uiso   1.00
O919   O     0.81409   0.16668   0.67319   0.00000  Uiso   1.00
O920   O     0.89053   0.16667   0.67319   0.00000  Uiso   1.00
Zn921  Zn    0.78229   0.16667   0.75000   0.00000  Uiso   1.00
Zn922  Zn    0.88438   0.16666   0.75000   0.00000  Uiso   1.00
N923   N     0.95363   0.12461   0.58224   0.00000  Uiso   1.00
H924   H     0.98695   0.13571   0.55877   0.00000  Uiso   1.00
H925   H     0.95746   0.09214   0.58113   0.00000  Uiso   1.00
N926   N     0.91640   0.03481   0.68234   0.00000  Uiso   1.00
H927   H     0.90746   0.05784   0.65951   0.00000  Uiso   1.00
H928   H     0.93292   0.04735   0.70742   0.00000  Uiso   1.00
N929   N     0.74861   0.04712   0.82170   0.00000  Uiso   1.00
H930   H     0.73138   0.06091   0.79744   0.00000  Uiso   1.00
H931   H     0.75766   0.07005   0.84416   0.00000  Uiso   1.00
N932   N     0.75033   0.29391   0.82461   0.00000  Uiso   1.00
H933   H     0.74584   0.30346   0.86455   0.00000  Uiso   1.00
H934   H     0.71948   0.30378   0.81715   0.00000  Uiso   1.00
N935   N     0.98179   0.11697   0.67226   0.00000  Uiso   1.00
H936   H     0.99450   0.08662   0.67478   0.00000  Uiso   1.00
H937   H     0.94524   0.11566   0.68161   0.00000  Uiso   1.00
C938   C     0.74134   0.11469   0.67596   0.00000  Uiso   1.00
N939   N     0.77102   0.09229   0.64601   0.00000  Uiso   1.00
N940   N     0.68363   0.20969   0.83377   0.00000  Uiso   1.00
H941   H     0.71497   0.22562   0.81874   0.00000  Uiso   1.00
H942   H     0.68830   0.18651   0.85906   0.00000  Uiso   1.00
N943   N     0.92472   0.21567   0.82691   0.00000  Uiso   1.00
H944   H     0.92085   0.20602   0.86613   0.00000  Uiso   1.00
H945   H     0.93494   0.24644   0.82347   0.00000  Uiso   1.00
N946   N     0.92323   0.07136   0.91332   0.00000  Uiso   1.00
H947   H     0.90513   0.04407   0.91509   0.00000  Uiso   1.00
H948   H     0.94237   0.07753   0.87227   0.00000  Uiso   1.00
C949   C     0.97289   0.10201   0.97199   0.00000  Uiso   1.00
N950   N     0.67677   0.08623   0.94633   0.00000  Uiso   1.00
C951   C     0.82709   0.21880   0.57547   0.00000  Uiso   1.00
N952   N     0.81026   0.25228   0.58762   0.00000  Uiso   1.00
N953   N     0.74493   0.17782   0.58386   0.00000  Uiso   1.00
H954   H     0.71620   0.15828   0.59532   0.00000  Uiso   1.00
H955   H     0.73118   0.20746   0.60062   0.00000  Uiso   1.00
C956   C     0.68573   0.21453   0.52918   0.00000  Uiso   1.00
N957   N     0.98216   0.23143   0.55346   0.00000  Uiso   1.00
N958   N     0.85031   0.08615   0.87418   0.00000  Uiso   1.00
H959   H     0.87805   0.09175   0.83740   0.00000  Uiso   1.00
H960   H     0.81709   0.08900   0.86977   0.00000  Uiso   1.00
C961   C     0.16545   0.57978   0.75114   0.00000  Uiso   1.00
C962   C     0.14296   0.49476   0.99341   0.00000  Uiso   1.00
C963   C     0.15066   0.48033   0.93964   0.00000  Uiso   1.00
C964   C     0.18126   0.48855   0.51346   0.00000  Uiso   1.00
C965   C     0.22167   0.46086   0.98434   0.00000  Uiso   1.00
C966   C     0.22187   0.43861   0.93743   0.00000  Uiso   1.00
C967   C     0.18638   0.44787   0.91558   0.00000  Uiso   1.00
C968   C     0.18206   0.51035   0.56023   0.00000  Uiso   1.00
C969   C     0.25281   0.46972   0.55774   0.00000  Uiso   1.00
C970   C     0.12161   0.49823   0.91244   0.00000  Uiso   1.00
C971   C     0.20456   0.64211   0.71704   0.00000  Uiso   1.00
C972   C     0.13964   0.49936   0.85245   0.00000  Uiso   1.00
C973   C     0.20661   0.35110   0.71780   0.00000  Uiso   1.00
C974   C     0.16664   0.37561   0.75274   0.00000  Uiso   1.00
C975   C     0.12453   0.35689   0.78702   0.00000  Uiso   1.00
C976   C     0.12401   0.64721   0.78726   0.00000  Uiso   1.00
C977   C     0.16390   0.62377   0.75153   0.00000  Uiso   1.00
C978   C     0.32303   0.47567   0.71292   0.00000  Uiso   1.00
C979   C     0.03731   0.47574   0.71317   0.00000  Uiso   1.00
C980   C     0.01002   0.52263   0.78880   0.00000  Uiso   1.00
C981   C     0.29589   0.52363   0.78770   0.00000  Uiso   1.00
C982   C     0.16703   0.42002   0.75070   0.00000  Uiso   1.00
C983   C     0.19389   0.49993   0.64733   0.00000  Uiso   1.00
C984   C     0.25978   0.45536   0.50446   0.00000  Uiso   1.00
C985   C     0.21179   0.49516   0.58712   0.00000  Uiso   1.00
C986   C     0.07918   0.52144   0.94243   0.00000  Uiso   1.00
C987   C     0.06509   0.52673   0.99891   0.00000  Uiso   1.00
C988   C     0.09629   0.51270   0.52524   0.00000  Uiso   1.00
H989   H     0.05713   0.53567   0.92187   0.00000  Uiso   1.00
H990   H     0.23522   0.62330   0.68964   0.00000  Uiso   1.00
N991   N     0.04760   0.50001   0.75001   0.00000  Uiso   1.00
N992   N     0.28573   0.49998   0.75000   0.00000  Uiso   1.00
O993   O     0.12846   0.56108   0.75000   0.00000  Uiso   1.00
O994   O     0.20490   0.56107   0.75000   0.00000  Uiso   1.00
O995   O     0.10947   0.50000   0.82681   0.00000  Uiso   1.00
O996   O     0.18591   0.49999   0.82681   0.00000  Uiso   1.00
O997   O     0.12843   0.43893   0.74999   0.00000  Uiso   1.00
O998   O     0.20488   0.43892   0.74999   0.00000  Uiso   1.00
O999   O     0.14742   0.50001   0.67319   0.00000  Uiso   1.00
O1000  O     0.22387   0.50000   0.67319   0.00000  Uiso   1.00
Zn1001 Zn    0.11562   0.50001   0.75000   0.00000  Uiso   1.00
Zn1002 Zn    0.21771   0.49999   0.75000   0.00000  Uiso   1.00
N1003  N     0.28696   0.45794   0.58224   0.00000  Uiso   1.00
H1004  H     0.32028   0.46904   0.55877   0.00000  Uiso   1.00
H1005  H     0.29079   0.42548   0.58113   0.00000  Uiso   1.00
N1006  N     0.24973   0.36814   0.68234   0.00000  Uiso   1.00
H1007  H     0.24080   0.39117   0.65951   0.00000  Uiso   1.00
H1008  H     0.26626   0.38068   0.70742   0.00000  Uiso   1.00
N1009  N     0.08194   0.38045   0.82170   0.00000  Uiso   1.00
H1010  H     0.06472   0.39425   0.79744   0.00000  Uiso   1.00
H1011  H     0.09100   0.40338   0.84416   0.00000  Uiso   1.00
N1012  N     0.08367   0.62724   0.82461   0.00000  Uiso   1.00
H1013  H     0.07917   0.63679   0.86455   0.00000  Uiso   1.00
H1014  H     0.05282   0.63711   0.81715   0.00000  Uiso   1.00
N1015  N     0.31512   0.45031   0.67226   0.00000  Uiso   1.00
H1016  H     0.32783   0.41996   0.67478   0.00000  Uiso   1.00
H1017  H     0.27858   0.44899   0.68161   0.00000  Uiso   1.00
C1018  C     0.07467   0.44803   0.67596   0.00000  Uiso   1.00
N1019  N     0.10435   0.42562   0.64601   0.00000  Uiso   1.00
N1020  N     0.01696   0.54302   0.83377   0.00000  Uiso   1.00
H1021  H     0.04831   0.55895   0.81874   0.00000  Uiso   1.00
H1022  H     0.02163   0.51985   0.85906   0.00000  Uiso   1.00
N1023  N     0.25805   0.54901   0.82691   0.00000  Uiso   1.00
H1024  H     0.25418   0.53936   0.86613   0.00000  Uiso   1.00
H1025  H     0.26828   0.57977   0.82347   0.00000  Uiso   1.00
N1026  N     0.25657   0.40470   0.91332   0.00000  Uiso   1.00
H1027  H     0.23846   0.37740   0.91509   0.00000  Uiso   1.00
H1028  H     0.27570   0.41086   0.87227   0.00000  Uiso   1.00
C1029  C     0.30622   0.43535   0.97199   0.00000  Uiso   1.00
N1030  N     0.01011   0.41957   0.94633   0.00000  Uiso   1.00
C1031  C     0.16042   0.55214   0.57547   0.00000  Uiso   1.00
N1032  N     0.14359   0.58562   0.58762   0.00000  Uiso   1.00
N1033  N     0.07826   0.51116   0.58386   0.00000  Uiso   1.00
H1034  H     0.04953   0.49161   0.59532   0.00000  Uiso   1.00
H1035  H     0.06451   0.54079   0.60062   0.00000  Uiso   1.00
C1036  C     0.01906   0.54786   0.52918   0.00000  Uiso   1.00
N1037  N     0.31549   0.56476   0.55346   0.00000  Uiso   1.00
N1038  N     0.18365   0.41948   0.87418   0.00000  Uiso   1.00
H1039  H     0.21138   0.42509   0.83740   0.00000  Uiso   1.00
H1040  H     0.15042   0.42233   0.86977   0.00000  Uiso   1.00
C1041  C     0.49878   0.57978   0.75114   0.00000  Uiso   1.00
C1042  C     0.47629   0.49476   0.99341   0.00000  Uiso   1.00
C1043  C     0.48399   0.48033   0.93964   0.00000  Uiso   1.00
C1044  C     0.51459   0.48855   0.51346   0.00000  Uiso   1.00
C1045  C     0.55500   0.46086   0.98434   0.00000  Uiso   1.00
C1046  C     0.55520   0.43861   0.93743   0.00000  Uiso   1.00
C1047  C     0.51972   0.44787   0.91558   0.00000  Uiso   1.00
C1048  C     0.51539   0.51035   0.56023   0.00000  Uiso   1.00
C1049  C     0.58614   0.46972   0.55774   0.00000  Uiso   1.00
C1050  C     0.45494   0.49823   0.91244   0.00000  Uiso   1.00
C1051  C     0.53789   0.64211   0.71704   0.00000  Uiso   1.00
C1052  C     0.47297   0.49936   0.85245   0.00000  Uiso   1.00
C1053  C     0.53994   0.35110   0.71780   0.00000  Uiso   1.00
C1054  C     0.49997   0.37561   0.75274   0.00000  Uiso   1.00
C1055  C     0.45786   0.35689   0.78702   0.00000  Uiso   1.00
C1056  C     0.45734   0.64721   0.78726   0.00000  Uiso   1.00
C1057  C     0.49724   0.62377   0.75153   0.00000  Uiso   1.00
C1058  C     0.65637   0.47567   0.71292   0.00000  Uiso   1.00
C1059  C     0.37064   0.47574   0.71317   0.00000  Uiso   1.00
C1060  C     0.34336   0.52263   0.78880   0.00000  Uiso   1.00
C1061  C     0.62923   0.52363   0.78770   0.00000  Uiso   1.00
C1062  C     0.50037   0.42002   0.75070   0.00000  Uiso   1.00
C1063  C     0.52722   0.49993   0.64733   0.00000  Uiso   1.00
C1064  C     0.59312   0.45536   0.50446   0.00000  Uiso   1.00
C1065  C     0.54512   0.49516   0.58712   0.00000  Uiso   1.00
C1066  C     0.41252   0.52144   0.94243   0.00000  Uiso   1.00
C1067  C     0.39842   0.52673   0.99891   0.00000  Uiso   1.00
C1068  C     0.42962   0.51270   0.52524   0.00000  Uiso   1.00
H1069  H     0.39047   0.53567   0.92187   0.00000  Uiso   1.00
H1070  H     0.56855   0.62330   0.68964   0.00000  Uiso   1.00
N1071  N     0.38093   0.50001   0.75001   0.00000  Uiso   1.00
N1072  N     0.61906   0.49998   0.75000   0.00000  Uiso   1.00
O1073  O     0.46179   0.56108   0.75000   0.00000  Uiso   1.00
O1074  O     0.53823   0.56107   0.75000   0.00000  Uiso   1.00
O1075  O     0.44280   0.50000   0.82681   0.00000  Uiso   1.00
O1076  O     0.51924   0.49999   0.82681   0.00000  Uiso   1.00
O1077  O     0.46177   0.43893   0.74999   0.00000  Uiso   1.00
O1078  O     0.53821   0.43892   0.74999   0.00000  Uiso   1.00
O1079  O     0.48076   0.50001   0.67319   0.00000  Uiso   1.00
O1080  O     0.55720   0.50000   0.67319   0.00000  Uiso   1.00
Zn1081 Zn    0.44896   0.50001   0.75000   0.00000  Uiso   1.00
Zn1082 Zn    0.55104   0.49999   0.75000   0.00000  Uiso   1.00
N1083  N     0.62030   0.45794   0.58224   0.00000  Uiso   1.00
H1084  H     0.65362   0.46904   0.55877   0.00000  Uiso   1.00
H1085  H     0.62413   0.42548   0.58113   0.00000  Uiso   1.00
N1086  N     0.58307   0.36814   0.68234   0.00000  Uiso   1.00
H1087  H     0.57413   0.39117   0.65951   0.00000  Uiso   1.00
H1088  H     0.59959   0.38068   0.70742   0.00000  Uiso   1.00
N1089  N     0.41528   0.38045   0.82170   0.00000  Uiso   1.00
H1090  H     0.39805   0.39425   0.79744   0.00000  Uiso   1.00
H1091  H     0.42433   0.40338   0.84416   0.00000  Uiso   1.00
N1092  N     0.41700   0.62724   0.82461   0.00000  Uiso   1.00
H1093  H     0.41251   0.63679   0.86455   0.00000  Uiso   1.00
H1094  H     0.38615   0.63711   0.81715   0.00000  Uiso   1.00
N1095  N     0.64846   0.45031   0.67226   0.00000  Uiso   1.00
H1096  H     0.66116   0.41996   0.67478   0.00000  Uiso   1.00
H1097  H     0.61191   0.44899   0.68161   0.00000  Uiso   1.00
C1098  C     0.40801   0.44803   0.67596   0.00000  Uiso   1.00
N1099  N     0.43768   0.42562   0.64601   0.00000  Uiso   1.00
N1100  N     0.35030   0.54302   0.83377   0.00000  Uiso   1.00
H1101  H     0.38164   0.55895   0.81874   0.00000  Uiso   1.00
H1102  H     0.35496   0.51985   0.85906   0.00000  Uiso   1.00
N1103  N     0.59139   0.54901   0.82691   0.00000  Uiso   1.00
H1104  H     0.58751   0.53936   0.86613   0.00000  Uiso   1.00
H1105  H     0.60161   0.57977   0.82347   0.00000  Uiso   1.00
N1106  N     0.58990   0.40470   0.91332   0.00000  Uiso   1.00
H1107  H     0.57179   0.37740   0.91509   0.00000  Uiso   1.00
H1108  H     0.60904   0.41086   0.87227   0.00000  Uiso   1.00
C1109  C     0.63956   0.43535   0.97199   0.00000  Uiso   1.00
N1110  N     0.34344   0.41957   0.94633   0.00000  Uiso   1.00
C1111  C     0.49375   0.55214   0.57547   0.00000  Uiso   1.00
N1112  N     0.47693   0.58562   0.58762   0.00000  Uiso   1.00
N1113  N     0.41160   0.51116   0.58386   0.00000  Uiso   1.00
H1114  H     0.38287   0.49161   0.59532   0.00000  Uiso   1.00
H1115  H     0.39784   0.54079   0.60062   0.00000  Uiso   1.00
C1116  C     0.35239   0.54786   0.52918   0.00000  Uiso   1.00
N1117  N     0.64883   0.56476   0.55346   0.00000  Uiso   1.00
N1118  N     0.51698   0.41948   0.87418   0.00000  Uiso   1.00
H1119  H     0.54471   0.42509   0.83740   0.00000  Uiso   1.00
H1120  H     0.48376   0.42233   0.86977   0.00000  Uiso   1.00
C1121  C     0.83211   0.57978   0.75114   0.00000  Uiso   1.00
C1122  C     0.80963   0.49476   0.99341   0.00000  Uiso   1.00
C1123  C     0.81733   0.48033   0.93964   0.00000  Uiso   1.00
C1124  C     0.84792   0.48855   0.51346   0.00000  Uiso   1.00
C1125  C     0.88833   0.46086   0.98434   0.00000  Uiso   1.00
C1126  C     0.88853   0.43861   0.93743   0.00000  Uiso   1.00
C1127  C     0.85305   0.44787   0.91558   0.00000  Uiso   1.00
C1128  C     0.84873   0.51035   0.56023   0.00000  Uiso   1.00
C1129  C     0.91948   0.46972   0.55774   0.00000  Uiso   1.00
C1130  C     0.78828   0.49823   0.91244   0.00000  Uiso   1.00
C1131  C     0.87122   0.64211   0.71704   0.00000  Uiso   1.00
C1132  C     0.80631   0.49936   0.85245   0.00000  Uiso   1.00
C1133  C     0.87328   0.35110   0.71780   0.00000  Uiso   1.00
C1134  C     0.83330   0.37561   0.75274   0.00000  Uiso   1.00
C1135  C     0.79119   0.35689   0.78702   0.00000  Uiso   1.00
C1136  C     0.79067   0.64721   0.78726   0.00000  Uiso   1.00
C1137  C     0.83057   0.62377   0.75153   0.00000  Uiso   1.00
C1138  C     0.98970   0.47567   0.71292   0.00000  Uiso   1.00
C1139  C     0.70398   0.47574   0.71317   0.00000  Uiso   1.00
C1140  C     0.67669   0.52263   0.78880   0.00000  Uiso   1.00
C1141  C     0.96256   0.52363   0.78770   0.00000  Uiso   1.00
C1142  C     0.83370   0.42002   0.75070   0.00000  Uiso   1.00
C1143  C     0.86055   0.49993   0.64733   0.00000  Uiso   1.00
C1144  C     0.92645   0.45536   0.50446   0.00000  Uiso   1.00
C1145  C     0.87845   0.49516   0.58712   0.00000  Uiso   1.00
C1146  C     0.74585   0.52144   0.94243   0.00000  Uiso   1.00
C1147  C     0.73175   0.52673   0.99891   0.00000  Uiso   1.00
C1148  C     0.76296   0.51270   0.52524   0.00000  Uiso   1.00
H1149  H     0.72380   0.53567   0.92187   0.00000  Uiso   1.00
H1150  H     0.90189   0.62330   0.68964   0.00000  Uiso   1.00
N1151  N     0.71426   0.50001   0.75001   0.00000  Uiso   1.00
N1152  N     0.95239   0.49998   0.75000   0.00000  Uiso   1.00
O1153  O     0.79512   0.56108   0.75000   0.00000  Uiso   1.00
O1154  O     0.87157   0.56107   0.75000   0.00000  Uiso   1.00
O1155  O     0.77613   0.50000   0.82681   0.00000  Uiso   1.00
O1156  O     0.85258   0.49999   0.82681   0.00000  Uiso   1.00
O1157  O     0.79510   0.43893   0.74999   0.00000  Uiso   1.00
O1158  O     0.87154   0.43892   0.74999   0.00000  Uiso   1.00
O1159  O     0.81409   0.50001   0.67319   0.00000  Uiso   1.00
O1160  O     0.89053   0.50000   0.67319   0.00000  Uiso   1.00
Zn1161 Zn    0.78229   0.50001   0.75000   0.00000  Uiso   1.00
Zn1162 Zn    0.88438   0.49999   0.75000   0.00000  Uiso   1.00
N1163  N     0.95363   0.45794   0.58224   0.00000  Uiso   1.00
H1164  H     0.98695   0.46904   0.55877   0.00000  Uiso   1.00
H1165  H     0.95746   0.42548   0.58113   0.00000  Uiso   1.00
N1166  N     0.91640   0.36814   0.68234   0.00000  Uiso   1.00
H1167  H     0.90746   0.39117   0.65951   0.00000  Uiso   1.00
H1168  H     0.93292   0.38068   0.70742   0.00000  Uiso   1.00
N1169  N     0.74861   0.38045   0.82170   0.00000  Uiso   1.00
H1170  H     0.73138   0.39425   0.79744   0.00000  Uiso   1.00
H1171  H     0.75766   0.40338   0.84416   0.00000  Uiso   1.00
N1172  N     0.75033   0.62724   0.82461   0.00000  Uiso   1.00
H1173  H     0.74584   0.63679   0.86455   0.00000  Uiso   1.00
H1174  H     0.71948   0.63711   0.81715   0.00000  Uiso   1.00
N1175  N     0.98179   0.45031   0.67226   0.00000  Uiso   1.00
H1176  H     0.99450   0.41996   0.67478   0.00000  Uiso   1.00
H1177  H     0.94524   0.44899   0.68161   0.00000  Uiso   1.00
C1178  C     0.74134   0.44803   0.67596   0.00000  Uiso   1.00
N1179  N     0.77102   0.42562   0.64601   0.00000  Uiso   1.00
N1180  N     0.68363   0.54302   0.83377   0.00000  Uiso   1.00
H1181  H     0.71497   0.55895   0.81874   0.00000  Uiso   1.00
H1182  H     0.68830   0.51985   0.85906   0.00000  Uiso   1.00
N1183  N     0.92472   0.54901   0.82691   0.00000  Uiso   1.00
H1184  H     0.92085   0.53936   0.86613   0.00000  Uiso   1.00
H1185  H     0.93494   0.57977   0.82347   0.00000  Uiso   1.00
N1186  N     0.92323   0.40470   0.91332   0.00000  Uiso   1.00
H1187  H     0.90513   0.37740   0.91509   0.00000  Uiso   1.00
H1188  H     0.94237   0.41086   0.87227   0.00000  Uiso   1.00
C1189  C     0.97289   0.43535   0.97199   0.00000  Uiso   1.00
N1190  N     0.67677   0.41957   0.94633   0.00000  Uiso   1.00
C1191  C     0.82709   0.55214   0.57547   0.00000  Uiso   1.00
N1192  N     0.81026   0.58562   0.58762   0.00000  Uiso   1.00
N1193  N     0.74493   0.51116   0.58386   0.00000  Uiso   1.00
H1194  H     0.71620   0.49161   0.59532   0.00000  Uiso   1.00
H1195  H     0.73118   0.54079   0.60062   0.00000  Uiso   1.00
C1196  C     0.68573   0.54786   0.52918   0.00000  Uiso   1.00
N1197  N     0.98216   0.56476   0.55346   0.00000  Uiso   1.00
N1198  N     0.85031   0.41948   0.87418   0.00000  Uiso   1.00
H1199  H     0.87805   0.42509   0.83740   0.00000  Uiso   1.00
H1200  H     0.81709   0.42233   0.86977   0.00000  Uiso   1.00
C1201  C     0.16545   0.91312   0.75114   0.00000  Uiso   1.00
C1202  C     0.14296   0.82810   0.99341   0.00000  Uiso   1.00
C1203  C     0.15066   0.81367   0.93964   0.00000  Uiso   1.00
C1204  C     0.18126   0.82189   0.51346   0.00000  Uiso   1.00
C1205  C     0.22167   0.79420   0.98434   0.00000  Uiso   1.00
C1206  C     0.22187   0.77195   0.93743   0.00000  Uiso   1.00
C1207  C     0.18638   0.78120   0.91558   0.00000  Uiso   1.00
C1208  C     0.18206   0.84369   0.56023   0.00000  Uiso   1.00
C1209  C     0.25281   0.80306   0.55774   0.00000  Uiso   1.00
C1210  C     0.12161   0.83156   0.91244   0.00000  Uiso   1.00
C1211  C     0.20456   0.97544   0.71704   0.00000  Uiso   1.00
C1212  C     0.13964   0.83269   0.85245   0.00000  Uiso   1.00
C1213  C     0.20661   0.68444   0.71780   0.00000  Uiso   1.00
C1214  C     0.16664   0.70894   0.75274   0.00000  Uiso   1.00
C1215  C     0.12453   0.69023   0.78702   0.00000  Uiso   1.00
C1216  C     0.12401   0.98054   0.78726   0.00000  Uiso   1.00
C1217  C     0.16390   0.95710   0.75153   0.00000  Uiso   1.00
C1218  C     0.32303   0.80901   0.71292   0.00000  Uiso   1.00
C1219  C     0.03731   0.80908   0.71317   0.00000  Uiso   1.00
C1220  C     0.01002   0.85597   0.78880   0.00000  Uiso   1.00
C1221  C     0.29589   0.85696   0.78770   0.00000  Uiso   1.00
C1222  C     0.16703   0.75335   0.75070   0.00000  Uiso   1.00
C1223  C     0.19389   0.83326   0.64733   0.00000  Uiso   1.00
C1224  C     0.25978   0.78869   0.50446   0.00000  Uiso   1.00
C1225  C     0.21179   0.82849   0.58712   0.00000  Uiso   1.00
C1226  C     0.07918   0.85477   0.94243   0.00000  Uiso   1.00
C1227  C     0.06509   0.86006   0.99891   0.00000  Uiso   1.00
C1228  C     0.09629   0.84603   0.52524   0.00000  Uiso   1.00
H1229  H     0.05713   0.86900   0.92187   0.00000  Uiso   1.00
H1230  H     0.23522   0.95664   0.68964   0.00000  Uiso   1.00
N1231  N     0.04760   0.83334   0.75001   0.00000  Uiso   1.00
N1232  N     0.28573   0.83331   0.75000   0.00000  Uiso   1.00
O1233  O     0.12846   0.89442   0.75000   0.00000  Uiso   1.00
O1234  O     0.20490   0.89441   0.75000   0.00000  Uiso   1.00
O1235  O     0.10947   0.83333   0.82681   0.00000  Uiso   1.00
O1236  O     0.18591   0.83332   0.82681   0.00000  Uiso   1.00
O1237  O     0.12843   0.77226   0.74999   0.00000  Uiso   1.00
O1238  O     0.20488   0.77225   0.74999   0.00000  Uiso   1.00
O1239  O     0.14742   0.83335   0.67319   0.00000  Uiso   1.00
O1240  O     0.22387   0.83334   0.67319   0.00000  Uiso   1.00
Zn1241 Zn    0.11562   0.83334   0.75000   0.00000  Uiso   1.00
Zn1242 Zn    0.21771   0.83333   0.75000   0.00000  Uiso   1.00
N1243  N     0.28696   0.79127   0.58224   0.00000  Uiso   1.00
H1244  H     0.32028   0.80238   0.55877   0.00000  Uiso   1.00
H1245  H     0.29079   0.75881   0.58113   0.00000  Uiso   1.00
N1246  N     0.24973   0.70147   0.68234   0.00000  Uiso   1.00
H1247  H     0.24080   0.72450   0.65951   0.00000  Uiso   1.00
H1248  H     0.26626   0.71401   0.70742   0.00000  Uiso   1.00
N1249  N     0.08194   0.71378   0.82170   0.00000  Uiso   1.00
H1250  H     0.06472   0.72758   0.79744   0.00000  Uiso   1.00
H1251  H     0.09100   0.73672   0.84416   0.00000  Uiso   1.00
N1252  N     0.08367   0.96057   0.82461   0.00000  Uiso   1.00
H1253  H     0.07917   0.97013   0.86455   0.00000  Uiso   1.00
H1254  H     0.05282   0.97044   0.81715   0.00000  Uiso   1.00
N1255  N     0.31512   0.78364   0.67226   0.00000  Uiso   1.00
H1256  H     0.32783   0.75329   0.67478   0.00000  Uiso   1.00
H1257  H     0.27858   0.78233   0.68161   0.00000  Uiso   1.00
C1258  C     0.07467   0.78136   0.67596   0.00000  Uiso   1.00
N1259  N     0.10435   0.75896   0.64601   0.00000  Uiso   1.00
N1260  N     0.01696   0.87635   0.83377   0.00000  Uiso   1.00
H1261  H     0.04831   0.89229   0.81874   0.00000  Uiso   1.00
H1262  H     0.02163   0.85318   0.85906   0.00000  Uiso   1.00
N1263  N     0.25805   0.88234   0.82691   0.00000  Uiso   1.00
H1264  H     0.25418   0.87269   0.86613   0.00000  Uiso   1.00
H1265  H     0.26828   0.91310   0.82347   0.00000  Uiso   1.00
N1266  N     0.25657   0.73803   0.91332   0.00000  Uiso   1.00
H1267  H     0.23846   0.71073   0.91509   0.00000  Uiso   1.00
H1268  H     0.27570   0.74419   0.87227   0.00000  Uiso   1.00
C1269  C     0.30622   0.76868   0.97199   0.00000  Uiso   1.00
N1270  N     0.01011   0.75290   0.94633   0.00000  Uiso   1.00
C1271  C     0.16042   0.88547   0.57547   0.00000  Uiso   1.00
N1272  N     0.14359   0.91895   0.58762   0.00000  Uiso   1.00
N1273  N     0.07826   0.84449   0.58386   0.00000  Uiso   1.00
H1274  H     0.04953   0.82494   0.59532   0.00000  Uiso   1.00
H1275  H     0.06451   0.87412   0.60062   0.00000  Uiso   1.00
C1276  C     0.01906   0.88120   0.52918   0.00000  Uiso   1.00
N1277  N     0.31549   0.89809   0.55346   0.00000  Uiso   1.00
N1278  N     0.18365   0.75282   0.87418   0.00000  Uiso   1.00
H1279  H     0.21138   0.75842   0.83740   0.00000  Uiso   1.00
H1280  H     0.15042   0.75567   0.86977   0.00000  Uiso   1.00
C1281  C     0.49878   0.91312   0.75114   0.00000  Uiso   1.00
C1282  C     0.47629   0.82810   0.99341   0.00000  Uiso   1.00
C1283  C     0.48399   0.81367   0.93964   0.00000  Uiso   1.00
C1284  C     0.51459   0.82189   0.51346   0.00000  Uiso   1.00
C1285  C     0.55500   0.79420   0.98434   0.00000  Uiso   1.00
C1286  C     0.55520   0.77195   0.93743   0.00000  Uiso   1.00
C1287  C     0.51972   0.78120   0.91558   0.00000  Uiso   1.00
C1288  C     0.51539   0.84369   0.56023   0.00000  Uiso   1.00
C1289  C     0.58614   0.80306   0.55774   0.00000  Uiso   1.00
C1290  C     0.45494   0.83156   0.91244   0.00000  Uiso   1.00
C1291  C     0.53789   0.97544   0.71704   0.00000  Uiso   1.00
C1292  C     0.47297   0.83269   0.85245   0.00000  Uiso   1.00
C1293  C     0.53994   0.68444   0.71780   0.00000  Uiso   1.00
C1294  C     0.49997   0.70894   0.75274   0.00000  Uiso   1.00
C1295  C     0.45786   0.69023   0.78702   0.00000  Uiso   1.00
C1296  C     0.45734   0.98054   0.78726   0.00000  Uiso   1.00
C1297  C     0.49724   0.95710   0.75153   0.00000  Uiso   1.00
C1298  C     0.65637   0.80901   0.71292   0.00000  Uiso   1.00
C1299  C     0.37064   0.80908   0.71317   0.00000  Uiso   1.00
C1300  C     0.34336   0.85597   0.78880   0.00000  Uiso   1.00
C1301  C     0.62923   0.85696   0.78770   0.00000  Uiso   1.00
C1302  C     0.50037   0.75335   0.75070   0.00000  Uiso   1.00
C1303  C     0.52722   0.83326   0.64733   0.00000  Uiso   1.00
C1304  C     0.59312   0.78869   0.50446   0.00000  Uiso   1.00
C1305  C     0.54512   0.82849   0.58712   0.00000  Uiso   1.00
C1306  C     0.41252   0.85477   0.94243   0.00000  Uiso   1.00
C1307  C     0.39842   0.86006   0.99891   0.00000  Uiso   1.00
C1308  C     0.42962   0.84603   0.52524   0.00000  Uiso   1.00
H1309  H     0.39047   0.86900   0.92187   0.00000  Uiso   1.00
H1310  H     0.56855   0.95664   0.68964   0.00000  Uiso   1.00
N1311  N     0.38093   0.83334   0.75001   0.00000  Uiso   1.00
N1312  N     0.61906   0.83331   0.75000   0.00000  Uiso   1.00
O1313  O     0.46179   0.89442   0.75000   0.00000  Uiso   1.00
O1314  O     0.53823   0.89441   0.75000   0.00000  Uiso   1.00
O1315  O     0.44280   0.83333   0.82681   0.00000  Uiso   1.00
O1316  O     0.51924   0.83332   0.82681   0.00000  Uiso   1.00
O1317  O     0.46177   0.77226   0.74999   0.00000  Uiso   1.00
O1318  O     0.53821   0.77225   0.74999   0.00000  Uiso   1.00
O1319  O     0.48076   0.83335   0.67319   0.00000  Uiso   1.00
O1320  O     0.55720   0.83334   0.67319   0.00000  Uiso   1.00
Zn1321 Zn    0.44896   0.83334   0.75000   0.00000  Uiso   1.00
Zn1322 Zn    0.55104   0.83333   0.75000   0.00000  Uiso   1.00
N1323  N     0.62030   0.79127   0.58224   0.00000  Uiso   1.00
H1324  H     0.65362   0.80238   0.55877   0.00000  Uiso   1.00
H1325  H     0.62413   0.75881   0.58113   0.00000  Uiso   1.00
N1326  N     0.58307   0.70147   0.68234   0.00000  Uiso   1.00
H1327  H     0.57413   0.72450   0.65951   0.00000  Uiso   1.00
H1328  H     0.59959   0.71401   0.70742   0.00000  Uiso   1.00
N1329  N     0.41528   0.71378   0.82170   0.00000  Uiso   1.00
H1330  H     0.39805   0.72758   0.79744   0.00000  Uiso   1.00
H1331  H     0.42433   0.73672   0.84416   0.00000  Uiso   1.00
N1332  N     0.41700   0.96057   0.82461   0.00000  Uiso   1.00
H1333  H     0.41251   0.97013   0.86455   0.00000  Uiso   1.00
H1334  H     0.38615   0.97044   0.81715   0.00000  Uiso   1.00
N1335  N     0.64846   0.78364   0.67226   0.00000  Uiso   1.00
H1336  H     0.66116   0.75329   0.67478   0.00000  Uiso   1.00
H1337  H     0.61191   0.78233   0.68161   0.00000  Uiso   1.00
C1338  C     0.40801   0.78136   0.67596   0.00000  Uiso   1.00
N1339  N     0.43768   0.75896   0.64601   0.00000  Uiso   1.00
N1340  N     0.35030   0.87635   0.83377   0.00000  Uiso   1.00
H1341  H     0.38164   0.89229   0.81874   0.00000  Uiso   1.00
H1342  H     0.35496   0.85318   0.85906   0.00000  Uiso   1.00
N1343  N     0.59139   0.88234   0.82691   0.00000  Uiso   1.00
H1344  H     0.58751   0.87269   0.86613   0.00000  Uiso   1.00
H1345  H     0.60161   0.91310   0.82347   0.00000  Uiso   1.00
N1346  N     0.58990   0.73803   0.91332   0.00000  Uiso   1.00
H1347  H     0.57179   0.71073   0.91509   0.00000  Uiso   1.00
H1348  H     0.60904   0.74419   0.87227   0.00000  Uiso   1.00
C1349  C     0.63956   0.76868   0.97199   0.00000  Uiso   1.00
N1350  N     0.34344   0.75290   0.94633   0.00000  Uiso   1.00
C1351  C     0.49375   0.88547   0.57547   0.00000  Uiso   1.00
N1352  N     0.47693   0.91895   0.58762   0.00000  Uiso   1.00
N1353  N     0.41160   0.84449   0.58386   0.00000  Uiso   1.00
H1354  H     0.38287   0.82494   0.59532   0.00000  Uiso   1.00
H1355  H     0.39784   0.87412   0.60062   0.00000  Uiso   1.00
C1356  C     0.35239   0.88120   0.52918   0.00000  Uiso   1.00
N1357  N     0.64883   0.89809   0.55346   0.00000  Uiso   1.00
N1358  N     0.51698   0.75282   0.87418   0.00000  Uiso   1.00
H1359  H     0.54471   0.75842   0.83740   0.00000  Uiso   1.00
H1360  H     0.48376   0.75567   0.86977   0.00000  Uiso   1.00
C1361  C     0.83211   0.91312   0.75114   0.00000  Uiso   1.00
C1362  C     0.80963   0.82810   0.99341   0.00000  Uiso   1.00
C1363  C     0.81733   0.81367   0.93964   0.00000  Uiso   1.00
C1364  C     0.84792   0.82189   0.51346   0.00000  Uiso   1.00
C1365  C     0.88833   0.79420   0.98434   0.00000  Uiso   1.00
C1366  C     0.88853   0.77195   0.93743   0.00000  Uiso   1.00
C1367  C     0.85305   0.78120   0.91558   0.00000  Uiso   1.00
C1368  C     0.84873   0.84369   0.56023   0.00000  Uiso   1.00
C1369  C     0.91948   0.80306   0.55774   0.00000  Uiso   1.00
C1370  C     0.78828   0.83156   0.91244   0.00000  Uiso   1.00
C1371  C     0.87122   0.97544   0.71704   0.00000  Uiso   1.00
C1372  C     0.80631   0.83269   0.85245   0.00000  Uiso   1.00
C1373  C     0.87328   0.68444   0.71780   0.00000  Uiso   1.00
C1374  C     0.83330   0.70894   0.75274   0.00000  Uiso   1.00
C1375  C     0.79119   0.69023   0.78702   0.00000  Uiso   1.00
C1376  C     0.79067   0.98054   0.78726   0.00000  Uiso   1.00
C1377  C     0.83057   0.95710   0.75153   0.00000  Uiso   1.00
C1378  C     0.98970   0.80901   0.71292   0.00000  Uiso   1.00
C1379  C     0.70398   0.80908   0.71317   0.00000  Uiso   1.00
C1380  C     0.67669   0.85597   0.78880   0.00000  Uiso   1.00
C1381  C     0.96256   0.85696   0.78770   0.00000  Uiso   1.00
C1382  C     0.83370   0.75335   0.75070   0.00000  Uiso   1.00
C1383  C     0.86055   0.83326   0.64733   0.00000  Uiso   1.00
C1384  C     0.92645   0.78869   0.50446   0.00000  Uiso   1.00
C1385  C     0.87845   0.82849   0.58712   0.00000  Uiso   1.00
C1386  C     0.74585   0.85477   0.94243   0.00000  Uiso   1.00
C1387  C     0.73175   0.86006   0.99891   0.00000  Uiso   1.00
C1388  C     0.76296   0.84603   0.52524   0.00000  Uiso   1.00
H1389  H     0.72380   0.86900   0.92187   0.00000  Uiso   1.00
H1390  H     0.90189   0.95664   0.68964   0.00000  Uiso   1.00
N1391  N     0.71426   0.83334   0.75001   0.00000  Uiso   1.00
N1392  N     0.95239   0.83331   0.75000   0.00000  Uiso   1.00
O1393  O     0.79512   0.89442   0.75000   0.00000  Uiso   1.00
O1394  O     0.87157   0.89441   0.75000   0.00000  Uiso   1.00
O1395  O     0.77613   0.83333   0.82681   0.00000  Uiso   1.00
O1396  O     0.85258   0.83332   0.82681   0.00000  Uiso   1.00
O1397  O     0.79510   0.77226   0.74999   0.00000  Uiso   1.00
O1398  O     0.87154   0.77225   0.74999   0.00000  Uiso   1.00
O1399  O     0.81409   0.83335   0.67319   0.00000  Uiso   1.00
O1400  O     0.89053   0.83334   0.67319   0.00000  Uiso   1.00
Zn1401 Zn    0.78229   0.83334   0.75000   0.00000  Uiso   1.00
Zn1402 Zn    0.88438   0.83333   0.75000   0.00000  Uiso   1.00
N1403  N     0.95363   0.79127   0.58224   0.00000  Uiso   1.00
H1404  H     0.98695   0.80238   0.55877   0.00000  Uiso   1.00
H1405  H     0.95746   0.75881   0.58113   0.00000  Uiso   1.00
N1406  N     0.91640   0.70147   0.68234   0.00000  Uiso   1.00
H1407  H     0.90746   0.72450   0.65951   0.00000  Uiso   1.00
H1408  H     0.93292   0.71401   0.70742   0.00000  Uiso   1.00
N1409  N     0.74861   0.71378   0.82170   0.00000  Uiso   1.00
H1410  H     0.73138   0.72758   0.79744   0.00000  Uiso   1.00
H1411  H     0.75766   0.73672   0.84416   0.00000  Uiso   1.00
N1412  N     0.75033   0.96057   0.82461   0.00000  Uiso   1.00
H1413  H     0.74584   0.97013   0.86455   0.00000  Uiso   1.00
H1414  H     0.71948   0.97044   0.81715   0.00000  Uiso   1.00
N1415  N     0.98179   0.78364   0.67226   0.00000  Uiso   1.00
H1416  H     0.99450   0.75329   0.67478   0.00000  Uiso   1.00
H1417  H     0.94524   0.78233   0.68161   0.00000  Uiso   1.00
C1418  C     0.74134   0.78136   0.67596   0.00000  Uiso   1.00
N1419  N     0.77102   0.75896   0.64601   0.00000  Uiso   1.00
N1420  N     0.68363   0.87635   0.83377   0.00000  Uiso   1.00
H1421  H     0.71497   0.89229   0.81874   0.00000  Uiso   1.00
H1422  H     0.68830   0.85318   0.85906   0.00000  Uiso   1.00
N1423  N     0.92472   0.88234   0.82691   0.00000  Uiso   1.00
H1424  H     0.92085   0.87269   0.86613   0.00000  Uiso   1.00
H1425  H     0.93494   0.91310   0.82347   0.00000  Uiso   1.00
N1426  N     0.92323   0.73803   0.91332   0.00000  Uiso   1.00
H1427  H     0.90513   0.71073   0.91509   0.00000  Uiso   1.00
H1428  H     0.94237   0.74419   0.87227   0.00000  Uiso   1.00
C1429  C     0.97289   0.76868   0.97199   0.00000  Uiso   1.00
N1430  N     0.67677   0.75290   0.94633   0.00000  Uiso   1.00
C1431  C     0.82709   0.88547   0.57547   0.00000  Uiso   1.00
N1432  N     0.81026   0.91895   0.58762   0.00000  Uiso   1.00
N1433  N     0.74493   0.84449   0.58386   0.00000  Uiso   1.00
H1434  H     0.71620   0.82494   0.59532   0.00000  Uiso   1.00
H1435  H     0.73118   0.87412   0.60062   0.00000  Uiso   1.00
C1436  C     0.68573   0.88120   0.52918   0.00000  Uiso   1.00
N1437  N     0.98216   0.89809   0.55346   0.00000  Uiso   1.00
N1438  N     0.85031   0.75282   0.87418   0.00000  Uiso   1.00
H1439  H     0.87805   0.75842   0.83740   0.00000  Uiso   1.00
H1440  H     0.81709   0.75567   0.86977   0.00000  Uiso   1.00
loop_
_geom_bond_atom_site_label_1
_geom_bond_atom_site_label_2
_geom_bond_distance
_geom_bond_site_symmetry_2
_ccdc_geom_bond_type
C1     O34     1.288   .     A
C1     O33     1.291   .     A
C1     C17     1.415   .     S
C2     C3      1.411   .     A
C2     C724    1.429   .     S
C2     C748    1.427   .     S
C3     C7      1.420   .     A
C3     C10     1.417   .     A
C4     C8      1.412   .     A
C4     C722    1.429   1_554 S
C4     C725    1.430   1_554 S
C5     C6      1.412   .     A
C5     C724    1.430   .     S
C5     C744    1.423   .     S
C6     C7      1.399   .     A
C6     N66     1.437   .     S
C7     N78     1.436   .     S
C8     C25     1.396   .     A
C8     C71     1.451   .     S
C9     C25     1.403   .     A
C9     N43     1.430   .     S
C9     C24     1.403   .     A
C10    C26     1.397   .     A
C10    C12     1.467   .     S
C11    H30     1.086   .     S
C11    C17     1.386   .     A
C11    C253    1.368   .     S
C12    O36     1.299   .     A
C12    O35     1.305   .     A
C13    N46     1.425   .     S
C13    C14     1.408   .     A
C13    C491    1.368   1_545 S
C14    C22     1.432   .     S
C14    C15     1.419   .     A
C15    N49     1.438   .     S
C15    C496    1.386   1_545 S
C16    C17     1.397   .     A
C16    N52     1.433   .     S
C16    C255    1.386   .     S
C18    N55     1.426   .     S
C18    N32     1.381   .     A
C18    C99     1.424   .     S
C19    N31     1.361   .     A
C19    C58     1.444   .     S
C19    C178    1.424   1_455 S
C20    N60     1.425   .     S
C20    N31     1.377   .     A
C20    C181    1.426   1_455 S
C21    N32     1.366   .     A
C21    N63     1.431   .     S
C21    C100    1.426   .     S
C22    O38     1.302   .     A
C22    O37     1.285   .     A
C23    O40     1.304   .     A
C23    O39     1.303   .     A
C23    C25     1.474   .     S
C24    C725    1.423   1_554 S
C24    C789    1.451   1_554 S
C26    C27     1.390   .     A
C26    H29     1.082   .     S
C27    C748    1.409   .     S
C27    C796    1.444   .     S
C28    N73     1.434   .     S
C28    C747    1.409   1_554 S
C28    C722    1.427   1_554 S
N31    Zn41    2.030   .     S
N32    Zn42    2.030   .     S
O33    Zn41    2.021   .     S
O34    Zn42    1.987   .     S
O35    Zn41    1.954   .     S
O36    Zn42    1.888   .     S
O37    Zn41    1.987   .     S
O38    Zn42    2.021   .     S
O39    Zn41    1.888   .     S
O40    Zn42    1.954   .     S
N43    H44     1.044   .     S
N43    H45     1.045   .     S
N46    H48     1.041   .     S
N46    H47     1.044   .     S
N49    H51     1.042   .     S
N49    H50     1.045   .     S
N52    H54     1.046   .     S
N52    H53     1.045   .     S
N55    H56     1.044   .     S
N55    H57     1.031   .     S
C58    N59     1.158   .     T
N60    H62     1.043   .     S
N60    H61     1.037   .     S
N63    H65     1.045   .     S
N63    H64     1.046   .     S
N66    H68     1.046   .     S
N66    H67     1.046   .     S
C69    C744    1.451   .     S
C69    N150    1.157   .     S
N70    C229    1.157   1_455 S
C71    N72     1.158   .     T
N73    H74     1.044   .     S
N73    H75     1.045   .     S
C76    C747    1.444   1_554 S
C76    N237    1.157   1_455 S
N77    C156    1.157   .     S
N78    H80     1.040   .     S
N78    H79     1.042   .     S
C81    O114    1.288   .     A
C81    O113    1.291   .     A
C81    C97     1.415   .     S
C82    C83     1.411   .     A
C82    C804    1.429   .     S
C82    C828    1.427   .     S
C83    C87     1.420   .     A
C83    C90     1.417   .     A
C84    C88     1.412   .     A
C84    C802    1.429   1_554 S
C84    C805    1.430   1_554 S
C85    C86     1.412   .     A
C85    C804    1.430   .     S
C85    C824    1.423   .     S
C86    C87     1.399   .     A
C86    N146    1.437   .     S
C87    N158    1.436   .     S
C88    C105    1.396   .     A
C88    C151    1.451   .     S
C89    C105    1.403   .     A
C89    N123    1.430   .     S
C89    C104    1.403   .     A
C90    C106    1.397   .     A
C90    C92     1.467   .     S
C91    H110    1.086   .     S
C91    C97     1.386   .     A
C91    C333    1.368   .     S
C92    O116    1.299   .     A
C92    O115    1.305   .     A
C93    N126    1.425   .     S
C93    C94     1.408   .     A
C93    C571    1.368   1_545 S
C94    C102    1.432   .     S
C94    C95     1.419   .     A
C95    N129    1.438   .     S
C95    C576    1.386   1_545 S
C96    C97     1.397   .     A
C96    N132    1.433   .     S
C96    C335    1.386   .     S
C98    N135    1.426   .     S
C98    N112    1.381   .     A
C98    C179    1.424   .     S
C99    N111    1.361   .     A
C99    C138    1.444   .     S
C100   N140    1.425   .     S
C100   N111    1.377   .     A
C101   N112    1.366   .     A
C101   N143    1.431   .     S
C101   C180    1.426   .     S
C102   O118    1.302   .     A
C102   O117    1.285   .     A
C103   O120    1.304   .     A
C103   O119    1.303   .     A
C103   C105    1.474   .     S
C104   C805    1.423   1_554 S
C104   C869    1.451   1_554 S
C106   C107    1.390   .     A
C106   H109    1.082   .     S
C107   C828    1.409   .     S
C107   C876    1.444   .     S
C108   N153    1.434   .     S
C108   C827    1.409   1_554 S
C108   C802    1.427   1_554 S
N111   Zn121   2.030   .     S
N112   Zn122   2.030   .     S
O113   Zn121   2.021   .     S
O114   Zn122   1.987   .     S
O115   Zn121   1.954   .     S
O116   Zn122   1.888   .     S
O117   Zn121   1.987   .     S
O118   Zn122   2.021   .     S
O119   Zn121   1.888   .     S
O120   Zn122   1.954   .     S
N123   H124    1.044   .     S
N123   H125    1.045   .     S
N126   H128    1.041   .     S
N126   H127    1.044   .     S
N129   H131    1.042   .     S
N129   H130    1.045   .     S
N132   H134    1.046   .     S
N132   H133    1.045   .     S
N135   H136    1.044   .     S
N135   H137    1.031   .     S
C138   N139    1.158   .     T
N140   H142    1.043   .     S
N140   H141    1.037   .     S
N143   H145    1.045   .     S
N143   H144    1.046   .     S
N146   H148    1.046   .     S
N146   H147    1.046   .     S
C149   C824    1.451   .     S
C149   N230    1.157   .     S
C151   N152    1.158   .     T
N153   H154    1.044   .     S
N153   H155    1.045   .     S
C156   C827    1.444   1_554 S
N157   C236    1.157   .     S
N158   H160    1.040   .     S
N158   H159    1.042   .     S
C161   O194    1.288   .     A
C161   O193    1.291   .     A
C161   C177    1.415   .     S
C162   C163    1.411   .     A
C162   C884    1.429   .     S
C162   C908    1.427   .     S
C163   C167    1.420   .     A
C163   C170    1.417   .     A
C164   C168    1.412   .     A
C164   C882    1.429   1_554 S
C164   C885    1.430   1_554 S
C165   C166    1.412   .     A
C165   C884    1.430   .     S
C165   C904    1.423   .     S
C166   C167    1.399   .     A
C166   N226    1.437   .     S
C167   N238    1.436   .     S
C168   C185    1.396   .     A
C168   C231    1.451   .     S
C169   C185    1.403   .     A
C169   N203    1.430   .     S
C169   C184    1.403   .     A
C170   C186    1.397   .     A
C170   C172    1.467   .     S
C171   H190    1.086   .     S
C171   C177    1.386   .     A
C171   C413    1.368   .     S
C172   O196    1.299   .     A
C172   O195    1.305   .     A
C173   N206    1.425   .     S
C173   C174    1.408   .     A
C173   C651    1.368   1_545 S
C174   C182    1.432   .     S
C174   C175    1.419   .     A
C175   N209    1.438   .     S
C175   C656    1.386   1_545 S
C176   C177    1.397   .     A
C176   N212    1.433   .     S
C176   C415    1.386   .     S
C178   N215    1.426   .     S
C178   N192    1.381   .     A
C178   C19     1.424   1_655 S
C179   N191    1.361   .     A
C179   C218    1.444   .     S
C180   N220    1.425   .     S
C180   N191    1.377   .     A
C181   N192    1.366   .     A
C181   N223    1.431   .     S
C181   C20     1.426   1_655 S
C182   O198    1.302   .     A
C182   O197    1.285   .     A
C183   O200    1.304   .     A
C183   O199    1.303   .     A
C183   C185    1.474   .     S
C184   C885    1.423   1_554 S
C184   C949    1.451   1_554 S
C186   C187    1.390   .     A
C186   H189    1.082   .     S
C187   C908    1.409   .     S
C187   C956    1.444   .     S
C188   N233    1.434   .     S
C188   C907    1.409   1_554 S
C188   C882    1.427   1_554 S
N191   Zn201   2.030   .     S
N192   Zn202   2.030   .     S
O193   Zn201   2.021   .     S
O194   Zn202   1.987   .     S
O195   Zn201   1.954   .     S
O196   Zn202   1.888   .     S
O197   Zn201   1.987   .     S
O198   Zn202   2.021   .     S
O199   Zn201   1.888   .     S
O200   Zn202   1.954   .     S
N203   H204    1.044   .     S
N203   H205    1.045   .     S
N206   H208    1.041   .     S
N206   H207    1.044   .     S
N209   H211    1.042   .     S
N209   H210    1.045   .     S
N212   H214    1.046   .     S
N212   H213    1.045   .     S
N215   H216    1.044   .     S
N215   H217    1.031   .     S
C218   N219    1.158   .     T
N220   H222    1.043   .     S
N220   H221    1.037   .     S
N223   H225    1.045   .     S
N223   H224    1.046   .     S
N226   H228    1.046   .     S
N226   H227    1.046   .     S
C229   C904    1.451   .     S
C229   N70     1.157   1_655 S
C231   N232    1.158   .     T
N233   H234    1.044   .     S
N233   H235    1.045   .     S
C236   C907    1.444   1_554 S
N237   C76     1.157   1_655 S
N238   H240    1.040   .     S
N238   H239    1.042   .     S
C241   O274    1.288   .     A
C241   O273    1.291   .     A
C241   C257    1.415   .     S
C242   C243    1.411   .     A
C242   C964    1.429   .     S
C242   C988    1.427   .     S
C243   C247    1.420   .     A
C243   C250    1.417   .     A
C244   C248    1.412   .     A
C244   C962    1.429   1_554 S
C244   C965    1.430   1_554 S
C245   C246    1.412   .     A
C245   C964    1.430   .     S
C245   C984    1.423   .     S
C246   C247    1.399   .     A
C246   N306    1.437   .     S
C247   N318    1.436   .     S
C248   C265    1.396   .     A
C248   C311    1.451   .     S
C249   C265    1.403   .     A
C249   N283    1.430   .     S
C249   C264    1.403   .     A
C250   C266    1.397   .     A
C250   C252    1.467   .     S
C251   H270    1.086   .     S
C251   C257    1.386   .     A
C251   C493    1.368   .     S
C252   O276    1.299   .     A
C252   O275    1.305   .     A
C253   N286    1.425   .     S
C253   C254    1.408   .     A
C254   C262    1.432   .     S
C254   C255    1.419   .     A
C255   N289    1.438   .     S
C256   C257    1.397   .     A
C256   N292    1.433   .     S
C256   C495    1.386   .     S
C258   N295    1.426   .     S
C258   N272    1.381   .     A
C258   C339    1.424   .     S
C259   N271    1.361   .     A
C259   C298    1.444   .     S
C259   C418    1.424   1_455 S
C260   N300    1.425   .     S
C260   N271    1.377   .     A
C260   C421    1.426   1_455 S
C261   N272    1.366   .     A
C261   N303    1.431   .     S
C261   C340    1.426   .     S
C262   O278    1.302   .     A
C262   O277    1.285   .     A
C263   O280    1.304   .     A
C263   O279    1.303   .     A
C263   C265    1.474   .     S
C264   C965    1.423   1_554 S
C264   C1029   1.451   1_554 S
C266   C267    1.390   .     A
C266   H269    1.082   .     S
C267   C988    1.409   .     S
C267   C1036   1.444   .     S
C268   N313    1.434   .     S
C268   C987    1.409   1_554 S
C268   C962    1.427   1_554 S
N271   Zn281   2.030   .     S
N272   Zn282   2.030   .     S
O273   Zn281   2.021   .     S
O274   Zn282   1.987   .     S
O275   Zn281   1.954   .     S
O276   Zn282   1.888   .     S
O277   Zn281   1.987   .     S
O278   Zn282   2.021   .     S
O279   Zn281   1.888   .     S
O280   Zn282   1.954   .     S
N283   H284    1.044   .     S
N283   H285    1.045   .     S
N286   H288    1.041   .     S
N286   H287    1.044   .     S
N289   H291    1.042   .     S
N289   H290    1.045   .     S
N292   H294    1.046   .     S
N292   H293    1.045   .     S
N295   H296    1.044   .     S
N295   H297    1.031   .     S
C298   N299    1.158   .     T
N300   H302    1.043   .     S
N300   H301    1.037   .     S
N303   H305    1.045   .     S
N303   H304    1.046   .     S
N306   H308    1.046   .     S
N306   H307    1.046   .     S
C309   C984    1.451   .     S
C309   N390    1.157   .     S
N310   C469    1.157   1_455 S
C311   N312    1.158   .     T
N313   H314    1.044   .     S
N313   H315    1.045   .     S
C316   C987    1.444   1_554 S
C316   N477    1.157   1_455 S
N317   C396    1.157   .     S
N318   H320    1.040   .     S
N318   H319    1.042   .     S
C321   O354    1.288   .     A
C321   O353    1.291   .     A
C321   C337    1.415   .     S
C322   C323    1.411   .     A
C322   C1044   1.429   .     S
C322   C1068   1.427   .     S
C323   C327    1.420   .     A
C323   C330    1.417   .     A
C324   C328    1.412   .     A
C324   C1042   1.429   1_554 S
C324   C1045   1.430   1_554 S
C325   C326    1.412   .     A
C325   C1044   1.430   .     S
C325   C1064   1.423   .     S
C326   C327    1.399   .     A
C326   N386    1.437   .     S
C327   N398    1.436   .     S
C328   C345    1.396   .     A
C328   C391    1.451   .     S
C329   C345    1.403   .     A
C329   N363    1.430   .     S
C329   C344    1.403   .     A
C330   C346    1.397   .     A
C330   C332    1.467   .     S
C331   H350    1.086   .     S
C331   C337    1.386   .     A
C331   C573    1.368   .     S
C332   O356    1.299   .     A
C332   O355    1.305   .     A
C333   N366    1.425   .     S
C333   C334    1.408   .     A
C334   C342    1.432   .     S
C334   C335    1.419   .     A
C335   N369    1.438   .     S
C336   C337    1.397   .     A
C336   N372    1.433   .     S
C336   C575    1.386   .     S
C338   N375    1.426   .     S
C338   N352    1.381   .     A
C338   C419    1.424   .     S
C339   N351    1.361   .     A
C339   C378    1.444   .     S
C340   N380    1.425   .     S
C340   N351    1.377   .     A
C341   N352    1.366   .     A
C341   N383    1.431   .     S
C341   C420    1.426   .     S
C342   O358    1.302   .     A
C342   O357    1.285   .     A
C343   O360    1.304   .     A
C343   O359    1.303   .     A
C343   C345    1.474   .     S
C344   C1045   1.423   1_554 S
C344   C1109   1.451   1_554 S
C346   C347    1.390   .     A
C346   H349    1.082   .     S
C347   C1068   1.409   .     S
C347   C1116   1.444   .     S
C348   N393    1.434   .     S
C348   C1067   1.409   1_554 S
C348   C1042   1.427   1_554 S
N351   Zn361   2.030   .     S
N352   Zn362   2.030   .     S
O353   Zn361   2.021   .     S
O354   Zn362   1.987   .     S
O355   Zn361   1.954   .     S
O356   Zn362   1.888   .     S
O357   Zn361   1.987   .     S
O358   Zn362   2.021   .     S
O359   Zn361   1.888   .     S
O360   Zn362   1.954   .     S
N363   H364    1.044   .     S
N363   H365    1.045   .     S
N366   H368    1.041   .     S
N366   H367    1.044   .     S
N369   H371    1.042   .     S
N369   H370    1.045   .     S
N372   H374    1.046   .     S
N372   H373    1.045   .     S
N375   H376    1.044   .     S
N375   H377    1.031   .     S
C378   N379    1.158   .     T
N380   H382    1.043   .     S
N380   H381    1.037   .     S
N383   H385    1.045   .     S
N383   H384    1.046   .     S
N386   H388    1.046   .     S
N386   H387    1.046   .     S
C389   C1064   1.451   .     S
C389   N470    1.157   .     S
C391   N392    1.158   .     T
N393   H394    1.044   .     S
N393   H395    1.045   .     S
C396   C1067   1.444   1_554 S
N397   C476    1.157   .     S
N398   H400    1.040   .     S
N398   H399    1.042   .     S
C401   O434    1.288   .     A
C401   O433    1.291   .     A
C401   C417    1.415   .     S
C402   C403    1.411   .     A
C402   C1124   1.429   .     S
C402   C1148   1.427   .     S
C403   C407    1.420   .     A
C403   C410    1.417   .     A
C404   C408    1.412   .     A
C404   C1122   1.429   1_554 S
C404   C1125   1.430   1_554 S
C405   C406    1.412   .     A
C405   C1124   1.430   .     S
C405   C1144   1.423   .     S
C406   C407    1.399   .     A
C406   N466    1.437   .     S
C407   N478    1.436   .     S
C408   C425    1.396   .     A
C408   C471    1.451   .     S
C409   C425    1.403   .     A
C409   N443    1.430   .     S
C409   C424    1.403   .     A
C410   C426    1.397   .     A
C410   C412    1.467   .     S
C411   H430    1.086   .     S
C411   C417    1.386   .     A
C411   C653    1.368   .     S
C412   O436    1.299   .     A
C412   O435    1.305   .     A
C413   N446    1.425   .     S
C413   C414    1.408   .     A
C414   C422    1.432   .     S
C414   C415    1.419   .     A
C415   N449    1.438   .     S
C416   C417    1.397   .     A
C416   N452    1.433   .     S
C416   C655    1.386   .     S
C418   N455    1.426   .     S
C418   N432    1.381   .     A
C418   C259    1.424   1_655 S
C419   N431    1.361   .     A
C419   C458    1.444   .     S
C420   N460    1.425   .     S
C420   N431    1.377   .     A
C421   N432    1.366   .     A
C421   N463    1.431   .     S
C421   C260    1.426   1_655 S
C422   O438    1.302   .     A
C422   O437    1.285   .     A
C423   O440    1.304   .     A
C423   O439    1.303   .     A
C423   C425    1.474   .     S
C424   C1125   1.423   1_554 S
C424   C1189   1.451   1_554 S
C426   C427    1.390   .     A
C426   H429    1.082   .     S
C427   C1148   1.409   .     S
C427   C1196   1.444   .     S
C428   N473    1.434   .     S
C428   C1147   1.409   1_554 S
C428   C1122   1.427   1_554 S
N431   Zn441   2.030   .     S
N432   Zn442   2.030   .     S
O433   Zn441   2.021   .     S
O434   Zn442   1.987   .     S
O435   Zn441   1.954   .     S
O436   Zn442   1.888   .     S
O437   Zn441   1.987   .     S
O438   Zn442   2.021   .     S
O439   Zn441   1.888   .     S
O440   Zn442   1.954   .     S
N443   H444    1.044   .     S
N443   H445    1.045   .     S
N446   H448    1.041   .     S
N446   H447    1.044   .     S
N449   H451    1.042   .     S
N449   H450    1.045   .     S
N452   H454    1.046   .     S
N452   H453    1.045   .     S
N455   H456    1.044   .     S
N455   H457    1.031   .     S
C458   N459    1.158   .     T
N460   H462    1.043   .     S
N460   H461    1.037   .     S
N463   H465    1.045   .     S
N463   H464    1.046   .     S
N466   H468    1.046   .     S
N466   H467    1.046   .     S
C469   C1144   1.451   .     S
C469   N310    1.157   1_655 S
C471   N472    1.158   .     T
N473   H474    1.044   .     S
N473   H475    1.045   .     S
C476   C1147   1.444   1_554 S
N477   C316    1.157   1_655 S
N478   H480    1.040   .     S
N478   H479    1.042   .     S
C481   O514    1.288   .     A
C481   O513    1.291   .     A
C481   C497    1.415   .     S
C482   C483    1.411   .     A
C482   C1204   1.429   .     S
C482   C1228   1.427   .     S
C483   C487    1.420   .     A
C483   C490    1.417   .     A
C484   C488    1.412   .     A
C484   C1202   1.429   1_554 S
C484   C1205   1.430   1_554 S
C485   C486    1.412   .     A
C485   C1204   1.430   .     S
C485   C1224   1.423   .     S
C486   C487    1.399   .     A
C486   N546    1.437   .     S
C487   N558    1.436   .     S
C488   C505    1.396   .     A
C488   C551    1.451   .     S
C489   C505    1.403   .     A
C489   N523    1.430   .     S
C489   C504    1.403   .     A
C490   C506    1.397   .     A
C490   C492    1.467   .     S
C491   H510    1.086   .     S
C491   C497    1.386   .     A
C491   C13     1.368   1_565 S
C492   O516    1.299   .     A
C492   O515    1.305   .     A
C493   N526    1.425   .     S
C493   C494    1.408   .     A
C494   C502    1.432   .     S
C494   C495    1.419   .     A
C495   N529    1.438   .     S
C496   C497    1.397   .     A
C496   N532    1.433   .     S
C496   C15     1.386   1_565 S
C498   N535    1.426   .     S
C498   N512    1.381   .     A
C498   C579    1.424   .     S
C499   N511    1.361   .     A
C499   C538    1.444   .     S
C499   C658    1.424   1_455 S
C500   N540    1.425   .     S
C500   N511    1.377   .     A
C500   C661    1.426   1_455 S
C501   N512    1.366   .     A
C501   N543    1.431   .     S
C501   C580    1.426   .     S
C502   O518    1.302   .     A
C502   O517    1.285   .     A
C503   O520    1.304   .     A
C503   O519    1.303   .     A
C503   C505    1.474   .     S
C504   C1205   1.423   1_554 S
C504   C1269   1.451   1_554 S
C506   C507    1.390   .     A
C506   H509    1.082   .     S
C507   C1228   1.409   .     S
C507   C1276   1.444   .     S
C508   N553    1.434   .     S
C508   C1227   1.409   1_554 S
C508   C1202   1.427   1_554 S
N511   Zn521   2.030   .     S
N512   Zn522   2.030   .     S
O513   Zn521   2.021   .     S
O514   Zn522   1.987   .     S
O515   Zn521   1.954   .     S
O516   Zn522   1.888   .     S
O517   Zn521   1.987   .     S
O518   Zn522   2.021   .     S
O519   Zn521   1.888   .     S
O520   Zn522   1.954   .     S
N523   H524    1.044   .     S
N523   H525    1.045   .     S
N526   H528    1.041   .     S
N526   H527    1.044   .     S
N529   H531    1.042   .     S
N529   H530    1.045   .     S
N532   H534    1.046   .     S
N532   H533    1.045   .     S
N535   H536    1.044   .     S
N535   H537    1.031   .     S
C538   N539    1.158   .     T
N540   H542    1.043   .     S
N540   H541    1.037   .     S
N543   H545    1.045   .     S
N543   H544    1.046   .     S
N546   H548    1.046   .     S
N546   H547    1.046   .     S
C549   C1224   1.451   .     S
C549   N630    1.157   .     S
N550   C709    1.157   1_455 S
C551   N552    1.158   .     T
N553   H554    1.044   .     S
N553   H555    1.045   .     S
C556   C1227   1.444   1_554 S
C556   N717    1.157   1_455 S
N557   C636    1.157   .     S
N558   H560    1.040   .     S
N558   H559    1.042   .     S
C561   O594    1.288   .     A
C561   O593    1.291   .     A
C561   C577    1.415   .     S
C562   C563    1.411   .     A
C562   C1284   1.429   .     S
C562   C1308   1.427   .     S
C563   C567    1.420   .     A
C563   C570    1.417   .     A
C564   C568    1.412   .     A
C564   C1282   1.429   1_554 S
C564   C1285   1.430   1_554 S
C565   C566    1.412   .     A
C565   C1284   1.430   .     S
C565   C1304   1.423   .     S
C566   C567    1.399   .     A
C566   N626    1.437   .     S
C567   N638    1.436   .     S
C568   C585    1.396   .     A
C568   C631    1.451   .     S
C569   C585    1.403   .     A
C569   N603    1.430   .     S
C569   C584    1.403   .     A
C570   C586    1.397   .     A
C570   C572    1.467   .     S
C571   H590    1.086   .     S
C571   C577    1.386   .     A
C571   C93     1.368   1_565 S
C572   O596    1.299   .     A
C572   O595    1.305   .     A
C573   N606    1.425   .     S
C573   C574    1.408   .     A
C574   C582    1.432   .     S
C574   C575    1.419   .     A
C575   N609    1.438   .     S
C576   C577    1.397   .     A
C576   N612    1.433   .     S
C576   C95     1.386   1_565 S
C578   N615    1.426   .     S
C578   N592    1.381   .     A
C578   C659    1.424   .     S
C579   N591    1.361   .     A
C579   C618    1.444   .     S
C580   N620    1.425   .     S
C580   N591    1.377   .     A
C581   N592    1.366   .     A
C581   N623    1.431   .     S
C581   C660    1.426   .     S
C582   O598    1.302   .     A
C582   O597    1.285   .     A
C583   O600    1.304   .     A
C583   O599    1.303   .     A
C583   C585    1.474   .     S
C584   C1285   1.423   1_554 S
C584   C1349   1.451   1_554 S
C586   C587    1.390   .     A
C586   H589    1.082   .     S
C587   C1308   1.409   .     S
C587   C1356   1.444   .     S
C588   N633    1.434   .     S
C588   C1307   1.409   1_554 S
C588   C1282   1.427   1_554 S
N591   Zn601   2.030   .     S
N592   Zn602   2.030   .     S
O593   Zn601   2.021   .     S
O594   Zn602   1.987   .     S
O595   Zn601   1.954   .     S
O596   Zn602   1.888   .     S
O597   Zn601   1.987   .     S
O598   Zn602   2.021   .     S
O599   Zn601   1.888   .     S
O600   Zn602   1.954   .     S
N603   H604    1.044   .     S
N603   H605    1.045   .     S
N606   H608    1.041   .     S
N606   H607    1.044   .     S
N609   H611    1.042   .     S
N609   H610    1.045   .     S
N612   H614    1.046   .     S
N612   H613    1.045   .     S
N615   H616    1.044   .     S
N615   H617    1.031   .     S
C618   N619    1.158   .     T
N620   H622    1.043   .     S
N620   H621    1.037   .     S
N623   H625    1.045   .     S
N623   H624    1.046   .     S
N626   H628    1.046   .     S
N626   H627    1.046   .     S
C629   C1304   1.451   .     S
C629   N710    1.157   .     S
C631   N632    1.158   .     T
N633   H634    1.044   .     S
N633   H635    1.045   .     S
C636   C1307   1.444   1_554 S
N637   C716    1.157   .     S
N638   H640    1.040   .     S
N638   H639    1.042   .     S
C641   O674    1.288   .     A
C641   O673    1.291   .     A
C641   C657    1.415   .     S
C642   C643    1.411   .     A
C642   C1364   1.429   .     S
C642   C1388   1.427   .     S
C643   C647    1.420   .     A
C643   C650    1.417   .     A
C644   C648    1.412   .     A
C644   C1362   1.429   1_554 S
C644   C1365   1.430   1_554 S
C645   C646    1.412   .     A
C645   C1364   1.430   .     S
C645   C1384   1.423   .     S
C646   C647    1.399   .     A
C646   N706    1.437   .     S
C647   N718    1.436   .     S
C648   C665    1.396   .     A
C648   C711    1.451   .     S
C649   C665    1.403   .     A
C649   N683    1.430   .     S
C649   C664    1.403   .     A
C650   C666    1.397   .     A
C650   C652    1.467   .     S
C651   H670    1.086   .     S
C651   C657    1.386   .     A
C651   C173    1.368   1_565 S
C652   O676    1.299   .     A
C652   O675    1.305   .     A
C653   N686    1.425   .     S
C653   C654    1.408   .     A
C654   C662    1.432   .     S
C654   C655    1.419   .     A
C655   N689    1.438   .     S
C656   C657    1.397   .     A
C656   N692    1.433   .     S
C656   C175    1.386   1_565 S
C658   N695    1.426   .     S
C658   N672    1.381   .     A
C658   C499    1.424   1_655 S
C659   N671    1.361   .     A
C659   C698    1.444   .     S
C660   N700    1.425   .     S
C660   N671    1.377   .     A
C661   N672    1.366   .     A
C661   N703    1.431   .     S
C661   C500    1.426   1_655 S
C662   O678    1.302   .     A
C662   O677    1.285   .     A
C663   O680    1.304   .     A
C663   O679    1.303   .     A
C663   C665    1.474   .     S
C664   C1365   1.423   1_554 S
C664   C1429   1.451   1_554 S
C666   C667    1.390   .     A
C666   H669    1.082   .     S
C667   C1388   1.409   .     S
C667   C1436   1.444   .     S
C668   N713    1.434   .     S
C668   C1387   1.409   1_554 S
C668   C1362   1.427   1_554 S
N671   Zn681   2.030   .     S
N672   Zn682   2.030   .     S
O673   Zn681   2.021   .     S
O674   Zn682   1.987   .     S
O675   Zn681   1.954   .     S
O676   Zn682   1.888   .     S
O677   Zn681   1.987   .     S
O678   Zn682   2.021   .     S
O679   Zn681   1.888   .     S
O680   Zn682   1.954   .     S
N683   H684    1.044   .     S
N683   H685    1.045   .     S
N686   H688    1.041   .     S
N686   H687    1.044   .     S
N689   H691    1.042   .     S
N689   H690    1.045   .     S
N692   H694    1.046   .     S
N692   H693    1.045   .     S
N695   H696    1.044   .     S
N695   H697    1.031   .     S
C698   N699    1.158   .     T
N700   H702    1.043   .     S
N700   H701    1.037   .     S
N703   H705    1.045   .     S
N703   H704    1.046   .     S
N706   H708    1.046   .     S
N706   H707    1.046   .     S
C709   C1384   1.451   .     S
C709   N550    1.157   1_655 S
C711   N712    1.158   .     T
N713   H714    1.044   .     S
N713   H715    1.045   .     S
C716   C1387   1.444   1_554 S
N717   C556    1.157   1_655 S
N718   H720    1.040   .     S
N718   H719    1.042   .     S
C721   O754    1.288   .     A
C721   O753    1.291   .     A
C721   C737    1.415   .     S
C722   C723    1.411   .     A
C722   C4      1.429   1_556 S
C722   C28     1.427   1_556 S
C723   C727    1.420   .     A
C723   C730    1.417   .     A
C724   C728    1.412   .     A
C725   C726    1.412   .     A
C725   C4      1.430   1_556 S
C725   C24     1.423   1_556 S
C726   C727    1.399   .     A
C726   N786    1.437   .     S
C727   N798    1.436   .     S
C728   C745    1.396   .     A
C728   C791    1.451   .     S
C729   C745    1.403   .     A
C729   N763    1.430   .     S
C729   C744    1.403   .     A
C730   C746    1.397   .     A
C730   C732    1.467   .     S
C731   H750    1.086   .     S
C731   C737    1.386   .     A
C731   C973    1.368   .     S
C732   O756    1.299   .     A
C732   O755    1.305   .     A
C733   N766    1.425   .     S
C733   C734    1.408   .     A
C733   C1211   1.368   1_545 S
C734   C742    1.432   .     S
C734   C735    1.419   .     A
C735   N769    1.438   .     S
C735   C1216   1.386   1_545 S
C736   C737    1.397   .     A
C736   N772    1.433   .     S
C736   C975    1.386   .     S
C738   N775    1.426   .     S
C738   N752    1.381   .     A
C738   C819    1.424   .     S
C739   N751    1.361   .     A
C739   C778    1.444   .     S
C739   C898    1.424   1_455 S
C740   N780    1.425   .     S
C740   N751    1.377   .     A
C740   C901    1.426   1_455 S
C741   N752    1.366   .     A
C741   N783    1.431   .     S
C741   C820    1.426   .     S
C742   O758    1.302   .     A
C742   O757    1.285   .     A
C743   O760    1.304   .     A
C743   O759    1.303   .     A
C743   C745    1.474   .     S
C746   C747    1.390   .     A
C746   H749    1.082   .     S
C747   C28     1.409   1_556 S
C747   C76     1.444   1_556 S
C748   N793    1.434   .     S
N751   Zn761   2.030   .     S
N752   Zn762   2.030   .     S
O753   Zn761   2.021   .     S
O754   Zn762   1.987   .     S
O755   Zn761   1.954   .     S
O756   Zn762   1.888   .     S
O757   Zn761   1.987   .     S
O758   Zn762   2.021   .     S
O759   Zn761   1.888   .     S
O760   Zn762   1.954   .     S
N763   H764    1.044   .     S
N763   H765    1.045   .     S
N766   H768    1.041   .     S
N766   H767    1.044   .     S
N769   H771    1.042   .     S
N769   H770    1.045   .     S
N772   H774    1.046   .     S
N772   H773    1.045   .     S
N775   H776    1.044   .     S
N775   H777    1.031   .     S
C778   N779    1.158   .     T
N780   H782    1.043   .     S
N780   H781    1.037   .     S
N783   H785    1.045   .     S
N783   H784    1.046   .     S
N786   H788    1.046   .     S
N786   H787    1.046   .     S
C789   C24     1.451   1_556 S
C789   N870    1.157   .     S
N790   C949    1.157   1_455 S
C791   N792    1.158   .     T
N793   H794    1.044   .     S
N793   H795    1.045   .     S
C796   N957    1.157   1_455 S
N797   C876    1.157   .     S
N798   H800    1.040   .     S
N798   H799    1.042   .     S
C801   O834    1.288   .     A
C801   O833    1.291   .     A
C801   C817    1.415   .     S
C802   C803    1.411   .     A
C802   C84     1.429   1_556 S
C802   C108    1.427   1_556 S
C803   C807    1.420   .     A
C803   C810    1.417   .     A
C804   C808    1.412   .     A
C805   C806    1.412   .     A
C805   C84     1.430   1_556 S
C805   C104    1.423   1_556 S
C806   C807    1.399   .     A
C806   N866    1.437   .     S
C807   N878    1.436   .     S
C808   C825    1.396   .     A
C808   C871    1.451   .     S
C809   C825    1.403   .     A
C809   N843    1.430   .     S
C809   C824    1.403   .     A
C810   C826    1.397   .     A
C810   C812    1.467   .     S
C811   H830    1.086   .     S
C811   C817    1.386   .     A
C811   C1053   1.368   .     S
C812   O836    1.299   .     A
C812   O835    1.305   .     A
C813   N846    1.425   .     S
C813   C814    1.408   .     A
C813   C1291   1.368   1_545 S
C814   C822    1.432   .     S
C814   C815    1.419   .     A
C815   N849    1.438   .     S
C815   C1296   1.386   1_545 S
C816   C817    1.397   .     A
C816   N852    1.433   .     S
C816   C1055   1.386   .     S
C818   N855    1.426   .     S
C818   N832    1.381   .     A
C818   C899    1.424   .     S
C819   N831    1.361   .     A
C819   C858    1.444   .     S
C820   N860    1.425   .     S
C820   N831    1.377   .     A
C821   N832    1.366   .     A
C821   N863    1.431   .     S
C821   C900    1.426   .     S
C822   O838    1.302   .     A
C822   O837    1.285   .     A
C823   O840    1.304   .     A
C823   O839    1.303   .     A
C823   C825    1.474   .     S
C826   C827    1.390   .     A
C826   H829    1.082   .     S
C827   C108    1.409   1_556 S
C827   C156    1.444   1_556 S
C828   N873    1.434   .     S
N831   Zn841   2.030   .     S
N832   Zn842   2.030   .     S
O833   Zn841   2.021   .     S
O834   Zn842   1.987   .     S
O835   Zn841   1.954   .     S
O836   Zn842   1.888   .     S
O837   Zn841   1.987   .     S
O838   Zn842   2.021   .     S
O839   Zn841   1.888   .     S
O840   Zn842   1.954   .     S
N843   H844    1.044   .     S
N843   H845    1.045   .     S
N846   H848    1.041   .     S
N846   H847    1.044   .     S
N849   H851    1.042   .     S
N849   H850    1.045   .     S
N852   H854    1.046   .     S
N852   H853    1.045   .     S
N855   H856    1.044   .     S
N855   H857    1.031   .     S
C858   N859    1.158   .     T
N860   H862    1.043   .     S
N860   H861    1.037   .     S
N863   H865    1.045   .     S
N863   H864    1.046   .     S
N866   H868    1.046   .     S
N866   H867    1.046   .     S
C869   C104    1.451   1_556 S
C869   N950    1.157   .     S
C871   N872    1.158   .     T
N873   H874    1.044   .     S
N873   H875    1.045   .     S
N877   C956    1.157   .     S
N878   H880    1.040   .     S
N878   H879    1.042   .     S
C881   O914    1.288   .     A
C881   O913    1.291   .     A
C881   C897    1.415   .     S
C882   C883    1.411   .     A
C882   C164    1.429   1_556 S
C882   C188    1.427   1_556 S
C883   C887    1.420   .     A
C883   C890    1.417   .     A
C884   C888    1.412   .     A
C885   C886    1.412   .     A
C885   C164    1.430   1_556 S
C885   C184    1.423   1_556 S
C886   C887    1.399   .     A
C886   N946    1.437   .     S
C887   N958    1.436   .     S
C888   C905    1.396   .     A
C888   C951    1.451   .     S
C889   C905    1.403   .     A
C889   N923    1.430   .     S
C889   C904    1.403   .     A
C890   C906    1.397   .     A
C890   C892    1.467   .     S
C891   H910    1.086   .     S
C891   C897    1.386   .     A
C891   C1133   1.368   .     S
C892   O916    1.299   .     A
C892   O915    1.305   .     A
C893   N926    1.425   .     S
C893   C894    1.408   .     A
C893   C1371   1.368   1_545 S
C894   C902    1.432   .     S
C894   C895    1.419   .     A
C895   N929    1.438   .     S
C895   C1376   1.386   1_545 S
C896   C897    1.397   .     A
C896   N932    1.433   .     S
C896   C1135   1.386   .     S
C898   N935    1.426   .     S
C898   N912    1.381   .     A
C898   C739    1.424   1_655 S
C899   N911    1.361   .     A
C899   C938    1.444   .     S
C900   N940    1.425   .     S
C900   N911    1.377   .     A
C901   N912    1.366   .     A
C901   N943    1.431   .     S
C901   C740    1.426   1_655 S
C902   O918    1.302   .     A
C902   O917    1.285   .     A
C903   O920    1.304   .     A
C903   O919    1.303   .     A
C903   C905    1.474   .     S
C906   C907    1.390   .     A
C906   H909    1.082   .     S
C907   C188    1.409   1_556 S
C907   C236    1.444   1_556 S
C908   N953    1.434   .     S
N911   Zn921   2.030   .     S
N912   Zn922   2.030   .     S
O913   Zn921   2.021   .     S
O914   Zn922   1.987   .     S
O915   Zn921   1.954   .     S
O916   Zn922   1.888   .     S
O917   Zn921   1.987   .     S
O918   Zn922   2.021   .     S
O919   Zn921   1.888   .     S
O920   Zn922   1.954   .     S
N923   H924    1.044   .     S
N923   H925    1.045   .     S
N926   H928    1.041   .     S
N926   H927    1.044   .     S
N929   H931    1.042   .     S
N929   H930    1.045   .     S
N932   H934    1.046   .     S
N932   H933    1.045   .     S
N935   H936    1.044   .     S
N935   H937    1.031   .     S
C938   N939    1.158   .     T
N940   H942    1.043   .     S
N940   H941    1.037   .     S
N943   H945    1.045   .     S
N943   H944    1.046   .     S
N946   H948    1.046   .     S
N946   H947    1.046   .     S
C949   C184    1.451   1_556 S
C949   N790    1.157   1_655 S
C951   N952    1.158   .     T
N953   H954    1.044   .     S
N953   H955    1.045   .     S
N957   C796    1.157   1_655 S
N958   H960    1.040   .     S
N958   H959    1.042   .     S
C961   O994    1.288   .     A
C961   O993    1.291   .     A
C961   C977    1.415   .     S
C962   C963    1.411   .     A
C962   C244    1.429   1_556 S
C962   C268    1.427   1_556 S
C963   C967    1.420   .     A
C963   C970    1.417   .     A
C964   C968    1.412   .     A
C965   C966    1.412   .     A
C965   C244    1.430   1_556 S
C965   C264    1.423   1_556 S
C966   C967    1.399   .     A
C966   N1026   1.437   .     S
C967   N1038   1.436   .     S
C968   C985    1.396   .     A
C968   C1031   1.451   .     S
C969   C985    1.403   .     A
C969   N1003   1.430   .     S
C969   C984    1.403   .     A
C970   C986    1.397   .     A
C970   C972    1.467   .     S
C971   H990    1.086   .     S
C971   C977    1.386   .     A
C971   C1213   1.368   .     S
C972   O996    1.299   .     A
C972   O995    1.305   .     A
C973   N1006   1.425   .     S
C973   C974    1.408   .     A
C974   C982    1.432   .     S
C974   C975    1.419   .     A
C975   N1009   1.438   .     S
C976   C977    1.397   .     A
C976   N1012   1.433   .     S
C976   C1215   1.386   .     S
C978   N1015   1.426   .     S
C978   N992    1.381   .     A
C978   C1059   1.424   .     S
C979   N991    1.361   .     A
C979   C1018   1.444   .     S
C979   C1138   1.424   1_455 S
C980   N1020   1.425   .     S
C980   N991    1.377   .     A
C980   C1141   1.426   1_455 S
C981   N992    1.366   .     A
C981   N1023   1.431   .     S
C981   C1060   1.426   .     S
C982   O998    1.302   .     A
C982   O997    1.285   .     A
C983   O1000   1.304   .     A
C983   O999    1.303   .     A
C983   C985    1.474   .     S
C986   C987    1.390   .     A
C986   H989    1.082   .     S
C987   C268    1.409   1_556 S
C987   C316    1.444   1_556 S
C988   N1033   1.434   .     S
N991   Zn1001  2.030   .     S
N992   Zn1002  2.030   .     S
O993   Zn1001  2.021   .     S
O994   Zn1002  1.987   .     S
O995   Zn1001  1.954   .     S
O996   Zn1002  1.888   .     S
O997   Zn1001  1.987   .     S
O998   Zn1002  2.021   .     S
O999   Zn1001  1.888   .     S
O1000  Zn1002  1.954   .     S
N1003  H1004   1.044   .     S
N1003  H1005   1.045   .     S
N1006  H1008   1.041   .     S
N1006  H1007   1.044   .     S
N1009  H1011   1.042   .     S
N1009  H1010   1.045   .     S
N1012  H1014   1.046   .     S
N1012  H1013   1.045   .     S
N1015  H1016   1.044   .     S
N1015  H1017   1.031   .     S
C1018  N1019   1.158   .     T
N1020  H1022   1.043   .     S
N1020  H1021   1.037   .     S
N1023  H1025   1.045   .     S
N1023  H1024   1.046   .     S
N1026  H1028   1.046   .     S
N1026  H1027   1.046   .     S
C1029  C264    1.451   1_556 S
C1029  N1110   1.157   .     S
N1030  C1189   1.157   1_455 S
C1031  N1032   1.158   .     T
N1033  H1034   1.044   .     S
N1033  H1035   1.045   .     S
C1036  N1197   1.157   1_455 S
N1037  C1116   1.157   .     S
N1038  H1040   1.040   .     S
N1038  H1039   1.042   .     S
C1041  O1074   1.288   .     A
C1041  O1073   1.291   .     A
C1041  C1057   1.415   .     S
C1042  C1043   1.411   .     A
C1042  C324    1.429   1_556 S
C1042  C348    1.427   1_556 S
C1043  C1047   1.420   .     A
C1043  C1050   1.417   .     A
C1044  C1048   1.412   .     A
C1045  C1046   1.412   .     A
C1045  C324    1.430   1_556 S
C1045  C344    1.423   1_556 S
C1046  C1047   1.399   .     A
C1046  N1106   1.437   .     S
C1047  N1118   1.436   .     S
C1048  C1065   1.396   .     A
C1048  C1111   1.451   .     S
C1049  C1065   1.403   .     A
C1049  N1083   1.430   .     S
C1049  C1064   1.403   .     A
C1050  C1066   1.397   .     A
C1050  C1052   1.467   .     S
C1051  H1070   1.086   .     S
C1051  C1057   1.386   .     A
C1051  C1293   1.368   .     S
C1052  O1076   1.299   .     A
C1052  O1075   1.305   .     A
C1053  N1086   1.425   .     S
C1053  C1054   1.408   .     A
C1054  C1062   1.432   .     S
C1054  C1055   1.419   .     A
C1055  N1089   1.438   .     S
C1056  C1057   1.397   .     A
C1056  N1092   1.433   .     S
C1056  C1295   1.386   .     S
C1058  N1095   1.426   .     S
C1058  N1072   1.381   .     A
C1058  C1139   1.424   .     S
C1059  N1071   1.361   .     A
C1059  C1098   1.444   .     S
C1060  N1100   1.425   .     S
C1060  N1071   1.377   .     A
C1061  N1072   1.366   .     A
C1061  N1103   1.431   .     S
C1061  C1140   1.426   .     S
C1062  O1078   1.302   .     A
C1062  O1077   1.285   .     A
C1063  O1080   1.304   .     A
C1063  O1079   1.303   .     A
C1063  C1065   1.474   .     S
C1066  C1067   1.390   .     A
C1066  H1069   1.082   .     S
C1067  C348    1.409   1_556 S
C1067  C396    1.444   1_556 S
C1068  N1113   1.434   .     S
N1071  Zn1081  2.030   .     S
N1072  Zn1082  2.030   .     S
O1073  Zn1081  2.021   .     S
O1074  Zn1082  1.987   .     S
O1075  Zn1081  1.954   .     S
O1076  Zn1082  1.888   .     S
O1077  Zn1081  1.987   .     S
O1078  Zn1082  2.021   .     S
O1079  Zn1081  1.888   .     S
O1080  Zn1082  1.954   .     S
N1083  H1084   1.044   .     S
N1083  H1085   1.045   .     S
N1086  H1088   1.041   .     S
N1086  H1087   1.044   .     S
N1089  H1091   1.042   .     S
N1089  H1090   1.045   .     S
N1092  H1094   1.046   .     S
N1092  H1093   1.045   .     S
N1095  H1096   1.044   .     S
N1095  H1097   1.031   .     S
C1098  N1099   1.158   .     T
N1100  H1102   1.043   .     S
N1100  H1101   1.037   .     S
N1103  H1105   1.045   .     S
N1103  H1104   1.046   .     S
N1106  H1108   1.046   .     S
N1106  H1107   1.046   .     S
C1109  C344    1.451   1_556 S
C1109  N1190   1.157   .     S
C1111  N1112   1.158   .     T
N1113  H1114   1.044   .     S
N1113  H1115   1.045   .     S
N1117  C1196   1.157   .     S
N1118  H1120   1.040   .     S
N1118  H1119   1.042   .     S
C1121  O1154   1.288   .     A
C1121  O1153   1.291   .     A
C1121  C1137   1.415   .     S
C1122  C1123   1.411   .     A
C1122  C404    1.429   1_556 S
C1122  C428    1.427   1_556 S
C1123  C1127   1.420   .     A
C1123  C1130   1.417   .     A
C1124  C1128   1.412   .     A
C1125  C1126   1.412   .     A
C1125  C404    1.430   1_556 S
C1125  C424    1.423   1_556 S
C1126  C1127   1.399   .     A
C1126  N1186   1.437   .     S
C1127  N1198   1.436   .     S
C1128  C1145   1.396   .     A
C1128  C1191   1.451   .     S
C1129  C1145   1.403   .     A
C1129  N1163   1.430   .     S
C1129  C1144   1.403   .     A
C1130  C1146   1.397   .     A
C1130  C1132   1.467   .     S
C1131  H1150   1.086   .     S
C1131  C1137   1.386   .     A
C1131  C1373   1.368   .     S
C1132  O1156   1.299   .     A
C1132  O1155   1.305   .     A
C1133  N1166   1.425   .     S
C1133  C1134   1.408   .     A
C1134  C1142   1.432   .     S
C1134  C1135   1.419   .     A
C1135  N1169   1.438   .     S
C1136  C1137   1.397   .     A
C1136  N1172   1.433   .     S
C1136  C1375   1.386   .     S
C1138  N1175   1.426   .     S
C1138  N1152   1.381   .     A
C1138  C979    1.424   1_655 S
C1139  N1151   1.361   .     A
C1139  C1178   1.444   .     S
C1140  N1180   1.425   .     S
C1140  N1151   1.377   .     A
C1141  N1152   1.366   .     A
C1141  N1183   1.431   .     S
C1141  C980    1.426   1_655 S
C1142  O1158   1.302   .     A
C1142  O1157   1.285   .     A
C1143  O1160   1.304   .     A
C1143  O1159   1.303   .     A
C1143  C1145   1.474   .     S
C1146  C1147   1.390   .     A
C1146  H1149   1.082   .     S
C1147  C428    1.409   1_556 S
C1147  C476    1.444   1_556 S
C1148  N1193   1.434   .     S
N1151  Zn1161  2.030   .     S
N1152  Zn1162  2.030   .     S
O1153  Zn1161  2.021   .     S
O1154  Zn1162  1.987   .     S
O1155  Zn1161  1.954   .     S
O1156  Zn1162  1.888   .     S
O1157  Zn1161  1.987   .     S
O1158  Zn1162  2.021   .     S
O1159  Zn1161  1.888   .     S
O1160  Zn1162  1.954   .     S
N1163  H1164   1.044   .     S
N1163  H1165   1.045   .     S
N1166  H1168   1.041   .     S
N1166  H1167   1.044   .     S
N1169  H1171   1.042   .     S
N1169  H1170   1.045   .     S
N1172  H1174   1.046   .     S
N1172  H1173   1.045   .     S
N1175  H1176   1.044   .     S
N1175  H1177   1.031   .     S
C1178  N1179   1.158   .     T
N1180  H1182   1.043   .     S
N1180  H1181   1.037   .     S
N1183  H1185   1.045   .     S
N1183  H1184   1.046   .     S
N1186  H1188   1.046   .     S
N1186  H1187   1.046   .     S
C1189  C424    1.451   1_556 S
C1189  N1030   1.157   1_655 S
C1191  N1192   1.158   .     T
N1193  H1194   1.044   .     S
N1193  H1195   1.045   .     S
N1197  C1036   1.157   1_655 S
N1198  H1200   1.040   .     S
N1198  H1199   1.042   .     S
C1201  O1234   1.288   .     A
C1201  O1233   1.291   .     A
C1201  C1217   1.415   .     S
C1202  C1203   1.411   .     A
C1202  C484    1.429   1_556 S
C1202  C508    1.427   1_556 S
C1203  C1207   1.420   .     A
C1203  C1210   1.417   .     A
C1204  C1208   1.412   .     A
C1205  C1206   1.412   .     A
C1205  C484    1.430   1_556 S
C1205  C504    1.423   1_556 S
C1206  C1207   1.399   .     A
C1206  N1266   1.437   .     S
C1207  N1278   1.436   .     S
C1208  C1225   1.396   .     A
C1208  C1271   1.451   .     S
C1209  C1225   1.403   .     A
C1209  N1243   1.430   .     S
C1209  C1224   1.403   .     A
C1210  C1226   1.397   .     A
C1210  C1212   1.467   .     S
C1211  H1230   1.086   .     S
C1211  C1217   1.386   .     A
C1211  C733    1.368   1_565 S
C1212  O1236   1.299   .     A
C1212  O1235   1.305   .     A
C1213  N1246   1.425   .     S
C1213  C1214   1.408   .     A
C1214  C1222   1.432   .     S
C1214  C1215   1.419   .     A
C1215  N1249   1.438   .     S
C1216  C1217   1.397   .     A
C1216  N1252   1.433   .     S
C1216  C735    1.386   1_565 S
C1218  N1255   1.426   .     S
C1218  N1232   1.381   .     A
C1218  C1299   1.424   .     S
C1219  N1231   1.361   .     A
C1219  C1258   1.444   .     S
C1219  C1378   1.424   1_455 S
C1220  N1260   1.425   .     S
C1220  N1231   1.377   .     A
C1220  C1381   1.426   1_455 S
C1221  N1232   1.366   .     A
C1221  N1263   1.431   .     S
C1221  C1300   1.426   .     S
C1222  O1238   1.302   .     A
C1222  O1237   1.285   .     A
C1223  O1240   1.304   .     A
C1223  O1239   1.303   .     A
C1223  C1225   1.474   .     S
C1226  C1227   1.390   .     A
C1226  H1229   1.082   .     S
C1227  C508    1.409   1_556 S
C1227  C556    1.444   1_556 S
C1228  N1273   1.434   .     S
N1231  Zn1241  2.030   .     S
N1232  Zn1242  2.030   .     S
O1233  Zn1241  2.021   .     S
O1234  Zn1242  1.987   .     S
O1235  Zn1241  1.954   .     S
O1236  Zn1242  1.888   .     S
O1237  Zn1241  1.987   .     S
O1238  Zn1242  2.021   .     S
O1239  Zn1241  1.888   .     S
O1240  Zn1242  1.954   .     S
N1243  H1244   1.044   .     S
N1243  H1245   1.045   .     S
N1246  H1248   1.041   .     S
N1246  H1247   1.044   .     S
N1249  H1251   1.042   .     S
N1249  H1250   1.045   .     S
N1252  H1254   1.046   .     S
N1252  H1253   1.045   .     S
N1255  H1256   1.044   .     S
N1255  H1257   1.031   .     S
C1258  N1259   1.158   .     T
N1260  H1262   1.043   .     S
N1260  H1261   1.037   .     S
N1263  H1265   1.045   .     S
N1263  H1264   1.046   .     S
N1266  H1268   1.046   .     S
N1266  H1267   1.046   .     S
C1269  C504    1.451   1_556 S
C1269  N1350   1.157   .     S
N1270  C1429   1.157   1_455 S
C1271  N1272   1.158   .     T
N1273  H1274   1.044   .     S
N1273  H1275   1.045   .     S
C1276  N1437   1.157   1_455 S
N1277  C1356   1.157   .     S
N1278  H1280   1.040   .     S
N1278  H1279   1.042   .     S
C1281  O1314   1.288   .     A
C1281  O1313   1.291   .     A
C1281  C1297   1.415   .     S
C1282  C1283   1.411   .     A
C1282  C564    1.429   1_556 S
C1282  C588    1.427   1_556 S
C1283  C1287   1.420   .     A
C1283  C1290   1.417   .     A
C1284  C1288   1.412   .     A
C1285  C1286   1.412   .     A
C1285  C564    1.430   1_556 S
C1285  C584    1.423   1_556 S
C1286  C1287   1.399   .     A
C1286  N1346   1.437   .     S
C1287  N1358   1.436   .     S
C1288  C1305   1.396   .     A
C1288  C1351   1.451   .     S
C1289  C1305   1.403   .     A
C1289  N1323   1.430   .     S
C1289  C1304   1.403   .     A
C1290  C1306   1.397   .     A
C1290  C1292   1.467   .     S
C1291  H1310   1.086   .     S
C1291  C1297   1.386   .     A
C1291  C813    1.368   1_565 S
C1292  O1316   1.299   .     A
C1292  O1315   1.305   .     A
C1293  N1326   1.425   .     S
C1293  C1294   1.408   .     A
C1294  C1302   1.432   .     S
C1294  C1295   1.419   .     A
C1295  N1329   1.438   .     S
C1296  C1297   1.397   .     A
C1296  N1332   1.433   .     S
C1296  C815    1.386   1_565 S
C1298  N1335   1.426   .     S
C1298  N1312   1.381   .     A
C1298  C1379   1.424   .     S
C1299  N1311   1.361   .     A
C1299  C1338   1.444   .     S
C1300  N1340   1.425   .     S
C1300  N1311   1.377   .     A
C1301  N1312   1.366   .     A
C1301  N1343   1.431   .     S
C1301  C1380   1.426   .     S
C1302  O1318   1.302   .     A
C1302  O1317   1.285   .     A
C1303  O1320   1.304   .     A
C1303  O1319   1.303   .     A
C1303  C1305   1.474   .     S
C1306  C1307   1.390   .     A
C1306  H1309   1.082   .     S
C1307  C588    1.409   1_556 S
C1307  C636    1.444   1_556 S
C1308  N1353   1.434   .     S
N1311  Zn1321  2.030   .     S
N1312  Zn1322  2.030   .     S
O1313  Zn1321  2.021   .     S
O1314  Zn1322  1.987   .     S
O1315  Zn1321  1.954   .     S
O1316  Zn1322  1.888   .     S
O1317  Zn1321  1.987   .     S
O1318  Zn1322  2.021   .     S
O1319  Zn1321  1.888   .     S
O1320  Zn1322  1.954   .     S
N1323  H1324   1.044   .     S
N1323  H1325   1.045   .     S
N1326  H1328   1.041   .     S
N1326  H1327   1.044   .     S
N1329  H1331   1.042   .     S
N1329  H1330   1.045   .     S
N1332  H1334   1.046   .     S
N1332  H1333   1.045   .     S
N1335  H1336   1.044   .     S
N1335  H1337   1.031   .     S
C1338  N1339   1.158   .     T
N1340  H1342   1.043   .     S
N1340  H1341   1.037   .     S
N1343  H1345   1.045   .     S
N1343  H1344   1.046   .     S
N1346  H1348   1.046   .     S
N1346  H1347   1.046   .     S
C1349  C584    1.451   1_556 S
C1349  N1430   1.157   .     S
C1351  N1352   1.158   .     T
N1353  H1354   1.044   .     S
N1353  H1355   1.045   .     S
N1357  C1436   1.157   .     S
N1358  H1360   1.040   .     S
N1358  H1359   1.042   .     S
C1361  O1394   1.288   .     A
C1361  O1393   1.291   .     A
C1361  C1377   1.415   .     S
C1362  C1363   1.411   .     A
C1362  C644    1.429   1_556 S
C1362  C668    1.427   1_556 S
C1363  C1367   1.420   .     A
C1363  C1370   1.417   .     A
C1364  C1368   1.412   .     A
C1365  C1366   1.412   .     A
C1365  C644    1.430   1_556 S
C1365  C664    1.423   1_556 S
C1366  C1367   1.399   .     A
C1366  N1426   1.437   .     S
C1367  N1438   1.436   .     S
C1368  C1385   1.396   .     A
C1368  C1431   1.451   .     S
C1369  C1385   1.403   .     A
C1369  N1403   1.430   .     S
C1369  C1384   1.403   .     A
C1370  C1386   1.397   .     A
C1370  C1372   1.467   .     S
C1371  H1390   1.086   .     S
C1371  C1377   1.386   .     A
C1371  C893    1.368   1_565 S
C1372  O1396   1.299   .     A
C1372  O1395   1.305   .     A
C1373  N1406   1.425   .     S
C1373  C1374   1.408   .     A
C1374  C1382   1.432   .     S
C1374  C1375   1.419   .     A
C1375  N1409   1.438   .     S
C1376  C1377   1.397   .     A
C1376  N1412   1.433   .     S
C1376  C895    1.386   1_565 S
C1378  N1415   1.426   .     S
C1378  N1392   1.381   .     A
C1378  C1219   1.424   1_655 S
C1379  N1391   1.361   .     A
C1379  C1418   1.444   .     S
C1380  N1420   1.425   .     S
C1380  N1391   1.377   .     A
C1381  N1392   1.366   .     A
C1381  N1423   1.431   .     S
C1381  C1220   1.426   1_655 S
C1382  O1398   1.302   .     A
C1382  O1397   1.285   .     A
C1383  O1400   1.304   .     A
C1383  O1399   1.303   .     A
C1383  C1385   1.474   .     S
C1386  C1387   1.390   .     A
C1386  H1389   1.082   .     S
C1387  C668    1.409   1_556 S
C1387  C716    1.444   1_556 S
C1388  N1433   1.434   .     S
N1391  Zn1401  2.030   .     S
N1392  Zn1402  2.030   .     S
O1393  Zn1401  2.021   .     S
O1394  Zn1402  1.987   .     S
O1395  Zn1401  1.954   .     S
O1396  Zn1402  1.888   .     S
O1397  Zn1401  1.987   .     S
O1398  Zn1402  2.021   .     S
O1399  Zn1401  1.888   .     S
O1400  Zn1402  1.954   .     S
N1403  H1404   1.044   .     S
N1403  H1405   1.045   .     S
N1406  H1408   1.041   .     S
N1406  H1407   1.044   .     S
N1409  H1411   1.042   .     S
N1409  H1410   1.045   .     S
N1412  H1414   1.046   .     S
N1412  H1413   1.045   .     S
N1415  H1416   1.044   .     S
N1415  H1417   1.031   .     S
C1418  N1419   1.158   .     T
N1420  H1422   1.043   .     S
N1420  H1421   1.037   .     S
N1423  H1425   1.045   .     S
N1423  H1424   1.046   .     S
N1426  H1428   1.046   .     S
N1426  H1427   1.046   .     S
C1429  C664    1.451   1_556 S
C1429  N1270   1.157   1_655 S
C1431  N1432   1.158   .     T
N1433  H1434   1.044   .     S
N1433  H1435   1.045   .     S
N1437  C1276   1.157   1_655 S
N1438  H1440   1.040   .     S
N1438  H1439   1.042   .     S
