data_str_m3_o1_o10_pcu_sym.207
_audit_creation_date              2020-01-03
_audit_creation_method            'Materials Studio'
_symmetry_space_group_name_H-M    'P1'
_symmetry_Int_Tables_number       1
_symmetry_cell_setting            triclinic
loop_
_symmetry_equiv_pos_as_xyz
  x,y,z
_cell_length_a                    25.7451
_cell_length_b                    31.8822
_cell_length_c                    29.5951
_cell_angle_alpha                 89.9549
_cell_angle_beta                  98.8250
_cell_angle_gamma                 90.3168
loop_
_atom_site_label
_atom_site_type_symbol
_atom_site_fract_x
_atom_site_fract_y
_atom_site_fract_z
_atom_site_U_iso_or_equiv
_atom_site_adp_type
_atom_site_occupancy
C1     C     0.16789   0.08679   0.16683   0.00000  Uiso   1.00
C2     C     0.16544   0.24654   0.16650   0.00000  Uiso   1.00
C3     C     0.06703   0.16658   0.15466   0.00000  Uiso   1.00
C4     C     0.26630   0.16675   0.17867   0.00000  Uiso   1.00
C5     C     0.01193   0.16653   0.14824   0.00000  Uiso   1.00
C6     C     0.32140   0.16681   0.18509   0.00000  Uiso   1.00
C7     C     0.20744   0.02074   0.14800   0.00000  Uiso   1.00
C8     C     0.12590   0.31259   0.18533   0.00000  Uiso   1.00
C9     C     0.20440   0.31089   0.14755   0.00000  Uiso   1.00
C10    C     0.12894   0.02244   0.18579   0.00000  Uiso   1.00
C11    C     0.16449   0.29066   0.16623   0.00000  Uiso   1.00
C12    C     0.16884   0.04267   0.16711   0.00000  Uiso   1.00
C13    C     0.19946   0.19270   0.02839   0.00000  Uiso   1.00
C14    C     0.13387   0.14063   0.30494   0.00000  Uiso   1.00
C15    C     0.19956   0.19279   0.31370   0.00000  Uiso   1.00
C16    C     0.13377   0.14055   0.01963   0.00000  Uiso   1.00
H17    H     0.32450   0.16623   0.11333   0.00000  Uiso   1.00
H18    H     0.00883   0.16710   0.22001   0.00000  Uiso   1.00
H19    H     0.23396   0.29287   0.13367   0.00000  Uiso   1.00
H20    H     0.09938   0.04046   0.19966   0.00000  Uiso   1.00
H21    H     0.22564   0.21348   0.05018   0.00000  Uiso   1.00
H22    H     0.10769   0.11985   0.28315   0.00000  Uiso   1.00
N23    N     0.16665   0.16666   0.28573   0.00000  Uiso   1.00
N24    N     0.16668   0.16668   0.04760   0.00000  Uiso   1.00
O25    O     0.16666   0.10558   0.20487   0.00000  Uiso   1.00
O26    O     0.16667   0.22775   0.12846   0.00000  Uiso   1.00
O27    O     0.16666   0.10559   0.12843   0.00000  Uiso   1.00
O28    O     0.16667   0.22774   0.20490   0.00000  Uiso   1.00
O29    O     0.09058   0.16666   0.19595   0.00000  Uiso   1.00
O30    O     0.24275   0.16667   0.13739   0.00000  Uiso   1.00
O31    O     0.09058   0.16667   0.11950   0.00000  Uiso   1.00
O32    O     0.24275   0.16666   0.21383   0.00000  Uiso   1.00
Zn33   Zn    0.16667   0.16666   0.21771   0.00000  Uiso   1.00
Zn34   Zn    0.16667   0.16667   0.11563   0.00000  Uiso   1.00
C35    C     0.25321   0.04186   0.13018   0.00000  Uiso   1.00
C36    C     0.24439   0.04314   0.07801   0.00000  Uiso   1.00
H37    H     0.24101   0.01083   0.06380   0.00000  Uiso   1.00
H38    H     0.20802   0.06071   0.06505   0.00000  Uiso   1.00
H39    H     0.27818   0.05912   0.06598   0.00000  Uiso   1.00
H40    H     0.26001   0.07423   0.14361   0.00000  Uiso   1.00
H41    H     0.28999   0.02439   0.14233   0.00000  Uiso   1.00
C42    C     0.08012   0.29148   0.20315   0.00000  Uiso   1.00
C43    C     0.08892   0.29020   0.25532   0.00000  Uiso   1.00
H44    H     0.05511   0.27424   0.26734   0.00000  Uiso   1.00
H45    H     0.12528   0.27262   0.26829   0.00000  Uiso   1.00
H46    H     0.09232   0.32251   0.26952   0.00000  Uiso   1.00
H47    H     0.04334   0.30894   0.19098   0.00000  Uiso   1.00
H48    H     0.07333   0.25910   0.18972   0.00000  Uiso   1.00
N49    N     0.23419   0.22025   0.29425   0.00000  Uiso   1.00
H50    H     0.27267   0.21350   0.30930   0.00000  Uiso   1.00
H51    H     0.22600   0.25100   0.30306   0.00000  Uiso   1.00
N52    N     0.09914   0.11309   0.03908   0.00000  Uiso   1.00
H53    H     0.06066   0.11984   0.02403   0.00000  Uiso   1.00
H54    H     0.10732   0.08234   0.03027   0.00000  Uiso   1.00
C55    C     0.50122   0.08679   0.16683   0.00000  Uiso   1.00
C56    C     0.49878   0.24654   0.16650   0.00000  Uiso   1.00
C57    C     0.40036   0.16658   0.15466   0.00000  Uiso   1.00
C58    C     0.59963   0.16675   0.17867   0.00000  Uiso   1.00
C59    C     0.34526   0.16653   0.14824   0.00000  Uiso   1.00
C60    C     0.65473   0.16681   0.18509   0.00000  Uiso   1.00
C61    C     0.54077   0.02074   0.14800   0.00000  Uiso   1.00
C62    C     0.45923   0.31259   0.18533   0.00000  Uiso   1.00
C63    C     0.53773   0.31089   0.14755   0.00000  Uiso   1.00
C64    C     0.46227   0.02244   0.18579   0.00000  Uiso   1.00
C65    C     0.49783   0.29066   0.16623   0.00000  Uiso   1.00
C66    C     0.50218   0.04267   0.16711   0.00000  Uiso   1.00
C67    C     0.53280   0.19270   0.02839   0.00000  Uiso   1.00
C68    C     0.46720   0.14063   0.30494   0.00000  Uiso   1.00
C69    C     0.53289   0.19279   0.31370   0.00000  Uiso   1.00
C70    C     0.46710   0.14055   0.01963   0.00000  Uiso   1.00
H71    H     0.65784   0.16623   0.11333   0.00000  Uiso   1.00
H72    H     0.34216   0.16710   0.22001   0.00000  Uiso   1.00
H73    H     0.56729   0.29287   0.13367   0.00000  Uiso   1.00
H74    H     0.43271   0.04046   0.19966   0.00000  Uiso   1.00
H75    H     0.55898   0.21348   0.05018   0.00000  Uiso   1.00
H76    H     0.44102   0.11985   0.28315   0.00000  Uiso   1.00
N77    N     0.49999   0.16666   0.28573   0.00000  Uiso   1.00
N78    N     0.50001   0.16668   0.04760   0.00000  Uiso   1.00
O79    O     0.50000   0.10558   0.20487   0.00000  Uiso   1.00
O80    O     0.50000   0.22775   0.12846   0.00000  Uiso   1.00
O81    O     0.50000   0.10559   0.12843   0.00000  Uiso   1.00
O82    O     0.50000   0.22774   0.20490   0.00000  Uiso   1.00
O83    O     0.42392   0.16666   0.19595   0.00000  Uiso   1.00
O84    O     0.57608   0.16667   0.13739   0.00000  Uiso   1.00
O85    O     0.42392   0.16667   0.11950   0.00000  Uiso   1.00
O86    O     0.57608   0.16666   0.21383   0.00000  Uiso   1.00
Zn87   Zn    0.50000   0.16666   0.21771   0.00000  Uiso   1.00
Zn88   Zn    0.50000   0.16667   0.11563   0.00000  Uiso   1.00
C89    C     0.58654   0.04186   0.13018   0.00000  Uiso   1.00
C90    C     0.57772   0.04314   0.07801   0.00000  Uiso   1.00
H91    H     0.57434   0.01083   0.06380   0.00000  Uiso   1.00
H92    H     0.54135   0.06071   0.06505   0.00000  Uiso   1.00
H93    H     0.61152   0.05912   0.06598   0.00000  Uiso   1.00
H94    H     0.59335   0.07423   0.14361   0.00000  Uiso   1.00
H95    H     0.62332   0.02439   0.14233   0.00000  Uiso   1.00
C96    C     0.41345   0.29148   0.20315   0.00000  Uiso   1.00
C97    C     0.42226   0.29020   0.25532   0.00000  Uiso   1.00
H98    H     0.38845   0.27424   0.26734   0.00000  Uiso   1.00
H99    H     0.45861   0.27262   0.26829   0.00000  Uiso   1.00
H100   H     0.42566   0.32251   0.26952   0.00000  Uiso   1.00
H101   H     0.37668   0.30894   0.19098   0.00000  Uiso   1.00
H102   H     0.40666   0.25910   0.18972   0.00000  Uiso   1.00
N103   N     0.56753   0.22025   0.29425   0.00000  Uiso   1.00
H104   H     0.60601   0.21350   0.30930   0.00000  Uiso   1.00
H105   H     0.55933   0.25100   0.30306   0.00000  Uiso   1.00
N106   N     0.43247   0.11309   0.03908   0.00000  Uiso   1.00
H107   H     0.39399   0.11984   0.02403   0.00000  Uiso   1.00
H108   H     0.44066   0.08234   0.03027   0.00000  Uiso   1.00
C109   C     0.83456   0.08679   0.16683   0.00000  Uiso   1.00
C110   C     0.83211   0.24654   0.16650   0.00000  Uiso   1.00
C111   C     0.73370   0.16658   0.15466   0.00000  Uiso   1.00
C112   C     0.93297   0.16675   0.17867   0.00000  Uiso   1.00
C113   C     0.67860   0.16653   0.14824   0.00000  Uiso   1.00
C114   C     0.98807   0.16681   0.18509   0.00000  Uiso   1.00
C115   C     0.87411   0.02074   0.14800   0.00000  Uiso   1.00
C116   C     0.79256   0.31259   0.18533   0.00000  Uiso   1.00
C117   C     0.87107   0.31089   0.14755   0.00000  Uiso   1.00
C118   C     0.79561   0.02244   0.18579   0.00000  Uiso   1.00
C119   C     0.83116   0.29066   0.16623   0.00000  Uiso   1.00
C120   C     0.83551   0.04267   0.16711   0.00000  Uiso   1.00
C121   C     0.86613   0.19270   0.02839   0.00000  Uiso   1.00
C122   C     0.80054   0.14063   0.30494   0.00000  Uiso   1.00
C123   C     0.86623   0.19279   0.31370   0.00000  Uiso   1.00
C124   C     0.80044   0.14055   0.01963   0.00000  Uiso   1.00
H125   H     0.99117   0.16623   0.11333   0.00000  Uiso   1.00
H126   H     0.67550   0.16710   0.22001   0.00000  Uiso   1.00
H127   H     0.90062   0.29287   0.13367   0.00000  Uiso   1.00
H128   H     0.76605   0.04046   0.19966   0.00000  Uiso   1.00
H129   H     0.89231   0.21348   0.05018   0.00000  Uiso   1.00
H130   H     0.77435   0.11985   0.28315   0.00000  Uiso   1.00
N131   N     0.83332   0.16666   0.28573   0.00000  Uiso   1.00
N132   N     0.83335   0.16668   0.04760   0.00000  Uiso   1.00
O133   O     0.83333   0.10558   0.20487   0.00000  Uiso   1.00
O134   O     0.83334   0.22775   0.12846   0.00000  Uiso   1.00
O135   O     0.83333   0.10559   0.12843   0.00000  Uiso   1.00
O136   O     0.83334   0.22774   0.20490   0.00000  Uiso   1.00
O137   O     0.75725   0.16666   0.19595   0.00000  Uiso   1.00
O138   O     0.90942   0.16667   0.13739   0.00000  Uiso   1.00
O139   O     0.75725   0.16667   0.11950   0.00000  Uiso   1.00
O140   O     0.90942   0.16666   0.21383   0.00000  Uiso   1.00
Zn141  Zn    0.83333   0.16666   0.21771   0.00000  Uiso   1.00
Zn142  Zn    0.83333   0.16667   0.11563   0.00000  Uiso   1.00
C143   C     0.91988   0.04186   0.13018   0.00000  Uiso   1.00
C144   C     0.91106   0.04314   0.07801   0.00000  Uiso   1.00
H145   H     0.90768   0.01083   0.06380   0.00000  Uiso   1.00
H146   H     0.87468   0.06071   0.06505   0.00000  Uiso   1.00
H147   H     0.94485   0.05912   0.06598   0.00000  Uiso   1.00
H148   H     0.92668   0.07423   0.14361   0.00000  Uiso   1.00
H149   H     0.95665   0.02439   0.14233   0.00000  Uiso   1.00
C150   C     0.74679   0.29148   0.20315   0.00000  Uiso   1.00
C151   C     0.75559   0.29020   0.25532   0.00000  Uiso   1.00
H152   H     0.72178   0.27424   0.26734   0.00000  Uiso   1.00
H153   H     0.79194   0.27262   0.26829   0.00000  Uiso   1.00
H154   H     0.75899   0.32251   0.26952   0.00000  Uiso   1.00
H155   H     0.71001   0.30894   0.19098   0.00000  Uiso   1.00
H156   H     0.73999   0.25910   0.18972   0.00000  Uiso   1.00
N157   N     0.90086   0.22025   0.29425   0.00000  Uiso   1.00
H158   H     0.93934   0.21350   0.30930   0.00000  Uiso   1.00
H159   H     0.89266   0.25100   0.30306   0.00000  Uiso   1.00
N160   N     0.76580   0.11309   0.03908   0.00000  Uiso   1.00
H161   H     0.72732   0.11984   0.02403   0.00000  Uiso   1.00
H162   H     0.77399   0.08234   0.03027   0.00000  Uiso   1.00
C163   C     0.16789   0.42013   0.16683   0.00000  Uiso   1.00
C164   C     0.16544   0.57987   0.16650   0.00000  Uiso   1.00
C165   C     0.06703   0.49992   0.15466   0.00000  Uiso   1.00
C166   C     0.26630   0.50008   0.17867   0.00000  Uiso   1.00
C167   C     0.01193   0.49986   0.14824   0.00000  Uiso   1.00
C168   C     0.32140   0.50014   0.18509   0.00000  Uiso   1.00
C169   C     0.20744   0.35407   0.14800   0.00000  Uiso   1.00
C170   C     0.12590   0.64593   0.18533   0.00000  Uiso   1.00
C171   C     0.20440   0.64423   0.14755   0.00000  Uiso   1.00
C172   C     0.12894   0.35577   0.18579   0.00000  Uiso   1.00
C173   C     0.16449   0.62400   0.16623   0.00000  Uiso   1.00
C174   C     0.16884   0.37600   0.16711   0.00000  Uiso   1.00
C175   C     0.19946   0.52604   0.02839   0.00000  Uiso   1.00
C176   C     0.13387   0.47396   0.30494   0.00000  Uiso   1.00
C177   C     0.19956   0.52612   0.31370   0.00000  Uiso   1.00
C178   C     0.13377   0.47388   0.01963   0.00000  Uiso   1.00
H179   H     0.32450   0.49957   0.11333   0.00000  Uiso   1.00
H180   H     0.00883   0.50043   0.22001   0.00000  Uiso   1.00
H181   H     0.23396   0.62620   0.13367   0.00000  Uiso   1.00
H182   H     0.09938   0.37380   0.19966   0.00000  Uiso   1.00
H183   H     0.22564   0.54682   0.05018   0.00000  Uiso   1.00
H184   H     0.10769   0.45318   0.28315   0.00000  Uiso   1.00
N185   N     0.16665   0.49999   0.28573   0.00000  Uiso   1.00
N186   N     0.16668   0.50001   0.04760   0.00000  Uiso   1.00
O187   O     0.16666   0.43892   0.20487   0.00000  Uiso   1.00
O188   O     0.16667   0.56108   0.12846   0.00000  Uiso   1.00
O189   O     0.16666   0.43893   0.12843   0.00000  Uiso   1.00
O190   O     0.16667   0.56107   0.20490   0.00000  Uiso   1.00
O191   O     0.09058   0.50000   0.19595   0.00000  Uiso   1.00
O192   O     0.24275   0.50000   0.13739   0.00000  Uiso   1.00
O193   O     0.09058   0.50000   0.11950   0.00000  Uiso   1.00
O194   O     0.24275   0.50000   0.21383   0.00000  Uiso   1.00
Zn195  Zn    0.16667   0.49999   0.21771   0.00000  Uiso   1.00
Zn196  Zn    0.16667   0.50001   0.11563   0.00000  Uiso   1.00
C197   C     0.25321   0.37519   0.13018   0.00000  Uiso   1.00
C198   C     0.24439   0.37647   0.07801   0.00000  Uiso   1.00
H199   H     0.24101   0.34416   0.06380   0.00000  Uiso   1.00
H200   H     0.20802   0.39404   0.06505   0.00000  Uiso   1.00
H201   H     0.27818   0.39245   0.06598   0.00000  Uiso   1.00
H202   H     0.26001   0.40756   0.14361   0.00000  Uiso   1.00
H203   H     0.28999   0.35772   0.14233   0.00000  Uiso   1.00
C204   C     0.08012   0.62481   0.20315   0.00000  Uiso   1.00
C205   C     0.08892   0.62354   0.25532   0.00000  Uiso   1.00
H206   H     0.05511   0.60758   0.26734   0.00000  Uiso   1.00
H207   H     0.12528   0.60595   0.26829   0.00000  Uiso   1.00
H208   H     0.09232   0.65585   0.26952   0.00000  Uiso   1.00
H209   H     0.04334   0.64227   0.19098   0.00000  Uiso   1.00
H210   H     0.07333   0.59244   0.18972   0.00000  Uiso   1.00
N211   N     0.23419   0.55358   0.29425   0.00000  Uiso   1.00
H212   H     0.27267   0.54684   0.30930   0.00000  Uiso   1.00
H213   H     0.22600   0.58433   0.30306   0.00000  Uiso   1.00
N214   N     0.09914   0.44642   0.03908   0.00000  Uiso   1.00
H215   H     0.06066   0.45317   0.02403   0.00000  Uiso   1.00
H216   H     0.10732   0.41567   0.03027   0.00000  Uiso   1.00
C217   C     0.50122   0.42013   0.16683   0.00000  Uiso   1.00
C218   C     0.49878   0.57987   0.16650   0.00000  Uiso   1.00
C219   C     0.40036   0.49992   0.15466   0.00000  Uiso   1.00
C220   C     0.59963   0.50008   0.17867   0.00000  Uiso   1.00
C221   C     0.34526   0.49986   0.14824   0.00000  Uiso   1.00
C222   C     0.65473   0.50014   0.18509   0.00000  Uiso   1.00
C223   C     0.54077   0.35407   0.14800   0.00000  Uiso   1.00
C224   C     0.45923   0.64593   0.18533   0.00000  Uiso   1.00
C225   C     0.53773   0.64423   0.14755   0.00000  Uiso   1.00
C226   C     0.46227   0.35577   0.18579   0.00000  Uiso   1.00
C227   C     0.49783   0.62400   0.16623   0.00000  Uiso   1.00
C228   C     0.50218   0.37600   0.16711   0.00000  Uiso   1.00
C229   C     0.53280   0.52604   0.02839   0.00000  Uiso   1.00
C230   C     0.46720   0.47396   0.30494   0.00000  Uiso   1.00
C231   C     0.53289   0.52612   0.31370   0.00000  Uiso   1.00
C232   C     0.46710   0.47388   0.01963   0.00000  Uiso   1.00
H233   H     0.65784   0.49957   0.11333   0.00000  Uiso   1.00
H234   H     0.34216   0.50043   0.22001   0.00000  Uiso   1.00
H235   H     0.56729   0.62620   0.13367   0.00000  Uiso   1.00
H236   H     0.43271   0.37380   0.19966   0.00000  Uiso   1.00
H237   H     0.55898   0.54682   0.05018   0.00000  Uiso   1.00
H238   H     0.44102   0.45318   0.28315   0.00000  Uiso   1.00
N239   N     0.49999   0.49999   0.28573   0.00000  Uiso   1.00
N240   N     0.50001   0.50001   0.04760   0.00000  Uiso   1.00
O241   O     0.50000   0.43892   0.20487   0.00000  Uiso   1.00
O242   O     0.50000   0.56108   0.12846   0.00000  Uiso   1.00
O243   O     0.50000   0.43893   0.12843   0.00000  Uiso   1.00
O244   O     0.50000   0.56107   0.20490   0.00000  Uiso   1.00
O245   O     0.42392   0.50000   0.19595   0.00000  Uiso   1.00
O246   O     0.57608   0.50000   0.13739   0.00000  Uiso   1.00
O247   O     0.42392   0.50000   0.11950   0.00000  Uiso   1.00
O248   O     0.57608   0.50000   0.21383   0.00000  Uiso   1.00
Zn249  Zn    0.50000   0.49999   0.21771   0.00000  Uiso   1.00
Zn250  Zn    0.50000   0.50001   0.11563   0.00000  Uiso   1.00
C251   C     0.58654   0.37519   0.13018   0.00000  Uiso   1.00
C252   C     0.57772   0.37647   0.07801   0.00000  Uiso   1.00
H253   H     0.57434   0.34416   0.06380   0.00000  Uiso   1.00
H254   H     0.54135   0.39404   0.06505   0.00000  Uiso   1.00
H255   H     0.61152   0.39245   0.06598   0.00000  Uiso   1.00
H256   H     0.59335   0.40756   0.14361   0.00000  Uiso   1.00
H257   H     0.62332   0.35772   0.14233   0.00000  Uiso   1.00
C258   C     0.41345   0.62481   0.20315   0.00000  Uiso   1.00
C259   C     0.42226   0.62354   0.25532   0.00000  Uiso   1.00
H260   H     0.38845   0.60758   0.26734   0.00000  Uiso   1.00
H261   H     0.45861   0.60595   0.26829   0.00000  Uiso   1.00
H262   H     0.42566   0.65585   0.26952   0.00000  Uiso   1.00
H263   H     0.37668   0.64227   0.19098   0.00000  Uiso   1.00
H264   H     0.40666   0.59244   0.18972   0.00000  Uiso   1.00
N265   N     0.56753   0.55358   0.29425   0.00000  Uiso   1.00
H266   H     0.60601   0.54684   0.30930   0.00000  Uiso   1.00
H267   H     0.55933   0.58433   0.30306   0.00000  Uiso   1.00
N268   N     0.43247   0.44642   0.03908   0.00000  Uiso   1.00
H269   H     0.39399   0.45317   0.02403   0.00000  Uiso   1.00
H270   H     0.44066   0.41567   0.03027   0.00000  Uiso   1.00
C271   C     0.83456   0.42013   0.16683   0.00000  Uiso   1.00
C272   C     0.83211   0.57987   0.16650   0.00000  Uiso   1.00
C273   C     0.73370   0.49992   0.15466   0.00000  Uiso   1.00
C274   C     0.93297   0.50008   0.17867   0.00000  Uiso   1.00
C275   C     0.67860   0.49986   0.14824   0.00000  Uiso   1.00
C276   C     0.98807   0.50014   0.18509   0.00000  Uiso   1.00
C277   C     0.87411   0.35407   0.14800   0.00000  Uiso   1.00
C278   C     0.79256   0.64593   0.18533   0.00000  Uiso   1.00
C279   C     0.87107   0.64423   0.14755   0.00000  Uiso   1.00
C280   C     0.79561   0.35577   0.18579   0.00000  Uiso   1.00
C281   C     0.83116   0.62400   0.16623   0.00000  Uiso   1.00
C282   C     0.83551   0.37600   0.16711   0.00000  Uiso   1.00
C283   C     0.86613   0.52604   0.02839   0.00000  Uiso   1.00
C284   C     0.80054   0.47396   0.30494   0.00000  Uiso   1.00
C285   C     0.86623   0.52612   0.31370   0.00000  Uiso   1.00
C286   C     0.80044   0.47388   0.01963   0.00000  Uiso   1.00
H287   H     0.99117   0.49957   0.11333   0.00000  Uiso   1.00
H288   H     0.67550   0.50043   0.22001   0.00000  Uiso   1.00
H289   H     0.90062   0.62620   0.13367   0.00000  Uiso   1.00
H290   H     0.76605   0.37380   0.19966   0.00000  Uiso   1.00
H291   H     0.89231   0.54682   0.05018   0.00000  Uiso   1.00
H292   H     0.77435   0.45318   0.28315   0.00000  Uiso   1.00
N293   N     0.83332   0.49999   0.28573   0.00000  Uiso   1.00
N294   N     0.83335   0.50001   0.04760   0.00000  Uiso   1.00
O295   O     0.83333   0.43892   0.20487   0.00000  Uiso   1.00
O296   O     0.83334   0.56108   0.12846   0.00000  Uiso   1.00
O297   O     0.83333   0.43893   0.12843   0.00000  Uiso   1.00
O298   O     0.83334   0.56107   0.20490   0.00000  Uiso   1.00
O299   O     0.75725   0.50000   0.19595   0.00000  Uiso   1.00
O300   O     0.90942   0.50000   0.13739   0.00000  Uiso   1.00
O301   O     0.75725   0.50000   0.11950   0.00000  Uiso   1.00
O302   O     0.90942   0.50000   0.21383   0.00000  Uiso   1.00
Zn303  Zn    0.83333   0.49999   0.21771   0.00000  Uiso   1.00
Zn304  Zn    0.83333   0.50001   0.11563   0.00000  Uiso   1.00
C305   C     0.91988   0.37519   0.13018   0.00000  Uiso   1.00
C306   C     0.91106   0.37647   0.07801   0.00000  Uiso   1.00
H307   H     0.90768   0.34416   0.06380   0.00000  Uiso   1.00
H308   H     0.87468   0.39404   0.06505   0.00000  Uiso   1.00
H309   H     0.94485   0.39245   0.06598   0.00000  Uiso   1.00
H310   H     0.92668   0.40756   0.14361   0.00000  Uiso   1.00
H311   H     0.95665   0.35772   0.14233   0.00000  Uiso   1.00
C312   C     0.74679   0.62481   0.20315   0.00000  Uiso   1.00
C313   C     0.75559   0.62354   0.25532   0.00000  Uiso   1.00
H314   H     0.72178   0.60758   0.26734   0.00000  Uiso   1.00
H315   H     0.79194   0.60595   0.26829   0.00000  Uiso   1.00
H316   H     0.75899   0.65585   0.26952   0.00000  Uiso   1.00
H317   H     0.71001   0.64227   0.19098   0.00000  Uiso   1.00
H318   H     0.73999   0.59244   0.18972   0.00000  Uiso   1.00
N319   N     0.90086   0.55358   0.29425   0.00000  Uiso   1.00
H320   H     0.93934   0.54684   0.30930   0.00000  Uiso   1.00
H321   H     0.89266   0.58433   0.30306   0.00000  Uiso   1.00
N322   N     0.76580   0.44642   0.03908   0.00000  Uiso   1.00
H323   H     0.72732   0.45317   0.02403   0.00000  Uiso   1.00
H324   H     0.77399   0.41567   0.03027   0.00000  Uiso   1.00
C325   C     0.16789   0.75346   0.16683   0.00000  Uiso   1.00
C326   C     0.16544   0.91321   0.16650   0.00000  Uiso   1.00
C327   C     0.06703   0.83325   0.15466   0.00000  Uiso   1.00
C328   C     0.26630   0.83342   0.17867   0.00000  Uiso   1.00
C329   C     0.01193   0.83319   0.14824   0.00000  Uiso   1.00
C330   C     0.32140   0.83347   0.18509   0.00000  Uiso   1.00
C331   C     0.20744   0.68741   0.14800   0.00000  Uiso   1.00
C332   C     0.12590   0.97926   0.18533   0.00000  Uiso   1.00
C333   C     0.20440   0.97756   0.14755   0.00000  Uiso   1.00
C334   C     0.12894   0.68911   0.18579   0.00000  Uiso   1.00
C335   C     0.16449   0.95733   0.16623   0.00000  Uiso   1.00
C336   C     0.16884   0.70934   0.16711   0.00000  Uiso   1.00
C337   C     0.19946   0.85937   0.02839   0.00000  Uiso   1.00
C338   C     0.13387   0.80730   0.30494   0.00000  Uiso   1.00
C339   C     0.19956   0.85945   0.31370   0.00000  Uiso   1.00
C340   C     0.13377   0.80722   0.01963   0.00000  Uiso   1.00
H341   H     0.32450   0.83290   0.11333   0.00000  Uiso   1.00
H342   H     0.00883   0.83377   0.22001   0.00000  Uiso   1.00
H343   H     0.23396   0.95954   0.13367   0.00000  Uiso   1.00
H344   H     0.09938   0.70713   0.19966   0.00000  Uiso   1.00
H345   H     0.22564   0.88015   0.05018   0.00000  Uiso   1.00
H346   H     0.10769   0.78652   0.28315   0.00000  Uiso   1.00
N347   N     0.16665   0.83332   0.28573   0.00000  Uiso   1.00
N348   N     0.16668   0.83334   0.04760   0.00000  Uiso   1.00
O349   O     0.16666   0.77225   0.20487   0.00000  Uiso   1.00
O350   O     0.16667   0.89442   0.12846   0.00000  Uiso   1.00
O351   O     0.16666   0.77226   0.12843   0.00000  Uiso   1.00
O352   O     0.16667   0.89441   0.20490   0.00000  Uiso   1.00
O353   O     0.09058   0.83333   0.19595   0.00000  Uiso   1.00
O354   O     0.24275   0.83334   0.13739   0.00000  Uiso   1.00
O355   O     0.09058   0.83334   0.11950   0.00000  Uiso   1.00
O356   O     0.24275   0.83333   0.21383   0.00000  Uiso   1.00
Zn357  Zn    0.16667   0.83333   0.21771   0.00000  Uiso   1.00
Zn358  Zn    0.16667   0.83334   0.11563   0.00000  Uiso   1.00
C359   C     0.25321   0.70852   0.13018   0.00000  Uiso   1.00
C360   C     0.24439   0.70981   0.07801   0.00000  Uiso   1.00
H361   H     0.24101   0.67750   0.06380   0.00000  Uiso   1.00
H362   H     0.20802   0.72738   0.06505   0.00000  Uiso   1.00
H363   H     0.27818   0.72579   0.06598   0.00000  Uiso   1.00
H364   H     0.26001   0.74089   0.14361   0.00000  Uiso   1.00
H365   H     0.28999   0.69106   0.14233   0.00000  Uiso   1.00
C366   C     0.08012   0.95814   0.20315   0.00000  Uiso   1.00
C367   C     0.08892   0.95687   0.25532   0.00000  Uiso   1.00
H368   H     0.05511   0.94091   0.26734   0.00000  Uiso   1.00
H369   H     0.12528   0.93928   0.26829   0.00000  Uiso   1.00
H370   H     0.09232   0.98918   0.26952   0.00000  Uiso   1.00
H371   H     0.04334   0.97561   0.19098   0.00000  Uiso   1.00
H372   H     0.07333   0.92577   0.18972   0.00000  Uiso   1.00
N373   N     0.23419   0.88691   0.29425   0.00000  Uiso   1.00
H374   H     0.27267   0.88017   0.30930   0.00000  Uiso   1.00
H375   H     0.22600   0.91766   0.30306   0.00000  Uiso   1.00
N376   N     0.09914   0.77975   0.03908   0.00000  Uiso   1.00
H377   H     0.06066   0.78651   0.02403   0.00000  Uiso   1.00
H378   H     0.10732   0.74901   0.03027   0.00000  Uiso   1.00
C379   C     0.50122   0.75346   0.16683   0.00000  Uiso   1.00
C380   C     0.49878   0.91321   0.16650   0.00000  Uiso   1.00
C381   C     0.40036   0.83325   0.15466   0.00000  Uiso   1.00
C382   C     0.59963   0.83342   0.17867   0.00000  Uiso   1.00
C383   C     0.34526   0.83319   0.14824   0.00000  Uiso   1.00
C384   C     0.65473   0.83347   0.18509   0.00000  Uiso   1.00
C385   C     0.54077   0.68741   0.14800   0.00000  Uiso   1.00
C386   C     0.45923   0.97926   0.18533   0.00000  Uiso   1.00
C387   C     0.53773   0.97756   0.14755   0.00000  Uiso   1.00
C388   C     0.46227   0.68911   0.18579   0.00000  Uiso   1.00
C389   C     0.49783   0.95733   0.16623   0.00000  Uiso   1.00
C390   C     0.50218   0.70934   0.16711   0.00000  Uiso   1.00
C391   C     0.53280   0.85937   0.02839   0.00000  Uiso   1.00
C392   C     0.46720   0.80730   0.30494   0.00000  Uiso   1.00
C393   C     0.53289   0.85945   0.31370   0.00000  Uiso   1.00
C394   C     0.46710   0.80722   0.01963   0.00000  Uiso   1.00
H395   H     0.65784   0.83290   0.11333   0.00000  Uiso   1.00
H396   H     0.34216   0.83377   0.22001   0.00000  Uiso   1.00
H397   H     0.56729   0.95954   0.13367   0.00000  Uiso   1.00
H398   H     0.43271   0.70713   0.19966   0.00000  Uiso   1.00
H399   H     0.55898   0.88015   0.05018   0.00000  Uiso   1.00
H400   H     0.44102   0.78652   0.28315   0.00000  Uiso   1.00
N401   N     0.49999   0.83332   0.28573   0.00000  Uiso   1.00
N402   N     0.50001   0.83334   0.04760   0.00000  Uiso   1.00
O403   O     0.50000   0.77225   0.20487   0.00000  Uiso   1.00
O404   O     0.50000   0.89442   0.12846   0.00000  Uiso   1.00
O405   O     0.50000   0.77226   0.12843   0.00000  Uiso   1.00
O406   O     0.50000   0.89441   0.20490   0.00000  Uiso   1.00
O407   O     0.42392   0.83333   0.19595   0.00000  Uiso   1.00
O408   O     0.57608   0.83334   0.13739   0.00000  Uiso   1.00
O409   O     0.42392   0.83334   0.11950   0.00000  Uiso   1.00
O410   O     0.57608   0.83333   0.21383   0.00000  Uiso   1.00
Zn411  Zn    0.50000   0.83333   0.21771   0.00000  Uiso   1.00
Zn412  Zn    0.50000   0.83334   0.11563   0.00000  Uiso   1.00
C413   C     0.58654   0.70852   0.13018   0.00000  Uiso   1.00
C414   C     0.57772   0.70981   0.07801   0.00000  Uiso   1.00
H415   H     0.57434   0.67750   0.06380   0.00000  Uiso   1.00
H416   H     0.54135   0.72738   0.06505   0.00000  Uiso   1.00
H417   H     0.61152   0.72579   0.06598   0.00000  Uiso   1.00
H418   H     0.59335   0.74089   0.14361   0.00000  Uiso   1.00
H419   H     0.62332   0.69106   0.14233   0.00000  Uiso   1.00
C420   C     0.41345   0.95814   0.20315   0.00000  Uiso   1.00
C421   C     0.42226   0.95687   0.25532   0.00000  Uiso   1.00
H422   H     0.38845   0.94091   0.26734   0.00000  Uiso   1.00
H423   H     0.45861   0.93928   0.26829   0.00000  Uiso   1.00
H424   H     0.42566   0.98918   0.26952   0.00000  Uiso   1.00
H425   H     0.37668   0.97561   0.19098   0.00000  Uiso   1.00
H426   H     0.40666   0.92577   0.18972   0.00000  Uiso   1.00
N427   N     0.56753   0.88691   0.29425   0.00000  Uiso   1.00
H428   H     0.60601   0.88017   0.30930   0.00000  Uiso   1.00
H429   H     0.55933   0.91766   0.30306   0.00000  Uiso   1.00
N430   N     0.43247   0.77975   0.03908   0.00000  Uiso   1.00
H431   H     0.39399   0.78651   0.02403   0.00000  Uiso   1.00
H432   H     0.44066   0.74901   0.03027   0.00000  Uiso   1.00
C433   C     0.83456   0.75346   0.16683   0.00000  Uiso   1.00
C434   C     0.83211   0.91321   0.16650   0.00000  Uiso   1.00
C435   C     0.73370   0.83325   0.15466   0.00000  Uiso   1.00
C436   C     0.93297   0.83342   0.17867   0.00000  Uiso   1.00
C437   C     0.67860   0.83319   0.14824   0.00000  Uiso   1.00
C438   C     0.98807   0.83347   0.18509   0.00000  Uiso   1.00
C439   C     0.87411   0.68741   0.14800   0.00000  Uiso   1.00
C440   C     0.79256   0.97926   0.18533   0.00000  Uiso   1.00
C441   C     0.87107   0.97756   0.14755   0.00000  Uiso   1.00
C442   C     0.79561   0.68911   0.18579   0.00000  Uiso   1.00
C443   C     0.83116   0.95733   0.16623   0.00000  Uiso   1.00
C444   C     0.83551   0.70934   0.16711   0.00000  Uiso   1.00
C445   C     0.86613   0.85937   0.02839   0.00000  Uiso   1.00
C446   C     0.80054   0.80730   0.30494   0.00000  Uiso   1.00
C447   C     0.86623   0.85945   0.31370   0.00000  Uiso   1.00
C448   C     0.80044   0.80722   0.01963   0.00000  Uiso   1.00
H449   H     0.99117   0.83290   0.11333   0.00000  Uiso   1.00
H450   H     0.67550   0.83377   0.22001   0.00000  Uiso   1.00
H451   H     0.90062   0.95954   0.13367   0.00000  Uiso   1.00
H452   H     0.76605   0.70713   0.19966   0.00000  Uiso   1.00
H453   H     0.89231   0.88015   0.05018   0.00000  Uiso   1.00
H454   H     0.77435   0.78652   0.28315   0.00000  Uiso   1.00
N455   N     0.83332   0.83332   0.28573   0.00000  Uiso   1.00
N456   N     0.83335   0.83334   0.04760   0.00000  Uiso   1.00
O457   O     0.83333   0.77225   0.20487   0.00000  Uiso   1.00
O458   O     0.83334   0.89442   0.12846   0.00000  Uiso   1.00
O459   O     0.83333   0.77226   0.12843   0.00000  Uiso   1.00
O460   O     0.83334   0.89441   0.20490   0.00000  Uiso   1.00
O461   O     0.75725   0.83333   0.19595   0.00000  Uiso   1.00
O462   O     0.90942   0.83334   0.13739   0.00000  Uiso   1.00
O463   O     0.75725   0.83334   0.11950   0.00000  Uiso   1.00
O464   O     0.90942   0.83333   0.21383   0.00000  Uiso   1.00
Zn465  Zn    0.83333   0.83333   0.21771   0.00000  Uiso   1.00
Zn466  Zn    0.83333   0.83334   0.11563   0.00000  Uiso   1.00
C467   C     0.91988   0.70852   0.13018   0.00000  Uiso   1.00
C468   C     0.91106   0.70981   0.07801   0.00000  Uiso   1.00
H469   H     0.90768   0.67750   0.06380   0.00000  Uiso   1.00
H470   H     0.87468   0.72738   0.06505   0.00000  Uiso   1.00
H471   H     0.94485   0.72579   0.06598   0.00000  Uiso   1.00
H472   H     0.92668   0.74089   0.14361   0.00000  Uiso   1.00
H473   H     0.95665   0.69106   0.14233   0.00000  Uiso   1.00
C474   C     0.74679   0.95814   0.20315   0.00000  Uiso   1.00
C475   C     0.75559   0.95687   0.25532   0.00000  Uiso   1.00
H476   H     0.72178   0.94091   0.26734   0.00000  Uiso   1.00
H477   H     0.79194   0.93928   0.26829   0.00000  Uiso   1.00
H478   H     0.75899   0.98918   0.26952   0.00000  Uiso   1.00
H479   H     0.71001   0.97561   0.19098   0.00000  Uiso   1.00
H480   H     0.73999   0.92577   0.18972   0.00000  Uiso   1.00
N481   N     0.90086   0.88691   0.29425   0.00000  Uiso   1.00
H482   H     0.93934   0.88017   0.30930   0.00000  Uiso   1.00
H483   H     0.89266   0.91766   0.30306   0.00000  Uiso   1.00
N484   N     0.76580   0.77975   0.03908   0.00000  Uiso   1.00
H485   H     0.72732   0.78651   0.02403   0.00000  Uiso   1.00
H486   H     0.77399   0.74901   0.03027   0.00000  Uiso   1.00
C487   C     0.16789   0.08679   0.50017   0.00000  Uiso   1.00
C488   C     0.16544   0.24654   0.49983   0.00000  Uiso   1.00
C489   C     0.06703   0.16658   0.48800   0.00000  Uiso   1.00
C490   C     0.26630   0.16675   0.51200   0.00000  Uiso   1.00
C491   C     0.01193   0.16653   0.48157   0.00000  Uiso   1.00
C492   C     0.32140   0.16681   0.51843   0.00000  Uiso   1.00
C493   C     0.20744   0.02074   0.48134   0.00000  Uiso   1.00
C494   C     0.12590   0.31259   0.51866   0.00000  Uiso   1.00
C495   C     0.20440   0.31089   0.48088   0.00000  Uiso   1.00
C496   C     0.12894   0.02244   0.51912   0.00000  Uiso   1.00
C497   C     0.16449   0.29066   0.49956   0.00000  Uiso   1.00
C498   C     0.16884   0.04267   0.50044   0.00000  Uiso   1.00
C499   C     0.19946   0.19270   0.36173   0.00000  Uiso   1.00
C500   C     0.13387   0.14063   0.63827   0.00000  Uiso   1.00
C501   C     0.19956   0.19279   0.64703   0.00000  Uiso   1.00
C502   C     0.13377   0.14055   0.35297   0.00000  Uiso   1.00
H503   H     0.32450   0.16623   0.44666   0.00000  Uiso   1.00
H504   H     0.00883   0.16710   0.55334   0.00000  Uiso   1.00
H505   H     0.23396   0.29287   0.46700   0.00000  Uiso   1.00
H506   H     0.09938   0.04046   0.53300   0.00000  Uiso   1.00
H507   H     0.22564   0.21348   0.38351   0.00000  Uiso   1.00
H508   H     0.10769   0.11985   0.61649   0.00000  Uiso   1.00
N509   N     0.16665   0.16666   0.61907   0.00000  Uiso   1.00
N510   N     0.16668   0.16668   0.38093   0.00000  Uiso   1.00
O511   O     0.16666   0.10558   0.53821   0.00000  Uiso   1.00
O512   O     0.16667   0.22775   0.46179   0.00000  Uiso   1.00
O513   O     0.16666   0.10559   0.46176   0.00000  Uiso   1.00
O514   O     0.16667   0.22774   0.53824   0.00000  Uiso   1.00
O515   O     0.09058   0.16666   0.52928   0.00000  Uiso   1.00
O516   O     0.24275   0.16667   0.47072   0.00000  Uiso   1.00
O517   O     0.09058   0.16667   0.45284   0.00000  Uiso   1.00
O518   O     0.24275   0.16666   0.54716   0.00000  Uiso   1.00
Zn519  Zn    0.16667   0.16666   0.55104   0.00000  Uiso   1.00
Zn520  Zn    0.16667   0.16667   0.44896   0.00000  Uiso   1.00
C521   C     0.25321   0.04186   0.46351   0.00000  Uiso   1.00
C522   C     0.24439   0.04314   0.41134   0.00000  Uiso   1.00
H523   H     0.24101   0.01083   0.39713   0.00000  Uiso   1.00
H524   H     0.20802   0.06071   0.39838   0.00000  Uiso   1.00
H525   H     0.27818   0.05912   0.39931   0.00000  Uiso   1.00
H526   H     0.26001   0.07423   0.47695   0.00000  Uiso   1.00
H527   H     0.28999   0.02439   0.47566   0.00000  Uiso   1.00
C528   C     0.08012   0.29148   0.53648   0.00000  Uiso   1.00
C529   C     0.08892   0.29020   0.58865   0.00000  Uiso   1.00
H530   H     0.05511   0.27424   0.60068   0.00000  Uiso   1.00
H531   H     0.12528   0.27262   0.60162   0.00000  Uiso   1.00
H532   H     0.09232   0.32251   0.60286   0.00000  Uiso   1.00
H533   H     0.04334   0.30894   0.52432   0.00000  Uiso   1.00
H534   H     0.07333   0.25910   0.52305   0.00000  Uiso   1.00
N535   N     0.23419   0.22025   0.62758   0.00000  Uiso   1.00
H536   H     0.27267   0.21350   0.64264   0.00000  Uiso   1.00
H537   H     0.22600   0.25100   0.63639   0.00000  Uiso   1.00
N538   N     0.09914   0.11309   0.37242   0.00000  Uiso   1.00
H539   H     0.06066   0.11984   0.35737   0.00000  Uiso   1.00
H540   H     0.10732   0.08234   0.36360   0.00000  Uiso   1.00
C541   C     0.50122   0.08679   0.50017   0.00000  Uiso   1.00
C542   C     0.49878   0.24654   0.49983   0.00000  Uiso   1.00
C543   C     0.40036   0.16658   0.48800   0.00000  Uiso   1.00
C544   C     0.59963   0.16675   0.51200   0.00000  Uiso   1.00
C545   C     0.34526   0.16653   0.48157   0.00000  Uiso   1.00
C546   C     0.65473   0.16681   0.51843   0.00000  Uiso   1.00
C547   C     0.54077   0.02074   0.48134   0.00000  Uiso   1.00
C548   C     0.45923   0.31259   0.51866   0.00000  Uiso   1.00
C549   C     0.53773   0.31089   0.48088   0.00000  Uiso   1.00
C550   C     0.46227   0.02244   0.51912   0.00000  Uiso   1.00
C551   C     0.49783   0.29066   0.49956   0.00000  Uiso   1.00
C552   C     0.50218   0.04267   0.50044   0.00000  Uiso   1.00
C553   C     0.53280   0.19270   0.36173   0.00000  Uiso   1.00
C554   C     0.46720   0.14063   0.63827   0.00000  Uiso   1.00
C555   C     0.53289   0.19279   0.64703   0.00000  Uiso   1.00
C556   C     0.46710   0.14055   0.35297   0.00000  Uiso   1.00
H557   H     0.65784   0.16623   0.44666   0.00000  Uiso   1.00
H558   H     0.34216   0.16710   0.55334   0.00000  Uiso   1.00
H559   H     0.56729   0.29287   0.46700   0.00000  Uiso   1.00
H560   H     0.43271   0.04046   0.53300   0.00000  Uiso   1.00
H561   H     0.55898   0.21348   0.38351   0.00000  Uiso   1.00
H562   H     0.44102   0.11985   0.61649   0.00000  Uiso   1.00
N563   N     0.49999   0.16666   0.61907   0.00000  Uiso   1.00
N564   N     0.50001   0.16668   0.38093   0.00000  Uiso   1.00
O565   O     0.50000   0.10558   0.53821   0.00000  Uiso   1.00
O566   O     0.50000   0.22775   0.46179   0.00000  Uiso   1.00
O567   O     0.50000   0.10559   0.46176   0.00000  Uiso   1.00
O568   O     0.50000   0.22774   0.53824   0.00000  Uiso   1.00
O569   O     0.42392   0.16666   0.52928   0.00000  Uiso   1.00
O570   O     0.57608   0.16667   0.47072   0.00000  Uiso   1.00
O571   O     0.42392   0.16667   0.45284   0.00000  Uiso   1.00
O572   O     0.57608   0.16666   0.54716   0.00000  Uiso   1.00
Zn573  Zn    0.50000   0.16666   0.55104   0.00000  Uiso   1.00
Zn574  Zn    0.50000   0.16667   0.44896   0.00000  Uiso   1.00
C575   C     0.58654   0.04186   0.46351   0.00000  Uiso   1.00
C576   C     0.57772   0.04314   0.41134   0.00000  Uiso   1.00
H577   H     0.57434   0.01083   0.39713   0.00000  Uiso   1.00
H578   H     0.54135   0.06071   0.39838   0.00000  Uiso   1.00
H579   H     0.61152   0.05912   0.39931   0.00000  Uiso   1.00
H580   H     0.59335   0.07423   0.47695   0.00000  Uiso   1.00
H581   H     0.62332   0.02439   0.47566   0.00000  Uiso   1.00
C582   C     0.41345   0.29148   0.53648   0.00000  Uiso   1.00
C583   C     0.42226   0.29020   0.58865   0.00000  Uiso   1.00
H584   H     0.38845   0.27424   0.60068   0.00000  Uiso   1.00
H585   H     0.45861   0.27262   0.60162   0.00000  Uiso   1.00
H586   H     0.42566   0.32251   0.60286   0.00000  Uiso   1.00
H587   H     0.37668   0.30894   0.52432   0.00000  Uiso   1.00
H588   H     0.40666   0.25910   0.52305   0.00000  Uiso   1.00
N589   N     0.56753   0.22025   0.62758   0.00000  Uiso   1.00
H590   H     0.60601   0.21350   0.64264   0.00000  Uiso   1.00
H591   H     0.55933   0.25100   0.63639   0.00000  Uiso   1.00
N592   N     0.43247   0.11309   0.37242   0.00000  Uiso   1.00
H593   H     0.39399   0.11984   0.35737   0.00000  Uiso   1.00
H594   H     0.44066   0.08234   0.36360   0.00000  Uiso   1.00
C595   C     0.83456   0.08679   0.50017   0.00000  Uiso   1.00
C596   C     0.83211   0.24654   0.49983   0.00000  Uiso   1.00
C597   C     0.73370   0.16658   0.48800   0.00000  Uiso   1.00
C598   C     0.93297   0.16675   0.51200   0.00000  Uiso   1.00
C599   C     0.67860   0.16653   0.48157   0.00000  Uiso   1.00
C600   C     0.98807   0.16681   0.51843   0.00000  Uiso   1.00
C601   C     0.87411   0.02074   0.48134   0.00000  Uiso   1.00
C602   C     0.79256   0.31259   0.51866   0.00000  Uiso   1.00
C603   C     0.87107   0.31089   0.48088   0.00000  Uiso   1.00
C604   C     0.79561   0.02244   0.51912   0.00000  Uiso   1.00
C605   C     0.83116   0.29066   0.49956   0.00000  Uiso   1.00
C606   C     0.83551   0.04267   0.50044   0.00000  Uiso   1.00
C607   C     0.86613   0.19270   0.36173   0.00000  Uiso   1.00
C608   C     0.80054   0.14063   0.63827   0.00000  Uiso   1.00
C609   C     0.86623   0.19279   0.64703   0.00000  Uiso   1.00
C610   C     0.80044   0.14055   0.35297   0.00000  Uiso   1.00
H611   H     0.99117   0.16623   0.44666   0.00000  Uiso   1.00
H612   H     0.67550   0.16710   0.55334   0.00000  Uiso   1.00
H613   H     0.90062   0.29287   0.46700   0.00000  Uiso   1.00
H614   H     0.76605   0.04046   0.53300   0.00000  Uiso   1.00
H615   H     0.89231   0.21348   0.38351   0.00000  Uiso   1.00
H616   H     0.77435   0.11985   0.61649   0.00000  Uiso   1.00
N617   N     0.83332   0.16666   0.61907   0.00000  Uiso   1.00
N618   N     0.83335   0.16668   0.38093   0.00000  Uiso   1.00
O619   O     0.83333   0.10558   0.53821   0.00000  Uiso   1.00
O620   O     0.83334   0.22775   0.46179   0.00000  Uiso   1.00
O621   O     0.83333   0.10559   0.46176   0.00000  Uiso   1.00
O622   O     0.83334   0.22774   0.53824   0.00000  Uiso   1.00
O623   O     0.75725   0.16666   0.52928   0.00000  Uiso   1.00
O624   O     0.90942   0.16667   0.47072   0.00000  Uiso   1.00
O625   O     0.75725   0.16667   0.45284   0.00000  Uiso   1.00
O626   O     0.90942   0.16666   0.54716   0.00000  Uiso   1.00
Zn627  Zn    0.83333   0.16666   0.55104   0.00000  Uiso   1.00
Zn628  Zn    0.83333   0.16667   0.44896   0.00000  Uiso   1.00
C629   C     0.91988   0.04186   0.46351   0.00000  Uiso   1.00
C630   C     0.91106   0.04314   0.41134   0.00000  Uiso   1.00
H631   H     0.90768   0.01083   0.39713   0.00000  Uiso   1.00
H632   H     0.87468   0.06071   0.39838   0.00000  Uiso   1.00
H633   H     0.94485   0.05912   0.39931   0.00000  Uiso   1.00
H634   H     0.92668   0.07423   0.47695   0.00000  Uiso   1.00
H635   H     0.95665   0.02439   0.47566   0.00000  Uiso   1.00
C636   C     0.74679   0.29148   0.53648   0.00000  Uiso   1.00
C637   C     0.75559   0.29020   0.58865   0.00000  Uiso   1.00
H638   H     0.72178   0.27424   0.60068   0.00000  Uiso   1.00
H639   H     0.79194   0.27262   0.60162   0.00000  Uiso   1.00
H640   H     0.75899   0.32251   0.60286   0.00000  Uiso   1.00
H641   H     0.71001   0.30894   0.52432   0.00000  Uiso   1.00
H642   H     0.73999   0.25910   0.52305   0.00000  Uiso   1.00
N643   N     0.90086   0.22025   0.62758   0.00000  Uiso   1.00
H644   H     0.93934   0.21350   0.64264   0.00000  Uiso   1.00
H645   H     0.89266   0.25100   0.63639   0.00000  Uiso   1.00
N646   N     0.76580   0.11309   0.37242   0.00000  Uiso   1.00
H647   H     0.72732   0.11984   0.35737   0.00000  Uiso   1.00
H648   H     0.77399   0.08234   0.36360   0.00000  Uiso   1.00
C649   C     0.16789   0.42013   0.50017   0.00000  Uiso   1.00
C650   C     0.16544   0.57987   0.49983   0.00000  Uiso   1.00
C651   C     0.06703   0.49992   0.48800   0.00000  Uiso   1.00
C652   C     0.26630   0.50008   0.51200   0.00000  Uiso   1.00
C653   C     0.01193   0.49986   0.48157   0.00000  Uiso   1.00
C654   C     0.32140   0.50014   0.51843   0.00000  Uiso   1.00
C655   C     0.20744   0.35407   0.48134   0.00000  Uiso   1.00
C656   C     0.12590   0.64593   0.51866   0.00000  Uiso   1.00
C657   C     0.20440   0.64423   0.48088   0.00000  Uiso   1.00
C658   C     0.12894   0.35577   0.51912   0.00000  Uiso   1.00
C659   C     0.16449   0.62400   0.49956   0.00000  Uiso   1.00
C660   C     0.16884   0.37600   0.50044   0.00000  Uiso   1.00
C661   C     0.19946   0.52604   0.36173   0.00000  Uiso   1.00
C662   C     0.13387   0.47396   0.63827   0.00000  Uiso   1.00
C663   C     0.19956   0.52612   0.64703   0.00000  Uiso   1.00
C664   C     0.13377   0.47388   0.35297   0.00000  Uiso   1.00
H665   H     0.32450   0.49957   0.44666   0.00000  Uiso   1.00
H666   H     0.00883   0.50043   0.55334   0.00000  Uiso   1.00
H667   H     0.23396   0.62620   0.46700   0.00000  Uiso   1.00
H668   H     0.09938   0.37380   0.53300   0.00000  Uiso   1.00
H669   H     0.22564   0.54682   0.38351   0.00000  Uiso   1.00
H670   H     0.10769   0.45318   0.61649   0.00000  Uiso   1.00
N671   N     0.16665   0.49999   0.61907   0.00000  Uiso   1.00
N672   N     0.16668   0.50001   0.38093   0.00000  Uiso   1.00
O673   O     0.16666   0.43892   0.53821   0.00000  Uiso   1.00
O674   O     0.16667   0.56108   0.46179   0.00000  Uiso   1.00
O675   O     0.16666   0.43893   0.46176   0.00000  Uiso   1.00
O676   O     0.16667   0.56107   0.53824   0.00000  Uiso   1.00
O677   O     0.09058   0.50000   0.52928   0.00000  Uiso   1.00
O678   O     0.24275   0.50000   0.47072   0.00000  Uiso   1.00
O679   O     0.09058   0.50000   0.45284   0.00000  Uiso   1.00
O680   O     0.24275   0.50000   0.54716   0.00000  Uiso   1.00
Zn681  Zn    0.16667   0.49999   0.55104   0.00000  Uiso   1.00
Zn682  Zn    0.16667   0.50001   0.44896   0.00000  Uiso   1.00
C683   C     0.25321   0.37519   0.46351   0.00000  Uiso   1.00
C684   C     0.24439   0.37647   0.41134   0.00000  Uiso   1.00
H685   H     0.24101   0.34416   0.39713   0.00000  Uiso   1.00
H686   H     0.20802   0.39404   0.39838   0.00000  Uiso   1.00
H687   H     0.27818   0.39245   0.39931   0.00000  Uiso   1.00
H688   H     0.26001   0.40756   0.47695   0.00000  Uiso   1.00
H689   H     0.28999   0.35772   0.47566   0.00000  Uiso   1.00
C690   C     0.08012   0.62481   0.53648   0.00000  Uiso   1.00
C691   C     0.08892   0.62354   0.58865   0.00000  Uiso   1.00
H692   H     0.05511   0.60758   0.60068   0.00000  Uiso   1.00
H693   H     0.12528   0.60595   0.60162   0.00000  Uiso   1.00
H694   H     0.09232   0.65585   0.60286   0.00000  Uiso   1.00
H695   H     0.04334   0.64227   0.52432   0.00000  Uiso   1.00
H696   H     0.07333   0.59244   0.52305   0.00000  Uiso   1.00
N697   N     0.23419   0.55358   0.62758   0.00000  Uiso   1.00
H698   H     0.27267   0.54684   0.64264   0.00000  Uiso   1.00
H699   H     0.22600   0.58433   0.63639   0.00000  Uiso   1.00
N700   N     0.09914   0.44642   0.37242   0.00000  Uiso   1.00
H701   H     0.06066   0.45317   0.35737   0.00000  Uiso   1.00
H702   H     0.10732   0.41567   0.36360   0.00000  Uiso   1.00
C703   C     0.50122   0.42013   0.50017   0.00000  Uiso   1.00
C704   C     0.49878   0.57987   0.49983   0.00000  Uiso   1.00
C705   C     0.40036   0.49992   0.48800   0.00000  Uiso   1.00
C706   C     0.59963   0.50008   0.51200   0.00000  Uiso   1.00
C707   C     0.34526   0.49986   0.48157   0.00000  Uiso   1.00
C708   C     0.65473   0.50014   0.51843   0.00000  Uiso   1.00
C709   C     0.54077   0.35407   0.48134   0.00000  Uiso   1.00
C710   C     0.45923   0.64593   0.51866   0.00000  Uiso   1.00
C711   C     0.53773   0.64423   0.48088   0.00000  Uiso   1.00
C712   C     0.46227   0.35577   0.51912   0.00000  Uiso   1.00
C713   C     0.49783   0.62400   0.49956   0.00000  Uiso   1.00
C714   C     0.50218   0.37600   0.50044   0.00000  Uiso   1.00
C715   C     0.53280   0.52604   0.36173   0.00000  Uiso   1.00
C716   C     0.46720   0.47396   0.63827   0.00000  Uiso   1.00
C717   C     0.53289   0.52612   0.64703   0.00000  Uiso   1.00
C718   C     0.46710   0.47388   0.35297   0.00000  Uiso   1.00
H719   H     0.65784   0.49957   0.44666   0.00000  Uiso   1.00
H720   H     0.34216   0.50043   0.55334   0.00000  Uiso   1.00
H721   H     0.56729   0.62620   0.46700   0.00000  Uiso   1.00
H722   H     0.43271   0.37380   0.53300   0.00000  Uiso   1.00
H723   H     0.55898   0.54682   0.38351   0.00000  Uiso   1.00
H724   H     0.44102   0.45318   0.61649   0.00000  Uiso   1.00
N725   N     0.49999   0.49999   0.61907   0.00000  Uiso   1.00
N726   N     0.50001   0.50001   0.38093   0.00000  Uiso   1.00
O727   O     0.50000   0.43892   0.53821   0.00000  Uiso   1.00
O728   O     0.50000   0.56108   0.46179   0.00000  Uiso   1.00
O729   O     0.50000   0.43893   0.46176   0.00000  Uiso   1.00
O730   O     0.50000   0.56107   0.53824   0.00000  Uiso   1.00
O731   O     0.42392   0.50000   0.52928   0.00000  Uiso   1.00
O732   O     0.57608   0.50000   0.47072   0.00000  Uiso   1.00
O733   O     0.42392   0.50000   0.45284   0.00000  Uiso   1.00
O734   O     0.57608   0.50000   0.54716   0.00000  Uiso   1.00
Zn735  Zn    0.50000   0.49999   0.55104   0.00000  Uiso   1.00
Zn736  Zn    0.50000   0.50001   0.44896   0.00000  Uiso   1.00
C737   C     0.58654   0.37519   0.46351   0.00000  Uiso   1.00
C738   C     0.57772   0.37647   0.41134   0.00000  Uiso   1.00
H739   H     0.57434   0.34416   0.39713   0.00000  Uiso   1.00
H740   H     0.54135   0.39404   0.39838   0.00000  Uiso   1.00
H741   H     0.61152   0.39245   0.39931   0.00000  Uiso   1.00
H742   H     0.59335   0.40756   0.47695   0.00000  Uiso   1.00
H743   H     0.62332   0.35772   0.47566   0.00000  Uiso   1.00
C744   C     0.41345   0.62481   0.53648   0.00000  Uiso   1.00
C745   C     0.42226   0.62354   0.58865   0.00000  Uiso   1.00
H746   H     0.38845   0.60758   0.60068   0.00000  Uiso   1.00
H747   H     0.45861   0.60595   0.60162   0.00000  Uiso   1.00
H748   H     0.42566   0.65585   0.60286   0.00000  Uiso   1.00
H749   H     0.37668   0.64227   0.52432   0.00000  Uiso   1.00
H750   H     0.40666   0.59244   0.52305   0.00000  Uiso   1.00
N751   N     0.56753   0.55358   0.62758   0.00000  Uiso   1.00
H752   H     0.60601   0.54684   0.64264   0.00000  Uiso   1.00
H753   H     0.55933   0.58433   0.63639   0.00000  Uiso   1.00
N754   N     0.43247   0.44642   0.37242   0.00000  Uiso   1.00
H755   H     0.39399   0.45317   0.35737   0.00000  Uiso   1.00
H756   H     0.44066   0.41567   0.36360   0.00000  Uiso   1.00
C757   C     0.83456   0.42013   0.50017   0.00000  Uiso   1.00
C758   C     0.83211   0.57987   0.49983   0.00000  Uiso   1.00
C759   C     0.73370   0.49992   0.48800   0.00000  Uiso   1.00
C760   C     0.93297   0.50008   0.51200   0.00000  Uiso   1.00
C761   C     0.67860   0.49986   0.48157   0.00000  Uiso   1.00
C762   C     0.98807   0.50014   0.51843   0.00000  Uiso   1.00
C763   C     0.87411   0.35407   0.48134   0.00000  Uiso   1.00
C764   C     0.79256   0.64593   0.51866   0.00000  Uiso   1.00
C765   C     0.87107   0.64423   0.48088   0.00000  Uiso   1.00
C766   C     0.79561   0.35577   0.51912   0.00000  Uiso   1.00
C767   C     0.83116   0.62400   0.49956   0.00000  Uiso   1.00
C768   C     0.83551   0.37600   0.50044   0.00000  Uiso   1.00
C769   C     0.86613   0.52604   0.36173   0.00000  Uiso   1.00
C770   C     0.80054   0.47396   0.63827   0.00000  Uiso   1.00
C771   C     0.86623   0.52612   0.64703   0.00000  Uiso   1.00
C772   C     0.80044   0.47388   0.35297   0.00000  Uiso   1.00
H773   H     0.99117   0.49957   0.44666   0.00000  Uiso   1.00
H774   H     0.67550   0.50043   0.55334   0.00000  Uiso   1.00
H775   H     0.90062   0.62620   0.46700   0.00000  Uiso   1.00
H776   H     0.76605   0.37380   0.53300   0.00000  Uiso   1.00
H777   H     0.89231   0.54682   0.38351   0.00000  Uiso   1.00
H778   H     0.77435   0.45318   0.61649   0.00000  Uiso   1.00
N779   N     0.83332   0.49999   0.61907   0.00000  Uiso   1.00
N780   N     0.83335   0.50001   0.38093   0.00000  Uiso   1.00
O781   O     0.83333   0.43892   0.53821   0.00000  Uiso   1.00
O782   O     0.83334   0.56108   0.46179   0.00000  Uiso   1.00
O783   O     0.83333   0.43893   0.46176   0.00000  Uiso   1.00
O784   O     0.83334   0.56107   0.53824   0.00000  Uiso   1.00
O785   O     0.75725   0.50000   0.52928   0.00000  Uiso   1.00
O786   O     0.90942   0.50000   0.47072   0.00000  Uiso   1.00
O787   O     0.75725   0.50000   0.45284   0.00000  Uiso   1.00
O788   O     0.90942   0.50000   0.54716   0.00000  Uiso   1.00
Zn789  Zn    0.83333   0.49999   0.55104   0.00000  Uiso   1.00
Zn790  Zn    0.83333   0.50001   0.44896   0.00000  Uiso   1.00
C791   C     0.91988   0.37519   0.46351   0.00000  Uiso   1.00
C792   C     0.91106   0.37647   0.41134   0.00000  Uiso   1.00
H793   H     0.90768   0.34416   0.39713   0.00000  Uiso   1.00
H794   H     0.87468   0.39404   0.39838   0.00000  Uiso   1.00
H795   H     0.94485   0.39245   0.39931   0.00000  Uiso   1.00
H796   H     0.92668   0.40756   0.47695   0.00000  Uiso   1.00
H797   H     0.95665   0.35772   0.47566   0.00000  Uiso   1.00
C798   C     0.74679   0.62481   0.53648   0.00000  Uiso   1.00
C799   C     0.75559   0.62354   0.58865   0.00000  Uiso   1.00
H800   H     0.72178   0.60758   0.60068   0.00000  Uiso   1.00
H801   H     0.79194   0.60595   0.60162   0.00000  Uiso   1.00
H802   H     0.75899   0.65585   0.60286   0.00000  Uiso   1.00
H803   H     0.71001   0.64227   0.52432   0.00000  Uiso   1.00
H804   H     0.73999   0.59244   0.52305   0.00000  Uiso   1.00
N805   N     0.90086   0.55358   0.62758   0.00000  Uiso   1.00
H806   H     0.93934   0.54684   0.64264   0.00000  Uiso   1.00
H807   H     0.89266   0.58433   0.63639   0.00000  Uiso   1.00
N808   N     0.76580   0.44642   0.37242   0.00000  Uiso   1.00
H809   H     0.72732   0.45317   0.35737   0.00000  Uiso   1.00
H810   H     0.77399   0.41567   0.36360   0.00000  Uiso   1.00
C811   C     0.16789   0.75346   0.50017   0.00000  Uiso   1.00
C812   C     0.16544   0.91321   0.49983   0.00000  Uiso   1.00
C813   C     0.06703   0.83325   0.48800   0.00000  Uiso   1.00
C814   C     0.26630   0.83342   0.51200   0.00000  Uiso   1.00
C815   C     0.01193   0.83319   0.48157   0.00000  Uiso   1.00
C816   C     0.32140   0.83347   0.51843   0.00000  Uiso   1.00
C817   C     0.20744   0.68741   0.48134   0.00000  Uiso   1.00
C818   C     0.12590   0.97926   0.51866   0.00000  Uiso   1.00
C819   C     0.20440   0.97756   0.48088   0.00000  Uiso   1.00
C820   C     0.12894   0.68911   0.51912   0.00000  Uiso   1.00
C821   C     0.16449   0.95733   0.49956   0.00000  Uiso   1.00
C822   C     0.16884   0.70934   0.50044   0.00000  Uiso   1.00
C823   C     0.19946   0.85937   0.36173   0.00000  Uiso   1.00
C824   C     0.13387   0.80730   0.63827   0.00000  Uiso   1.00
C825   C     0.19956   0.85945   0.64703   0.00000  Uiso   1.00
C826   C     0.13377   0.80722   0.35297   0.00000  Uiso   1.00
H827   H     0.32450   0.83290   0.44666   0.00000  Uiso   1.00
H828   H     0.00883   0.83377   0.55334   0.00000  Uiso   1.00
H829   H     0.23396   0.95954   0.46700   0.00000  Uiso   1.00
H830   H     0.09938   0.70713   0.53300   0.00000  Uiso   1.00
H831   H     0.22564   0.88015   0.38351   0.00000  Uiso   1.00
H832   H     0.10769   0.78652   0.61649   0.00000  Uiso   1.00
N833   N     0.16665   0.83332   0.61907   0.00000  Uiso   1.00
N834   N     0.16668   0.83334   0.38093   0.00000  Uiso   1.00
O835   O     0.16666   0.77225   0.53821   0.00000  Uiso   1.00
O836   O     0.16667   0.89442   0.46179   0.00000  Uiso   1.00
O837   O     0.16666   0.77226   0.46176   0.00000  Uiso   1.00
O838   O     0.16667   0.89441   0.53824   0.00000  Uiso   1.00
O839   O     0.09058   0.83333   0.52928   0.00000  Uiso   1.00
O840   O     0.24275   0.83334   0.47072   0.00000  Uiso   1.00
O841   O     0.09058   0.83334   0.45284   0.00000  Uiso   1.00
O842   O     0.24275   0.83333   0.54716   0.00000  Uiso   1.00
Zn843  Zn    0.16667   0.83333   0.55104   0.00000  Uiso   1.00
Zn844  Zn    0.16667   0.83334   0.44896   0.00000  Uiso   1.00
C845   C     0.25321   0.70852   0.46351   0.00000  Uiso   1.00
C846   C     0.24439   0.70981   0.41134   0.00000  Uiso   1.00
H847   H     0.24101   0.67750   0.39713   0.00000  Uiso   1.00
H848   H     0.20802   0.72738   0.39838   0.00000  Uiso   1.00
H849   H     0.27818   0.72579   0.39931   0.00000  Uiso   1.00
H850   H     0.26001   0.74089   0.47695   0.00000  Uiso   1.00
H851   H     0.28999   0.69106   0.47566   0.00000  Uiso   1.00
C852   C     0.08012   0.95814   0.53648   0.00000  Uiso   1.00
C853   C     0.08892   0.95687   0.58865   0.00000  Uiso   1.00
H854   H     0.05511   0.94091   0.60068   0.00000  Uiso   1.00
H855   H     0.12528   0.93928   0.60162   0.00000  Uiso   1.00
H856   H     0.09232   0.98918   0.60286   0.00000  Uiso   1.00
H857   H     0.04334   0.97561   0.52432   0.00000  Uiso   1.00
H858   H     0.07333   0.92577   0.52305   0.00000  Uiso   1.00
N859   N     0.23419   0.88691   0.62758   0.00000  Uiso   1.00
H860   H     0.27267   0.88017   0.64264   0.00000  Uiso   1.00
H861   H     0.22600   0.91766   0.63639   0.00000  Uiso   1.00
N862   N     0.09914   0.77975   0.37242   0.00000  Uiso   1.00
H863   H     0.06066   0.78651   0.35737   0.00000  Uiso   1.00
H864   H     0.10732   0.74901   0.36360   0.00000  Uiso   1.00
C865   C     0.50122   0.75346   0.50017   0.00000  Uiso   1.00
C866   C     0.49878   0.91321   0.49983   0.00000  Uiso   1.00
C867   C     0.40036   0.83325   0.48800   0.00000  Uiso   1.00
C868   C     0.59963   0.83342   0.51200   0.00000  Uiso   1.00
C869   C     0.34526   0.83319   0.48157   0.00000  Uiso   1.00
C870   C     0.65473   0.83347   0.51843   0.00000  Uiso   1.00
C871   C     0.54077   0.68741   0.48134   0.00000  Uiso   1.00
C872   C     0.45923   0.97926   0.51866   0.00000  Uiso   1.00
C873   C     0.53773   0.97756   0.48088   0.00000  Uiso   1.00
C874   C     0.46227   0.68911   0.51912   0.00000  Uiso   1.00
C875   C     0.49783   0.95733   0.49956   0.00000  Uiso   1.00
C876   C     0.50218   0.70934   0.50044   0.00000  Uiso   1.00
C877   C     0.53280   0.85937   0.36173   0.00000  Uiso   1.00
C878   C     0.46720   0.80730   0.63827   0.00000  Uiso   1.00
C879   C     0.53289   0.85945   0.64703   0.00000  Uiso   1.00
C880   C     0.46710   0.80722   0.35297   0.00000  Uiso   1.00
H881   H     0.65784   0.83290   0.44666   0.00000  Uiso   1.00
H882   H     0.34216   0.83377   0.55334   0.00000  Uiso   1.00
H883   H     0.56729   0.95954   0.46700   0.00000  Uiso   1.00
H884   H     0.43271   0.70713   0.53300   0.00000  Uiso   1.00
H885   H     0.55898   0.88015   0.38351   0.00000  Uiso   1.00
H886   H     0.44102   0.78652   0.61649   0.00000  Uiso   1.00
N887   N     0.49999   0.83332   0.61907   0.00000  Uiso   1.00
N888   N     0.50001   0.83334   0.38093   0.00000  Uiso   1.00
O889   O     0.50000   0.77225   0.53821   0.00000  Uiso   1.00
O890   O     0.50000   0.89442   0.46179   0.00000  Uiso   1.00
O891   O     0.50000   0.77226   0.46176   0.00000  Uiso   1.00
O892   O     0.50000   0.89441   0.53824   0.00000  Uiso   1.00
O893   O     0.42392   0.83333   0.52928   0.00000  Uiso   1.00
O894   O     0.57608   0.83334   0.47072   0.00000  Uiso   1.00
O895   O     0.42392   0.83334   0.45284   0.00000  Uiso   1.00
O896   O     0.57608   0.83333   0.54716   0.00000  Uiso   1.00
Zn897  Zn    0.50000   0.83333   0.55104   0.00000  Uiso   1.00
Zn898  Zn    0.50000   0.83334   0.44896   0.00000  Uiso   1.00
C899   C     0.58654   0.70852   0.46351   0.00000  Uiso   1.00
C900   C     0.57772   0.70981   0.41134   0.00000  Uiso   1.00
H901   H     0.57434   0.67750   0.39713   0.00000  Uiso   1.00
H902   H     0.54135   0.72738   0.39838   0.00000  Uiso   1.00
H903   H     0.61152   0.72579   0.39931   0.00000  Uiso   1.00
H904   H     0.59335   0.74089   0.47695   0.00000  Uiso   1.00
H905   H     0.62332   0.69106   0.47566   0.00000  Uiso   1.00
C906   C     0.41345   0.95814   0.53648   0.00000  Uiso   1.00
C907   C     0.42226   0.95687   0.58865   0.00000  Uiso   1.00
H908   H     0.38845   0.94091   0.60068   0.00000  Uiso   1.00
H909   H     0.45861   0.93928   0.60162   0.00000  Uiso   1.00
H910   H     0.42566   0.98918   0.60286   0.00000  Uiso   1.00
H911   H     0.37668   0.97561   0.52432   0.00000  Uiso   1.00
H912   H     0.40666   0.92577   0.52305   0.00000  Uiso   1.00
N913   N     0.56753   0.88691   0.62758   0.00000  Uiso   1.00
H914   H     0.60601   0.88017   0.64264   0.00000  Uiso   1.00
H915   H     0.55933   0.91766   0.63639   0.00000  Uiso   1.00
N916   N     0.43247   0.77975   0.37242   0.00000  Uiso   1.00
H917   H     0.39399   0.78651   0.35737   0.00000  Uiso   1.00
H918   H     0.44066   0.74901   0.36360   0.00000  Uiso   1.00
C919   C     0.83456   0.75346   0.50017   0.00000  Uiso   1.00
C920   C     0.83211   0.91321   0.49983   0.00000  Uiso   1.00
C921   C     0.73370   0.83325   0.48800   0.00000  Uiso   1.00
C922   C     0.93297   0.83342   0.51200   0.00000  Uiso   1.00
C923   C     0.67860   0.83319   0.48157   0.00000  Uiso   1.00
C924   C     0.98807   0.83347   0.51843   0.00000  Uiso   1.00
C925   C     0.87411   0.68741   0.48134   0.00000  Uiso   1.00
C926   C     0.79256   0.97926   0.51866   0.00000  Uiso   1.00
C927   C     0.87107   0.97756   0.48088   0.00000  Uiso   1.00
C928   C     0.79561   0.68911   0.51912   0.00000  Uiso   1.00
C929   C     0.83116   0.95733   0.49956   0.00000  Uiso   1.00
C930   C     0.83551   0.70934   0.50044   0.00000  Uiso   1.00
C931   C     0.86613   0.85937   0.36173   0.00000  Uiso   1.00
C932   C     0.80054   0.80730   0.63827   0.00000  Uiso   1.00
C933   C     0.86623   0.85945   0.64703   0.00000  Uiso   1.00
C934   C     0.80044   0.80722   0.35297   0.00000  Uiso   1.00
H935   H     0.99117   0.83290   0.44666   0.00000  Uiso   1.00
H936   H     0.67550   0.83377   0.55334   0.00000  Uiso   1.00
H937   H     0.90062   0.95954   0.46700   0.00000  Uiso   1.00
H938   H     0.76605   0.70713   0.53300   0.00000  Uiso   1.00
H939   H     0.89231   0.88015   0.38351   0.00000  Uiso   1.00
H940   H     0.77435   0.78652   0.61649   0.00000  Uiso   1.00
N941   N     0.83332   0.83332   0.61907   0.00000  Uiso   1.00
N942   N     0.83335   0.83334   0.38093   0.00000  Uiso   1.00
O943   O     0.83333   0.77225   0.53821   0.00000  Uiso   1.00
O944   O     0.83334   0.89442   0.46179   0.00000  Uiso   1.00
O945   O     0.83333   0.77226   0.46176   0.00000  Uiso   1.00
O946   O     0.83334   0.89441   0.53824   0.00000  Uiso   1.00
O947   O     0.75725   0.83333   0.52928   0.00000  Uiso   1.00
O948   O     0.90942   0.83334   0.47072   0.00000  Uiso   1.00
O949   O     0.75725   0.83334   0.45284   0.00000  Uiso   1.00
O950   O     0.90942   0.83333   0.54716   0.00000  Uiso   1.00
Zn951  Zn    0.83333   0.83333   0.55104   0.00000  Uiso   1.00
Zn952  Zn    0.83333   0.83334   0.44896   0.00000  Uiso   1.00
C953   C     0.91988   0.70852   0.46351   0.00000  Uiso   1.00
C954   C     0.91106   0.70981   0.41134   0.00000  Uiso   1.00
H955   H     0.90768   0.67750   0.39713   0.00000  Uiso   1.00
H956   H     0.87468   0.72738   0.39838   0.00000  Uiso   1.00
H957   H     0.94485   0.72579   0.39931   0.00000  Uiso   1.00
H958   H     0.92668   0.74089   0.47695   0.00000  Uiso   1.00
H959   H     0.95665   0.69106   0.47566   0.00000  Uiso   1.00
C960   C     0.74679   0.95814   0.53648   0.00000  Uiso   1.00
C961   C     0.75559   0.95687   0.58865   0.00000  Uiso   1.00
H962   H     0.72178   0.94091   0.60068   0.00000  Uiso   1.00
H963   H     0.79194   0.93928   0.60162   0.00000  Uiso   1.00
H964   H     0.75899   0.98918   0.60286   0.00000  Uiso   1.00
H965   H     0.71001   0.97561   0.52432   0.00000  Uiso   1.00
H966   H     0.73999   0.92577   0.52305   0.00000  Uiso   1.00
N967   N     0.90086   0.88691   0.62758   0.00000  Uiso   1.00
H968   H     0.93934   0.88017   0.64264   0.00000  Uiso   1.00
H969   H     0.89266   0.91766   0.63639   0.00000  Uiso   1.00
N970   N     0.76580   0.77975   0.37242   0.00000  Uiso   1.00
H971   H     0.72732   0.78651   0.35737   0.00000  Uiso   1.00
H972   H     0.77399   0.74901   0.36360   0.00000  Uiso   1.00
C973   C     0.16789   0.08679   0.83350   0.00000  Uiso   1.00
C974   C     0.16544   0.24654   0.83317   0.00000  Uiso   1.00
C975   C     0.06703   0.16658   0.82133   0.00000  Uiso   1.00
C976   C     0.26630   0.16675   0.84534   0.00000  Uiso   1.00
C977   C     0.01193   0.16653   0.81491   0.00000  Uiso   1.00
C978   C     0.32140   0.16681   0.85176   0.00000  Uiso   1.00
C979   C     0.20744   0.02074   0.81467   0.00000  Uiso   1.00
C980   C     0.12590   0.31259   0.85200   0.00000  Uiso   1.00
C981   C     0.20440   0.31089   0.81421   0.00000  Uiso   1.00
C982   C     0.12894   0.02244   0.85246   0.00000  Uiso   1.00
C983   C     0.16449   0.29066   0.83290   0.00000  Uiso   1.00
C984   C     0.16884   0.04267   0.83377   0.00000  Uiso   1.00
C985   C     0.19946   0.19270   0.69506   0.00000  Uiso   1.00
C986   C     0.13387   0.14063   0.97161   0.00000  Uiso   1.00
C987   C     0.19956   0.19279   0.98037   0.00000  Uiso   1.00
C988   C     0.13377   0.14055   0.68630   0.00000  Uiso   1.00
H989   H     0.32450   0.16623   0.77999   0.00000  Uiso   1.00
H990   H     0.00883   0.16710   0.88667   0.00000  Uiso   1.00
H991   H     0.23396   0.29287   0.80034   0.00000  Uiso   1.00
H992   H     0.09938   0.04046   0.86633   0.00000  Uiso   1.00
H993   H     0.22564   0.21348   0.71685   0.00000  Uiso   1.00
H994   H     0.10769   0.11985   0.94982   0.00000  Uiso   1.00
N995   N     0.16665   0.16666   0.95240   0.00000  Uiso   1.00
N996   N     0.16668   0.16668   0.71427   0.00000  Uiso   1.00
O997   O     0.16666   0.10558   0.87154   0.00000  Uiso   1.00
O998   O     0.16667   0.22775   0.79513   0.00000  Uiso   1.00
O999   O     0.16666   0.10559   0.79510   0.00000  Uiso   1.00
O1000  O     0.16667   0.22774   0.87157   0.00000  Uiso   1.00
O1001  O     0.09058   0.16666   0.86261   0.00000  Uiso   1.00
O1002  O     0.24275   0.16667   0.80405   0.00000  Uiso   1.00
O1003  O     0.09058   0.16667   0.78617   0.00000  Uiso   1.00
O1004  O     0.24275   0.16666   0.88050   0.00000  Uiso   1.00
Zn1005 Zn    0.16667   0.16666   0.88437   0.00000  Uiso   1.00
Zn1006 Zn    0.16667   0.16667   0.78229   0.00000  Uiso   1.00
C1007  C     0.25321   0.04186   0.79684   0.00000  Uiso   1.00
C1008  C     0.24439   0.04314   0.74467   0.00000  Uiso   1.00
H1009  H     0.24101   0.01083   0.73046   0.00000  Uiso   1.00
H1010  H     0.20802   0.06071   0.73172   0.00000  Uiso   1.00
H1011  H     0.27818   0.05912   0.73264   0.00000  Uiso   1.00
H1012  H     0.26001   0.07423   0.81028   0.00000  Uiso   1.00
H1013  H     0.28999   0.02439   0.80900   0.00000  Uiso   1.00
C1014  C     0.08012   0.29148   0.86982   0.00000  Uiso   1.00
C1015  C     0.08892   0.29020   0.92199   0.00000  Uiso   1.00
H1016  H     0.05511   0.27424   0.93401   0.00000  Uiso   1.00
H1017  H     0.12528   0.27262   0.93495   0.00000  Uiso   1.00
H1018  H     0.09232   0.32251   0.93619   0.00000  Uiso   1.00
H1019  H     0.04334   0.30894   0.85765   0.00000  Uiso   1.00
H1020  H     0.07333   0.25910   0.85639   0.00000  Uiso   1.00
N1021  N     0.23419   0.22025   0.96092   0.00000  Uiso   1.00
H1022  H     0.27267   0.21350   0.97597   0.00000  Uiso   1.00
H1023  H     0.22600   0.25100   0.96972   0.00000  Uiso   1.00
N1024  N     0.09914   0.11309   0.70575   0.00000  Uiso   1.00
H1025  H     0.06066   0.11984   0.69070   0.00000  Uiso   1.00
H1026  H     0.10732   0.08234   0.69694   0.00000  Uiso   1.00
C1027  C     0.50122   0.08679   0.83350   0.00000  Uiso   1.00
C1028  C     0.49878   0.24654   0.83317   0.00000  Uiso   1.00
C1029  C     0.40036   0.16658   0.82133   0.00000  Uiso   1.00
C1030  C     0.59963   0.16675   0.84534   0.00000  Uiso   1.00
C1031  C     0.34526   0.16653   0.81491   0.00000  Uiso   1.00
C1032  C     0.65473   0.16681   0.85176   0.00000  Uiso   1.00
C1033  C     0.54077   0.02074   0.81467   0.00000  Uiso   1.00
C1034  C     0.45923   0.31259   0.85200   0.00000  Uiso   1.00
C1035  C     0.53773   0.31089   0.81421   0.00000  Uiso   1.00
C1036  C     0.46227   0.02244   0.85246   0.00000  Uiso   1.00
C1037  C     0.49783   0.29066   0.83290   0.00000  Uiso   1.00
C1038  C     0.50218   0.04267   0.83377   0.00000  Uiso   1.00
C1039  C     0.53280   0.19270   0.69506   0.00000  Uiso   1.00
C1040  C     0.46720   0.14063   0.97161   0.00000  Uiso   1.00
C1041  C     0.53289   0.19279   0.98037   0.00000  Uiso   1.00
C1042  C     0.46710   0.14055   0.68630   0.00000  Uiso   1.00
H1043  H     0.65784   0.16623   0.77999   0.00000  Uiso   1.00
H1044  H     0.34216   0.16710   0.88667   0.00000  Uiso   1.00
H1045  H     0.56729   0.29287   0.80034   0.00000  Uiso   1.00
H1046  H     0.43271   0.04046   0.86633   0.00000  Uiso   1.00
H1047  H     0.55898   0.21348   0.71685   0.00000  Uiso   1.00
H1048  H     0.44102   0.11985   0.94982   0.00000  Uiso   1.00
N1049  N     0.49999   0.16666   0.95240   0.00000  Uiso   1.00
N1050  N     0.50001   0.16668   0.71427   0.00000  Uiso   1.00
O1051  O     0.50000   0.10558   0.87154   0.00000  Uiso   1.00
O1052  O     0.50000   0.22775   0.79513   0.00000  Uiso   1.00
O1053  O     0.50000   0.10559   0.79510   0.00000  Uiso   1.00
O1054  O     0.50000   0.22774   0.87157   0.00000  Uiso   1.00
O1055  O     0.42392   0.16666   0.86261   0.00000  Uiso   1.00
O1056  O     0.57608   0.16667   0.80405   0.00000  Uiso   1.00
O1057  O     0.42392   0.16667   0.78617   0.00000  Uiso   1.00
O1058  O     0.57608   0.16666   0.88050   0.00000  Uiso   1.00
Zn1059 Zn    0.50000   0.16666   0.88437   0.00000  Uiso   1.00
Zn1060 Zn    0.50000   0.16667   0.78229   0.00000  Uiso   1.00
C1061  C     0.58654   0.04186   0.79684   0.00000  Uiso   1.00
C1062  C     0.57772   0.04314   0.74467   0.00000  Uiso   1.00
H1063  H     0.57434   0.01083   0.73046   0.00000  Uiso   1.00
H1064  H     0.54135   0.06071   0.73172   0.00000  Uiso   1.00
H1065  H     0.61152   0.05912   0.73264   0.00000  Uiso   1.00
H1066  H     0.59335   0.07423   0.81028   0.00000  Uiso   1.00
H1067  H     0.62332   0.02439   0.80900   0.00000  Uiso   1.00
C1068  C     0.41345   0.29148   0.86982   0.00000  Uiso   1.00
C1069  C     0.42226   0.29020   0.92199   0.00000  Uiso   1.00
H1070  H     0.38845   0.27424   0.93401   0.00000  Uiso   1.00
H1071  H     0.45861   0.27262   0.93495   0.00000  Uiso   1.00
H1072  H     0.42566   0.32251   0.93619   0.00000  Uiso   1.00
H1073  H     0.37668   0.30894   0.85765   0.00000  Uiso   1.00
H1074  H     0.40666   0.25910   0.85639   0.00000  Uiso   1.00
N1075  N     0.56753   0.22025   0.96092   0.00000  Uiso   1.00
H1076  H     0.60601   0.21350   0.97597   0.00000  Uiso   1.00
H1077  H     0.55933   0.25100   0.96972   0.00000  Uiso   1.00
N1078  N     0.43247   0.11309   0.70575   0.00000  Uiso   1.00
H1079  H     0.39399   0.11984   0.69070   0.00000  Uiso   1.00
H1080  H     0.44066   0.08234   0.69694   0.00000  Uiso   1.00
C1081  C     0.83456   0.08679   0.83350   0.00000  Uiso   1.00
C1082  C     0.83211   0.24654   0.83317   0.00000  Uiso   1.00
C1083  C     0.73370   0.16658   0.82133   0.00000  Uiso   1.00
C1084  C     0.93297   0.16675   0.84534   0.00000  Uiso   1.00
C1085  C     0.67860   0.16653   0.81491   0.00000  Uiso   1.00
C1086  C     0.98807   0.16681   0.85176   0.00000  Uiso   1.00
C1087  C     0.87411   0.02074   0.81467   0.00000  Uiso   1.00
C1088  C     0.79256   0.31259   0.85200   0.00000  Uiso   1.00
C1089  C     0.87107   0.31089   0.81421   0.00000  Uiso   1.00
C1090  C     0.79561   0.02244   0.85246   0.00000  Uiso   1.00
C1091  C     0.83116   0.29066   0.83290   0.00000  Uiso   1.00
C1092  C     0.83551   0.04267   0.83377   0.00000  Uiso   1.00
C1093  C     0.86613   0.19270   0.69506   0.00000  Uiso   1.00
C1094  C     0.80054   0.14063   0.97161   0.00000  Uiso   1.00
C1095  C     0.86623   0.19279   0.98037   0.00000  Uiso   1.00
C1096  C     0.80044   0.14055   0.68630   0.00000  Uiso   1.00
H1097  H     0.99117   0.16623   0.77999   0.00000  Uiso   1.00
H1098  H     0.67550   0.16710   0.88667   0.00000  Uiso   1.00
H1099  H     0.90062   0.29287   0.80034   0.00000  Uiso   1.00
H1100  H     0.76605   0.04046   0.86633   0.00000  Uiso   1.00
H1101  H     0.89231   0.21348   0.71685   0.00000  Uiso   1.00
H1102  H     0.77435   0.11985   0.94982   0.00000  Uiso   1.00
N1103  N     0.83332   0.16666   0.95240   0.00000  Uiso   1.00
N1104  N     0.83335   0.16668   0.71427   0.00000  Uiso   1.00
O1105  O     0.83333   0.10558   0.87154   0.00000  Uiso   1.00
O1106  O     0.83334   0.22775   0.79513   0.00000  Uiso   1.00
O1107  O     0.83333   0.10559   0.79510   0.00000  Uiso   1.00
O1108  O     0.83334   0.22774   0.87157   0.00000  Uiso   1.00
O1109  O     0.75725   0.16666   0.86261   0.00000  Uiso   1.00
O1110  O     0.90942   0.16667   0.80405   0.00000  Uiso   1.00
O1111  O     0.75725   0.16667   0.78617   0.00000  Uiso   1.00
O1112  O     0.90942   0.16666   0.88050   0.00000  Uiso   1.00
Zn1113 Zn    0.83333   0.16666   0.88437   0.00000  Uiso   1.00
Zn1114 Zn    0.83333   0.16667   0.78229   0.00000  Uiso   1.00
C1115  C     0.91988   0.04186   0.79684   0.00000  Uiso   1.00
C1116  C     0.91106   0.04314   0.74467   0.00000  Uiso   1.00
H1117  H     0.90768   0.01083   0.73046   0.00000  Uiso   1.00
H1118  H     0.87468   0.06071   0.73172   0.00000  Uiso   1.00
H1119  H     0.94485   0.05912   0.73264   0.00000  Uiso   1.00
H1120  H     0.92668   0.07423   0.81028   0.00000  Uiso   1.00
H1121  H     0.95665   0.02439   0.80900   0.00000  Uiso   1.00
C1122  C     0.74679   0.29148   0.86982   0.00000  Uiso   1.00
C1123  C     0.75559   0.29020   0.92199   0.00000  Uiso   1.00
H1124  H     0.72178   0.27424   0.93401   0.00000  Uiso   1.00
H1125  H     0.79194   0.27262   0.93495   0.00000  Uiso   1.00
H1126  H     0.75899   0.32251   0.93619   0.00000  Uiso   1.00
H1127  H     0.71001   0.30894   0.85765   0.00000  Uiso   1.00
H1128  H     0.73999   0.25910   0.85639   0.00000  Uiso   1.00
N1129  N     0.90086   0.22025   0.96092   0.00000  Uiso   1.00
H1130  H     0.93934   0.21350   0.97597   0.00000  Uiso   1.00
H1131  H     0.89266   0.25100   0.96972   0.00000  Uiso   1.00
N1132  N     0.76580   0.11309   0.70575   0.00000  Uiso   1.00
H1133  H     0.72732   0.11984   0.69070   0.00000  Uiso   1.00
H1134  H     0.77399   0.08234   0.69694   0.00000  Uiso   1.00
C1135  C     0.16789   0.42013   0.83350   0.00000  Uiso   1.00
C1136  C     0.16544   0.57987   0.83317   0.00000  Uiso   1.00
C1137  C     0.06703   0.49992   0.82133   0.00000  Uiso   1.00
C1138  C     0.26630   0.50008   0.84534   0.00000  Uiso   1.00
C1139  C     0.01193   0.49986   0.81491   0.00000  Uiso   1.00
C1140  C     0.32140   0.50014   0.85176   0.00000  Uiso   1.00
C1141  C     0.20744   0.35407   0.81467   0.00000  Uiso   1.00
C1142  C     0.12590   0.64593   0.85200   0.00000  Uiso   1.00
C1143  C     0.20440   0.64423   0.81421   0.00000  Uiso   1.00
C1144  C     0.12894   0.35577   0.85246   0.00000  Uiso   1.00
C1145  C     0.16449   0.62400   0.83290   0.00000  Uiso   1.00
C1146  C     0.16884   0.37600   0.83377   0.00000  Uiso   1.00
C1147  C     0.19946   0.52604   0.69506   0.00000  Uiso   1.00
C1148  C     0.13387   0.47396   0.97161   0.00000  Uiso   1.00
C1149  C     0.19956   0.52612   0.98037   0.00000  Uiso   1.00
C1150  C     0.13377   0.47388   0.68630   0.00000  Uiso   1.00
H1151  H     0.32450   0.49957   0.77999   0.00000  Uiso   1.00
H1152  H     0.00883   0.50043   0.88667   0.00000  Uiso   1.00
H1153  H     0.23396   0.62620   0.80034   0.00000  Uiso   1.00
H1154  H     0.09938   0.37380   0.86633   0.00000  Uiso   1.00
H1155  H     0.22564   0.54682   0.71685   0.00000  Uiso   1.00
H1156  H     0.10769   0.45318   0.94982   0.00000  Uiso   1.00
N1157  N     0.16665   0.49999   0.95240   0.00000  Uiso   1.00
N1158  N     0.16668   0.50001   0.71427   0.00000  Uiso   1.00
O1159  O     0.16666   0.43892   0.87154   0.00000  Uiso   1.00
O1160  O     0.16667   0.56108   0.79513   0.00000  Uiso   1.00
O1161  O     0.16666   0.43893   0.79510   0.00000  Uiso   1.00
O1162  O     0.16667   0.56107   0.87157   0.00000  Uiso   1.00
O1163  O     0.09058   0.50000   0.86261   0.00000  Uiso   1.00
O1164  O     0.24275   0.50000   0.80405   0.00000  Uiso   1.00
O1165  O     0.09058   0.50000   0.78617   0.00000  Uiso   1.00
O1166  O     0.24275   0.50000   0.88050   0.00000  Uiso   1.00
Zn1167 Zn    0.16667   0.49999   0.88437   0.00000  Uiso   1.00
Zn1168 Zn    0.16667   0.50001   0.78229   0.00000  Uiso   1.00
C1169  C     0.25321   0.37519   0.79684   0.00000  Uiso   1.00
C1170  C     0.24439   0.37647   0.74467   0.00000  Uiso   1.00
H1171  H     0.24101   0.34416   0.73046   0.00000  Uiso   1.00
H1172  H     0.20802   0.39404   0.73172   0.00000  Uiso   1.00
H1173  H     0.27818   0.39245   0.73264   0.00000  Uiso   1.00
H1174  H     0.26001   0.40756   0.81028   0.00000  Uiso   1.00
H1175  H     0.28999   0.35772   0.80900   0.00000  Uiso   1.00
C1176  C     0.08012   0.62481   0.86982   0.00000  Uiso   1.00
C1177  C     0.08892   0.62354   0.92199   0.00000  Uiso   1.00
H1178  H     0.05511   0.60758   0.93401   0.00000  Uiso   1.00
H1179  H     0.12528   0.60595   0.93495   0.00000  Uiso   1.00
H1180  H     0.09232   0.65585   0.93619   0.00000  Uiso   1.00
H1181  H     0.04334   0.64227   0.85765   0.00000  Uiso   1.00
H1182  H     0.07333   0.59244   0.85639   0.00000  Uiso   1.00
N1183  N     0.23419   0.55358   0.96092   0.00000  Uiso   1.00
H1184  H     0.27267   0.54684   0.97597   0.00000  Uiso   1.00
H1185  H     0.22600   0.58433   0.96972   0.00000  Uiso   1.00
N1186  N     0.09914   0.44642   0.70575   0.00000  Uiso   1.00
H1187  H     0.06066   0.45317   0.69070   0.00000  Uiso   1.00
H1188  H     0.10732   0.41567   0.69694   0.00000  Uiso   1.00
C1189  C     0.50122   0.42013   0.83350   0.00000  Uiso   1.00
C1190  C     0.49878   0.57987   0.83317   0.00000  Uiso   1.00
C1191  C     0.40036   0.49992   0.82133   0.00000  Uiso   1.00
C1192  C     0.59963   0.50008   0.84534   0.00000  Uiso   1.00
C1193  C     0.34526   0.49986   0.81491   0.00000  Uiso   1.00
C1194  C     0.65473   0.50014   0.85176   0.00000  Uiso   1.00
C1195  C     0.54077   0.35407   0.81467   0.00000  Uiso   1.00
C1196  C     0.45923   0.64593   0.85200   0.00000  Uiso   1.00
C1197  C     0.53773   0.64423   0.81421   0.00000  Uiso   1.00
C1198  C     0.46227   0.35577   0.85246   0.00000  Uiso   1.00
C1199  C     0.49783   0.62400   0.83290   0.00000  Uiso   1.00
C1200  C     0.50218   0.37600   0.83377   0.00000  Uiso   1.00
C1201  C     0.53280   0.52604   0.69506   0.00000  Uiso   1.00
C1202  C     0.46720   0.47396   0.97161   0.00000  Uiso   1.00
C1203  C     0.53289   0.52612   0.98037   0.00000  Uiso   1.00
C1204  C     0.46710   0.47388   0.68630   0.00000  Uiso   1.00
H1205  H     0.65784   0.49957   0.77999   0.00000  Uiso   1.00
H1206  H     0.34216   0.50043   0.88667   0.00000  Uiso   1.00
H1207  H     0.56729   0.62620   0.80034   0.00000  Uiso   1.00
H1208  H     0.43271   0.37380   0.86633   0.00000  Uiso   1.00
H1209  H     0.55898   0.54682   0.71685   0.00000  Uiso   1.00
H1210  H     0.44102   0.45318   0.94982   0.00000  Uiso   1.00
N1211  N     0.49999   0.49999   0.95240   0.00000  Uiso   1.00
N1212  N     0.50001   0.50001   0.71427   0.00000  Uiso   1.00
O1213  O     0.50000   0.43892   0.87154   0.00000  Uiso   1.00
O1214  O     0.50000   0.56108   0.79513   0.00000  Uiso   1.00
O1215  O     0.50000   0.43893   0.79510   0.00000  Uiso   1.00
O1216  O     0.50000   0.56107   0.87157   0.00000  Uiso   1.00
O1217  O     0.42392   0.50000   0.86261   0.00000  Uiso   1.00
O1218  O     0.57608   0.50000   0.80405   0.00000  Uiso   1.00
O1219  O     0.42392   0.50000   0.78617   0.00000  Uiso   1.00
O1220  O     0.57608   0.50000   0.88050   0.00000  Uiso   1.00
Zn1221 Zn    0.50000   0.49999   0.88437   0.00000  Uiso   1.00
Zn1222 Zn    0.50000   0.50001   0.78229   0.00000  Uiso   1.00
C1223  C     0.58654   0.37519   0.79684   0.00000  Uiso   1.00
C1224  C     0.57772   0.37647   0.74467   0.00000  Uiso   1.00
H1225  H     0.57434   0.34416   0.73046   0.00000  Uiso   1.00
H1226  H     0.54135   0.39404   0.73172   0.00000  Uiso   1.00
H1227  H     0.61152   0.39245   0.73264   0.00000  Uiso   1.00
H1228  H     0.59335   0.40756   0.81028   0.00000  Uiso   1.00
H1229  H     0.62332   0.35772   0.80900   0.00000  Uiso   1.00
C1230  C     0.41345   0.62481   0.86982   0.00000  Uiso   1.00
C1231  C     0.42226   0.62354   0.92199   0.00000  Uiso   1.00
H1232  H     0.38845   0.60758   0.93401   0.00000  Uiso   1.00
H1233  H     0.45861   0.60595   0.93495   0.00000  Uiso   1.00
H1234  H     0.42566   0.65585   0.93619   0.00000  Uiso   1.00
H1235  H     0.37668   0.64227   0.85765   0.00000  Uiso   1.00
H1236  H     0.40666   0.59244   0.85639   0.00000  Uiso   1.00
N1237  N     0.56753   0.55358   0.96092   0.00000  Uiso   1.00
H1238  H     0.60601   0.54684   0.97597   0.00000  Uiso   1.00
H1239  H     0.55933   0.58433   0.96972   0.00000  Uiso   1.00
N1240  N     0.43247   0.44642   0.70575   0.00000  Uiso   1.00
H1241  H     0.39399   0.45317   0.69070   0.00000  Uiso   1.00
H1242  H     0.44066   0.41567   0.69694   0.00000  Uiso   1.00
C1243  C     0.83456   0.42013   0.83350   0.00000  Uiso   1.00
C1244  C     0.83211   0.57987   0.83317   0.00000  Uiso   1.00
C1245  C     0.73370   0.49992   0.82133   0.00000  Uiso   1.00
C1246  C     0.93297   0.50008   0.84534   0.00000  Uiso   1.00
C1247  C     0.67860   0.49986   0.81491   0.00000  Uiso   1.00
C1248  C     0.98807   0.50014   0.85176   0.00000  Uiso   1.00
C1249  C     0.87411   0.35407   0.81467   0.00000  Uiso   1.00
C1250  C     0.79256   0.64593   0.85200   0.00000  Uiso   1.00
C1251  C     0.87107   0.64423   0.81421   0.00000  Uiso   1.00
C1252  C     0.79561   0.35577   0.85246   0.00000  Uiso   1.00
C1253  C     0.83116   0.62400   0.83290   0.00000  Uiso   1.00
C1254  C     0.83551   0.37600   0.83377   0.00000  Uiso   1.00
C1255  C     0.86613   0.52604   0.69506   0.00000  Uiso   1.00
C1256  C     0.80054   0.47396   0.97161   0.00000  Uiso   1.00
C1257  C     0.86623   0.52612   0.98037   0.00000  Uiso   1.00
C1258  C     0.80044   0.47388   0.68630   0.00000  Uiso   1.00
H1259  H     0.99117   0.49957   0.77999   0.00000  Uiso   1.00
H1260  H     0.67550   0.50043   0.88667   0.00000  Uiso   1.00
H1261  H     0.90062   0.62620   0.80034   0.00000  Uiso   1.00
H1262  H     0.76605   0.37380   0.86633   0.00000  Uiso   1.00
H1263  H     0.89231   0.54682   0.71685   0.00000  Uiso   1.00
H1264  H     0.77435   0.45318   0.94982   0.00000  Uiso   1.00
N1265  N     0.83332   0.49999   0.95240   0.00000  Uiso   1.00
N1266  N     0.83335   0.50001   0.71427   0.00000  Uiso   1.00
O1267  O     0.83333   0.43892   0.87154   0.00000  Uiso   1.00
O1268  O     0.83334   0.56108   0.79513   0.00000  Uiso   1.00
O1269  O     0.83333   0.43893   0.79510   0.00000  Uiso   1.00
O1270  O     0.83334   0.56107   0.87157   0.00000  Uiso   1.00
O1271  O     0.75725   0.50000   0.86261   0.00000  Uiso   1.00
O1272  O     0.90942   0.50000   0.80405   0.00000  Uiso   1.00
O1273  O     0.75725   0.50000   0.78617   0.00000  Uiso   1.00
O1274  O     0.90942   0.50000   0.88050   0.00000  Uiso   1.00
Zn1275 Zn    0.83333   0.49999   0.88437   0.00000  Uiso   1.00
Zn1276 Zn    0.83333   0.50001   0.78229   0.00000  Uiso   1.00
C1277  C     0.91988   0.37519   0.79684   0.00000  Uiso   1.00
C1278  C     0.91106   0.37647   0.74467   0.00000  Uiso   1.00
H1279  H     0.90768   0.34416   0.73046   0.00000  Uiso   1.00
H1280  H     0.87468   0.39404   0.73172   0.00000  Uiso   1.00
H1281  H     0.94485   0.39245   0.73264   0.00000  Uiso   1.00
H1282  H     0.92668   0.40756   0.81028   0.00000  Uiso   1.00
H1283  H     0.95665   0.35772   0.80900   0.00000  Uiso   1.00
C1284  C     0.74679   0.62481   0.86982   0.00000  Uiso   1.00
C1285  C     0.75559   0.62354   0.92199   0.00000  Uiso   1.00
H1286  H     0.72178   0.60758   0.93401   0.00000  Uiso   1.00
H1287  H     0.79194   0.60595   0.93495   0.00000  Uiso   1.00
H1288  H     0.75899   0.65585   0.93619   0.00000  Uiso   1.00
H1289  H     0.71001   0.64227   0.85765   0.00000  Uiso   1.00
H1290  H     0.73999   0.59244   0.85639   0.00000  Uiso   1.00
N1291  N     0.90086   0.55358   0.96092   0.00000  Uiso   1.00
H1292  H     0.93934   0.54684   0.97597   0.00000  Uiso   1.00
H1293  H     0.89266   0.58433   0.96972   0.00000  Uiso   1.00
N1294  N     0.76580   0.44642   0.70575   0.00000  Uiso   1.00
H1295  H     0.72732   0.45317   0.69070   0.00000  Uiso   1.00
H1296  H     0.77399   0.41567   0.69694   0.00000  Uiso   1.00
C1297  C     0.16789   0.75346   0.83350   0.00000  Uiso   1.00
C1298  C     0.16544   0.91321   0.83317   0.00000  Uiso   1.00
C1299  C     0.06703   0.83325   0.82133   0.00000  Uiso   1.00
C1300  C     0.26630   0.83342   0.84534   0.00000  Uiso   1.00
C1301  C     0.01193   0.83319   0.81491   0.00000  Uiso   1.00
C1302  C     0.32140   0.83347   0.85176   0.00000  Uiso   1.00
C1303  C     0.20744   0.68741   0.81467   0.00000  Uiso   1.00
C1304  C     0.12590   0.97926   0.85200   0.00000  Uiso   1.00
C1305  C     0.20440   0.97756   0.81421   0.00000  Uiso   1.00
C1306  C     0.12894   0.68911   0.85246   0.00000  Uiso   1.00
C1307  C     0.16449   0.95733   0.83290   0.00000  Uiso   1.00
C1308  C     0.16884   0.70934   0.83377   0.00000  Uiso   1.00
C1309  C     0.19946   0.85937   0.69506   0.00000  Uiso   1.00
C1310  C     0.13387   0.80730   0.97161   0.00000  Uiso   1.00
C1311  C     0.19956   0.85945   0.98037   0.00000  Uiso   1.00
C1312  C     0.13377   0.80722   0.68630   0.00000  Uiso   1.00
H1313  H     0.32450   0.83290   0.77999   0.00000  Uiso   1.00
H1314  H     0.00883   0.83377   0.88667   0.00000  Uiso   1.00
H1315  H     0.23396   0.95954   0.80034   0.00000  Uiso   1.00
H1316  H     0.09938   0.70713   0.86633   0.00000  Uiso   1.00
H1317  H     0.22564   0.88015   0.71685   0.00000  Uiso   1.00
H1318  H     0.10769   0.78652   0.94982   0.00000  Uiso   1.00
N1319  N     0.16665   0.83332   0.95240   0.00000  Uiso   1.00
N1320  N     0.16668   0.83334   0.71427   0.00000  Uiso   1.00
O1321  O     0.16666   0.77225   0.87154   0.00000  Uiso   1.00
O1322  O     0.16667   0.89442   0.79513   0.00000  Uiso   1.00
O1323  O     0.16666   0.77226   0.79510   0.00000  Uiso   1.00
O1324  O     0.16667   0.89441   0.87157   0.00000  Uiso   1.00
O1325  O     0.09058   0.83333   0.86261   0.00000  Uiso   1.00
O1326  O     0.24275   0.83334   0.80405   0.00000  Uiso   1.00
O1327  O     0.09058   0.83334   0.78617   0.00000  Uiso   1.00
O1328  O     0.24275   0.83333   0.88050   0.00000  Uiso   1.00
Zn1329 Zn    0.16667   0.83333   0.88437   0.00000  Uiso   1.00
Zn1330 Zn    0.16667   0.83334   0.78229   0.00000  Uiso   1.00
C1331  C     0.25321   0.70852   0.79684   0.00000  Uiso   1.00
C1332  C     0.24439   0.70981   0.74467   0.00000  Uiso   1.00
H1333  H     0.24101   0.67750   0.73046   0.00000  Uiso   1.00
H1334  H     0.20802   0.72738   0.73172   0.00000  Uiso   1.00
H1335  H     0.27818   0.72579   0.73264   0.00000  Uiso   1.00
H1336  H     0.26001   0.74089   0.81028   0.00000  Uiso   1.00
H1337  H     0.28999   0.69106   0.80900   0.00000  Uiso   1.00
C1338  C     0.08012   0.95814   0.86982   0.00000  Uiso   1.00
C1339  C     0.08892   0.95687   0.92199   0.00000  Uiso   1.00
H1340  H     0.05511   0.94091   0.93401   0.00000  Uiso   1.00
H1341  H     0.12528   0.93928   0.93495   0.00000  Uiso   1.00
H1342  H     0.09232   0.98918   0.93619   0.00000  Uiso   1.00
H1343  H     0.04334   0.97561   0.85765   0.00000  Uiso   1.00
H1344  H     0.07333   0.92577   0.85639   0.00000  Uiso   1.00
N1345  N     0.23419   0.88691   0.96092   0.00000  Uiso   1.00
H1346  H     0.27267   0.88017   0.97597   0.00000  Uiso   1.00
H1347  H     0.22600   0.91766   0.96972   0.00000  Uiso   1.00
N1348  N     0.09914   0.77975   0.70575   0.00000  Uiso   1.00
H1349  H     0.06066   0.78651   0.69070   0.00000  Uiso   1.00
H1350  H     0.10732   0.74901   0.69694   0.00000  Uiso   1.00
C1351  C     0.50122   0.75346   0.83350   0.00000  Uiso   1.00
C1352  C     0.49878   0.91321   0.83317   0.00000  Uiso   1.00
C1353  C     0.40036   0.83325   0.82133   0.00000  Uiso   1.00
C1354  C     0.59963   0.83342   0.84534   0.00000  Uiso   1.00
C1355  C     0.34526   0.83319   0.81491   0.00000  Uiso   1.00
C1356  C     0.65473   0.83347   0.85176   0.00000  Uiso   1.00
C1357  C     0.54077   0.68741   0.81467   0.00000  Uiso   1.00
C1358  C     0.45923   0.97926   0.85200   0.00000  Uiso   1.00
C1359  C     0.53773   0.97756   0.81421   0.00000  Uiso   1.00
C1360  C     0.46227   0.68911   0.85246   0.00000  Uiso   1.00
C1361  C     0.49783   0.95733   0.83290   0.00000  Uiso   1.00
C1362  C     0.50218   0.70934   0.83377   0.00000  Uiso   1.00
C1363  C     0.53280   0.85937   0.69506   0.00000  Uiso   1.00
C1364  C     0.46720   0.80730   0.97161   0.00000  Uiso   1.00
C1365  C     0.53289   0.85945   0.98037   0.00000  Uiso   1.00
C1366  C     0.46710   0.80722   0.68630   0.00000  Uiso   1.00
H1367  H     0.65784   0.83290   0.77999   0.00000  Uiso   1.00
H1368  H     0.34216   0.83377   0.88667   0.00000  Uiso   1.00
H1369  H     0.56729   0.95954   0.80034   0.00000  Uiso   1.00
H1370  H     0.43271   0.70713   0.86633   0.00000  Uiso   1.00
H1371  H     0.55898   0.88015   0.71685   0.00000  Uiso   1.00
H1372  H     0.44102   0.78652   0.94982   0.00000  Uiso   1.00
N1373  N     0.49999   0.83332   0.95240   0.00000  Uiso   1.00
N1374  N     0.50001   0.83334   0.71427   0.00000  Uiso   1.00
O1375  O     0.50000   0.77225   0.87154   0.00000  Uiso   1.00
O1376  O     0.50000   0.89442   0.79513   0.00000  Uiso   1.00
O1377  O     0.50000   0.77226   0.79510   0.00000  Uiso   1.00
O1378  O     0.50000   0.89441   0.87157   0.00000  Uiso   1.00
O1379  O     0.42392   0.83333   0.86261   0.00000  Uiso   1.00
O1380  O     0.57608   0.83334   0.80405   0.00000  Uiso   1.00
O1381  O     0.42392   0.83334   0.78617   0.00000  Uiso   1.00
O1382  O     0.57608   0.83333   0.88050   0.00000  Uiso   1.00
Zn1383 Zn    0.50000   0.83333   0.88437   0.00000  Uiso   1.00
Zn1384 Zn    0.50000   0.83334   0.78229   0.00000  Uiso   1.00
C1385  C     0.58654   0.70852   0.79684   0.00000  Uiso   1.00
C1386  C     0.57772   0.70981   0.74467   0.00000  Uiso   1.00
H1387  H     0.57434   0.67750   0.73046   0.00000  Uiso   1.00
H1388  H     0.54135   0.72738   0.73172   0.00000  Uiso   1.00
H1389  H     0.61152   0.72579   0.73264   0.00000  Uiso   1.00
H1390  H     0.59335   0.74089   0.81028   0.00000  Uiso   1.00
H1391  H     0.62332   0.69106   0.80900   0.00000  Uiso   1.00
C1392  C     0.41345   0.95814   0.86982   0.00000  Uiso   1.00
C1393  C     0.42226   0.95687   0.92199   0.00000  Uiso   1.00
H1394  H     0.38845   0.94091   0.93401   0.00000  Uiso   1.00
H1395  H     0.45861   0.93928   0.93495   0.00000  Uiso   1.00
H1396  H     0.42566   0.98918   0.93619   0.00000  Uiso   1.00
H1397  H     0.37668   0.97561   0.85765   0.00000  Uiso   1.00
H1398  H     0.40666   0.92577   0.85639   0.00000  Uiso   1.00
N1399  N     0.56753   0.88691   0.96092   0.00000  Uiso   1.00
H1400  H     0.60601   0.88017   0.97597   0.00000  Uiso   1.00
H1401  H     0.55933   0.91766   0.96972   0.00000  Uiso   1.00
N1402  N     0.43247   0.77975   0.70575   0.00000  Uiso   1.00
H1403  H     0.39399   0.78651   0.69070   0.00000  Uiso   1.00
H1404  H     0.44066   0.74901   0.69694   0.00000  Uiso   1.00
C1405  C     0.83456   0.75346   0.83350   0.00000  Uiso   1.00
C1406  C     0.83211   0.91321   0.83317   0.00000  Uiso   1.00
C1407  C     0.73370   0.83325   0.82133   0.00000  Uiso   1.00
C1408  C     0.93297   0.83342   0.84534   0.00000  Uiso   1.00
C1409  C     0.67860   0.83319   0.81491   0.00000  Uiso   1.00
C1410  C     0.98807   0.83347   0.85176   0.00000  Uiso   1.00
C1411  C     0.87411   0.68741   0.81467   0.00000  Uiso   1.00
C1412  C     0.79256   0.97926   0.85200   0.00000  Uiso   1.00
C1413  C     0.87107   0.97756   0.81421   0.00000  Uiso   1.00
C1414  C     0.79561   0.68911   0.85246   0.00000  Uiso   1.00
C1415  C     0.83116   0.95733   0.83290   0.00000  Uiso   1.00
C1416  C     0.83551   0.70934   0.83377   0.00000  Uiso   1.00
C1417  C     0.86613   0.85937   0.69506   0.00000  Uiso   1.00
C1418  C     0.80054   0.80730   0.97161   0.00000  Uiso   1.00
C1419  C     0.86623   0.85945   0.98037   0.00000  Uiso   1.00
C1420  C     0.80044   0.80722   0.68630   0.00000  Uiso   1.00
H1421  H     0.99117   0.83290   0.77999   0.00000  Uiso   1.00
H1422  H     0.67550   0.83377   0.88667   0.00000  Uiso   1.00
H1423  H     0.90062   0.95954   0.80034   0.00000  Uiso   1.00
H1424  H     0.76605   0.70713   0.86633   0.00000  Uiso   1.00
H1425  H     0.89231   0.88015   0.71685   0.00000  Uiso   1.00
H1426  H     0.77435   0.78652   0.94982   0.00000  Uiso   1.00
N1427  N     0.83332   0.83332   0.95240   0.00000  Uiso   1.00
N1428  N     0.83335   0.83334   0.71427   0.00000  Uiso   1.00
O1429  O     0.83333   0.77225   0.87154   0.00000  Uiso   1.00
O1430  O     0.83334   0.89442   0.79513   0.00000  Uiso   1.00
O1431  O     0.83333   0.77226   0.79510   0.00000  Uiso   1.00
O1432  O     0.83334   0.89441   0.87157   0.00000  Uiso   1.00
O1433  O     0.75725   0.83333   0.86261   0.00000  Uiso   1.00
O1434  O     0.90942   0.83334   0.80405   0.00000  Uiso   1.00
O1435  O     0.75725   0.83334   0.78617   0.00000  Uiso   1.00
O1436  O     0.90942   0.83333   0.88050   0.00000  Uiso   1.00
Zn1437 Zn    0.83333   0.83333   0.88437   0.00000  Uiso   1.00
Zn1438 Zn    0.83333   0.83334   0.78229   0.00000  Uiso   1.00
C1439  C     0.91988   0.70852   0.79684   0.00000  Uiso   1.00
C1440  C     0.91106   0.70981   0.74467   0.00000  Uiso   1.00
H1441  H     0.90768   0.67750   0.73046   0.00000  Uiso   1.00
H1442  H     0.87468   0.72738   0.73172   0.00000  Uiso   1.00
H1443  H     0.94485   0.72579   0.73264   0.00000  Uiso   1.00
H1444  H     0.92668   0.74089   0.81028   0.00000  Uiso   1.00
H1445  H     0.95665   0.69106   0.80900   0.00000  Uiso   1.00
C1446  C     0.74679   0.95814   0.86982   0.00000  Uiso   1.00
C1447  C     0.75559   0.95687   0.92199   0.00000  Uiso   1.00
H1448  H     0.72178   0.94091   0.93401   0.00000  Uiso   1.00
H1449  H     0.79194   0.93928   0.93495   0.00000  Uiso   1.00
H1450  H     0.75899   0.98918   0.93619   0.00000  Uiso   1.00
H1451  H     0.71001   0.97561   0.85765   0.00000  Uiso   1.00
H1452  H     0.73999   0.92577   0.85639   0.00000  Uiso   1.00
N1453  N     0.90086   0.88691   0.96092   0.00000  Uiso   1.00
H1454  H     0.93934   0.88017   0.97597   0.00000  Uiso   1.00
H1455  H     0.89266   0.91766   0.96972   0.00000  Uiso   1.00
N1456  N     0.76580   0.77975   0.70575   0.00000  Uiso   1.00
H1457  H     0.72732   0.78651   0.69070   0.00000  Uiso   1.00
H1458  H     0.77399   0.74901   0.69694   0.00000  Uiso   1.00
loop_
_geom_bond_atom_site_label_1
_geom_bond_atom_site_label_2
_geom_bond_distance
_geom_bond_site_symmetry_2
_ccdc_geom_bond_type
C1     O25     1.280   .     A
C1     C12     1.407   .     S
C1     O27     1.281   .     A
C2     C11     1.407   .     S
C2     O26     1.280   .     A
C2     O28     1.281   .     A
C3     O31     1.282   .     A
C3     O29     1.278   .     A
C3     C5      1.402   .     S
C4     O32     1.282   .     A
C4     C6      1.402   .     S
C4     O30     1.278   .     A
C5     C114    1.331   1_455 S
C5     H125    1.088   1_455 S
C6     C59     1.331   .     S
C6     H72     1.088   .     S
C7     C12     1.406   .     A
C7     C35     1.517   .     S
C7     C333    1.378   1_545 S
C8     C11     1.406   .     A
C8     C42     1.517   .     S
C8     C172    1.378   .     S
C9     C11     1.394   .     A
C9     H19     1.086   .     S
C9     C169    1.378   .     S
C10    C12     1.394   .     A
C10    H20     1.086   .     S
C10    C332    1.378   1_545 S
C13    H21     1.082   .     S
C13    N24     1.365   .     A
C13    C987    1.422   1_554 S
C14    N23     1.365   .     A
C14    H22     1.082   .     S
C14    C502    1.422   .     S
C15    N23     1.369   .     A
C15    N49     1.429   .     S
C15    C499    1.422   .     S
C16    N24     1.369   .     A
C16    N52     1.429   .     S
C16    C986    1.422   1_554 S
H17    C59     1.088   .     S
H18    C114    1.088   1_455 S
N23    Zn33    2.013   .     S
N24    Zn34    2.013   .     S
O25    Zn33    1.984   .     S
O26    Zn34    1.984   .     S
O27    Zn34    1.984   .     S
O28    Zn33    1.984   .     S
O29    Zn33    1.966   .     S
O30    Zn34    1.966   .     S
O31    Zn34    1.980   .     S
O32    Zn33    1.980   .     S
C35    H41     1.112   .     S
C35    C36     1.526   .     S
C35    H40     1.110   .     S
C36    H38     1.110   .     S
C36    H37     1.111   .     S
C36    H39     1.110   .     S
C42    H48     1.110   .     S
C42    H47     1.112   .     S
C42    C43     1.526   .     S
C43    H44     1.110   .     S
C43    H45     1.110   .     S
C43    H46     1.111   .     S
N49    H50     1.045   .     S
N49    H51     1.045   .     S
N52    H53     1.045   .     S
N52    H54     1.045   .     S
C55    O79     1.280   .     A
C55    C66     1.407   .     S
C55    O81     1.281   .     A
C56    C65     1.407   .     S
C56    O80     1.280   .     A
C56    O82     1.281   .     A
C57    O85     1.282   .     A
C57    O83     1.278   .     A
C57    C59     1.402   .     S
C58    O86     1.282   .     A
C58    C60     1.402   .     S
C58    O84     1.278   .     A
C60    C113    1.331   .     S
C60    H126    1.088   .     S
C61    C66     1.406   .     A
C61    C89     1.517   .     S
C61    C387    1.378   1_545 S
C62    C65     1.406   .     A
C62    C96     1.517   .     S
C62    C226    1.378   .     S
C63    C65     1.394   .     A
C63    H73     1.086   .     S
C63    C223    1.378   .     S
C64    C66     1.394   .     A
C64    H74     1.086   .     S
C64    C386    1.378   1_545 S
C67    H75     1.082   .     S
C67    N78     1.365   .     A
C67    C1041   1.422   1_554 S
C68    N77     1.365   .     A
C68    H76     1.082   .     S
C68    C556    1.422   .     S
C69    N77     1.369   .     A
C69    N103    1.429   .     S
C69    C553    1.422   .     S
C70    N78     1.369   .     A
C70    N106    1.429   .     S
C70    C1040   1.422   1_554 S
H71    C113    1.088   .     S
N77    Zn87    2.013   .     S
N78    Zn88    2.013   .     S
O79    Zn87    1.984   .     S
O80    Zn88    1.984   .     S
O81    Zn88    1.984   .     S
O82    Zn87    1.984   .     S
O83    Zn87    1.966   .     S
O84    Zn88    1.966   .     S
O85    Zn88    1.980   .     S
O86    Zn87    1.980   .     S
C89    H95     1.112   .     S
C89    C90     1.526   .     S
C89    H94     1.110   .     S
C90    H92     1.110   .     S
C90    H91     1.111   .     S
C90    H93     1.110   .     S
C96    H102    1.110   .     S
C96    H101    1.112   .     S
C96    C97     1.526   .     S
C97    H98     1.110   .     S
C97    H99     1.110   .     S
C97    H100    1.111   .     S
N103   H104    1.045   .     S
N103   H105    1.045   .     S
N106   H107    1.045   .     S
N106   H108    1.045   .     S
C109   O133    1.280   .     A
C109   C120    1.407   .     S
C109   O135    1.281   .     A
C110   C119    1.407   .     S
C110   O134    1.280   .     A
C110   O136    1.281   .     A
C111   O139    1.282   .     A
C111   O137    1.278   .     A
C111   C113    1.402   .     S
C112   O140    1.282   .     A
C112   C114    1.402   .     S
C112   O138    1.278   .     A
C114   C5      1.331   1_655 S
C114   H18     1.088   1_655 S
C115   C120    1.406   .     A
C115   C143    1.517   .     S
C115   C441    1.378   1_545 S
C116   C119    1.406   .     A
C116   C150    1.517   .     S
C116   C280    1.378   .     S
C117   C119    1.394   .     A
C117   H127    1.086   .     S
C117   C277    1.378   .     S
C118   C120    1.394   .     A
C118   H128    1.086   .     S
C118   C440    1.378   1_545 S
C121   H129    1.082   .     S
C121   N132    1.365   .     A
C121   C1095   1.422   1_554 S
C122   N131    1.365   .     A
C122   H130    1.082   .     S
C122   C610    1.422   .     S
C123   N131    1.369   .     A
C123   N157    1.429   .     S
C123   C607    1.422   .     S
C124   N132    1.369   .     A
C124   N160    1.429   .     S
C124   C1094   1.422   1_554 S
H125   C5      1.088   1_655 S
N131   Zn141   2.013   .     S
N132   Zn142   2.013   .     S
O133   Zn141   1.984   .     S
O134   Zn142   1.984   .     S
O135   Zn142   1.984   .     S
O136   Zn141   1.984   .     S
O137   Zn141   1.966   .     S
O138   Zn142   1.966   .     S
O139   Zn142   1.980   .     S
O140   Zn141   1.980   .     S
C143   H149    1.112   .     S
C143   C144    1.526   .     S
C143   H148    1.110   .     S
C144   H146    1.110   .     S
C144   H145    1.111   .     S
C144   H147    1.110   .     S
C150   H156    1.110   .     S
C150   H155    1.112   .     S
C150   C151    1.526   .     S
C151   H152    1.110   .     S
C151   H153    1.110   .     S
C151   H154    1.111   .     S
N157   H158    1.045   .     S
N157   H159    1.045   .     S
N160   H161    1.045   .     S
N160   H162    1.045   .     S
C163   O187    1.280   .     A
C163   C174    1.407   .     S
C163   O189    1.281   .     A
C164   C173    1.407   .     S
C164   O188    1.280   .     A
C164   O190    1.281   .     A
C165   O193    1.282   .     A
C165   O191    1.278   .     A
C165   C167    1.402   .     S
C166   O194    1.282   .     A
C166   C168    1.402   .     S
C166   O192    1.278   .     A
C167   C276    1.331   1_455 S
C167   H287    1.088   1_455 S
C168   C221    1.331   .     S
C168   H234    1.088   .     S
C169   C174    1.406   .     A
C169   C197    1.517   .     S
C170   C173    1.406   .     A
C170   C204    1.517   .     S
C170   C334    1.378   .     S
C171   C173    1.394   .     A
C171   H181    1.086   .     S
C171   C331    1.378   .     S
C172   C174    1.394   .     A
C172   H182    1.086   .     S
C175   H183    1.082   .     S
C175   N186    1.365   .     A
C175   C1149   1.422   1_554 S
C176   N185    1.365   .     A
C176   H184    1.082   .     S
C176   C664    1.422   .     S
C177   N185    1.369   .     A
C177   N211    1.429   .     S
C177   C661    1.422   .     S
C178   N186    1.369   .     A
C178   N214    1.429   .     S
C178   C1148   1.422   1_554 S
H179   C221    1.088   .     S
H180   C276    1.088   1_455 S
N185   Zn195   2.013   .     S
N186   Zn196   2.013   .     S
O187   Zn195   1.984   .     S
O188   Zn196   1.984   .     S
O189   Zn196   1.984   .     S
O190   Zn195   1.984   .     S
O191   Zn195   1.966   .     S
O192   Zn196   1.966   .     S
O193   Zn196   1.980   .     S
O194   Zn195   1.980   .     S
C197   H203    1.112   .     S
C197   C198    1.526   .     S
C197   H202    1.110   .     S
C198   H200    1.110   .     S
C198   H199    1.111   .     S
C198   H201    1.110   .     S
C204   H210    1.110   .     S
C204   H209    1.112   .     S
C204   C205    1.526   .     S
C205   H206    1.110   .     S
C205   H207    1.110   .     S
C205   H208    1.111   .     S
N211   H212    1.045   .     S
N211   H213    1.045   .     S
N214   H215    1.045   .     S
N214   H216    1.045   .     S
C217   O241    1.280   .     A
C217   C228    1.407   .     S
C217   O243    1.281   .     A
C218   C227    1.407   .     S
C218   O242    1.280   .     A
C218   O244    1.281   .     A
C219   O247    1.282   .     A
C219   O245    1.278   .     A
C219   C221    1.402   .     S
C220   O248    1.282   .     A
C220   C222    1.402   .     S
C220   O246    1.278   .     A
C222   C275    1.331   .     S
C222   H288    1.088   .     S
C223   C228    1.406   .     A
C223   C251    1.517   .     S
C224   C227    1.406   .     A
C224   C258    1.517   .     S
C224   C388    1.378   .     S
C225   C227    1.394   .     A
C225   H235    1.086   .     S
C225   C385    1.378   .     S
C226   C228    1.394   .     A
C226   H236    1.086   .     S
C229   H237    1.082   .     S
C229   N240    1.365   .     A
C229   C1203   1.422   1_554 S
C230   N239    1.365   .     A
C230   H238    1.082   .     S
C230   C718    1.422   .     S
C231   N239    1.369   .     A
C231   N265    1.429   .     S
C231   C715    1.422   .     S
C232   N240    1.369   .     A
C232   N268    1.429   .     S
C232   C1202   1.422   1_554 S
H233   C275    1.088   .     S
N239   Zn249   2.013   .     S
N240   Zn250   2.013   .     S
O241   Zn249   1.984   .     S
O242   Zn250   1.984   .     S
O243   Zn250   1.984   .     S
O244   Zn249   1.984   .     S
O245   Zn249   1.966   .     S
O246   Zn250   1.966   .     S
O247   Zn250   1.980   .     S
O248   Zn249   1.980   .     S
C251   H257    1.112   .     S
C251   C252    1.526   .     S
C251   H256    1.110   .     S
C252   H254    1.110   .     S
C252   H253    1.111   .     S
C252   H255    1.110   .     S
C258   H264    1.110   .     S
C258   H263    1.112   .     S
C258   C259    1.526   .     S
C259   H260    1.110   .     S
C259   H261    1.110   .     S
C259   H262    1.111   .     S
N265   H266    1.045   .     S
N265   H267    1.045   .     S
N268   H269    1.045   .     S
N268   H270    1.045   .     S
C271   O295    1.280   .     A
C271   C282    1.407   .     S
C271   O297    1.281   .     A
C272   C281    1.407   .     S
C272   O296    1.280   .     A
C272   O298    1.281   .     A
C273   O301    1.282   .     A
C273   O299    1.278   .     A
C273   C275    1.402   .     S
C274   O302    1.282   .     A
C274   C276    1.402   .     S
C274   O300    1.278   .     A
C276   C167    1.331   1_655 S
C276   H180    1.088   1_655 S
C277   C282    1.406   .     A
C277   C305    1.517   .     S
C278   C281    1.406   .     A
C278   C312    1.517   .     S
C278   C442    1.378   .     S
C279   C281    1.394   .     A
C279   H289    1.086   .     S
C279   C439    1.378   .     S
C280   C282    1.394   .     A
C280   H290    1.086   .     S
C283   H291    1.082   .     S
C283   N294    1.365   .     A
C283   C1257   1.422   1_554 S
C284   N293    1.365   .     A
C284   H292    1.082   .     S
C284   C772    1.422   .     S
C285   N293    1.369   .     A
C285   N319    1.429   .     S
C285   C769    1.422   .     S
C286   N294    1.369   .     A
C286   N322    1.429   .     S
C286   C1256   1.422   1_554 S
H287   C167    1.088   1_655 S
N293   Zn303   2.013   .     S
N294   Zn304   2.013   .     S
O295   Zn303   1.984   .     S
O296   Zn304   1.984   .     S
O297   Zn304   1.984   .     S
O298   Zn303   1.984   .     S
O299   Zn303   1.966   .     S
O300   Zn304   1.966   .     S
O301   Zn304   1.980   .     S
O302   Zn303   1.980   .     S
C305   H311    1.112   .     S
C305   C306    1.526   .     S
C305   H310    1.110   .     S
C306   H308    1.110   .     S
C306   H307    1.111   .     S
C306   H309    1.110   .     S
C312   H318    1.110   .     S
C312   H317    1.112   .     S
C312   C313    1.526   .     S
C313   H314    1.110   .     S
C313   H315    1.110   .     S
C313   H316    1.111   .     S
N319   H320    1.045   .     S
N319   H321    1.045   .     S
N322   H323    1.045   .     S
N322   H324    1.045   .     S
C325   O349    1.280   .     A
C325   C336    1.407   .     S
C325   O351    1.281   .     A
C326   C335    1.407   .     S
C326   O350    1.280   .     A
C326   O352    1.281   .     A
C327   O355    1.282   .     A
C327   O353    1.278   .     A
C327   C329    1.402   .     S
C328   O356    1.282   .     A
C328   C330    1.402   .     S
C328   O354    1.278   .     A
C329   C438    1.331   1_455 S
C329   H449    1.088   1_455 S
C330   C383    1.331   .     S
C330   H396    1.088   .     S
C331   C336    1.406   .     A
C331   C359    1.517   .     S
C332   C335    1.406   .     A
C332   C366    1.517   .     S
C332   C10     1.378   1_565 S
C333   C335    1.394   .     A
C333   H343    1.086   .     S
C333   C7      1.378   1_565 S
C334   C336    1.394   .     A
C334   H344    1.086   .     S
C337   H345    1.082   .     S
C337   N348    1.365   .     A
C337   C1311   1.422   1_554 S
C338   N347    1.365   .     A
C338   H346    1.082   .     S
C338   C826    1.422   .     S
C339   N347    1.369   .     A
C339   N373    1.429   .     S
C339   C823    1.422   .     S
C340   N348    1.369   .     A
C340   N376    1.429   .     S
C340   C1310   1.422   1_554 S
H341   C383    1.088   .     S
H342   C438    1.088   1_455 S
N347   Zn357   2.013   .     S
N348   Zn358   2.013   .     S
O349   Zn357   1.984   .     S
O350   Zn358   1.984   .     S
O351   Zn358   1.984   .     S
O352   Zn357   1.984   .     S
O353   Zn357   1.966   .     S
O354   Zn358   1.966   .     S
O355   Zn358   1.980   .     S
O356   Zn357   1.980   .     S
C359   H365    1.112   .     S
C359   C360    1.526   .     S
C359   H364    1.110   .     S
C360   H362    1.110   .     S
C360   H361    1.111   .     S
C360   H363    1.110   .     S
C366   H372    1.110   .     S
C366   H371    1.112   .     S
C366   C367    1.526   .     S
C367   H368    1.110   .     S
C367   H369    1.110   .     S
C367   H370    1.111   .     S
N373   H374    1.045   .     S
N373   H375    1.045   .     S
N376   H377    1.045   .     S
N376   H378    1.045   .     S
C379   O403    1.280   .     A
C379   C390    1.407   .     S
C379   O405    1.281   .     A
C380   C389    1.407   .     S
C380   O404    1.280   .     A
C380   O406    1.281   .     A
C381   O409    1.282   .     A
C381   O407    1.278   .     A
C381   C383    1.402   .     S
C382   O410    1.282   .     A
C382   C384    1.402   .     S
C382   O408    1.278   .     A
C384   C437    1.331   .     S
C384   H450    1.088   .     S
C385   C390    1.406   .     A
C385   C413    1.517   .     S
C386   C389    1.406   .     A
C386   C420    1.517   .     S
C386   C64     1.378   1_565 S
C387   C389    1.394   .     A
C387   H397    1.086   .     S
C387   C61     1.378   1_565 S
C388   C390    1.394   .     A
C388   H398    1.086   .     S
C391   H399    1.082   .     S
C391   N402    1.365   .     A
C391   C1365   1.422   1_554 S
C392   N401    1.365   .     A
C392   H400    1.082   .     S
C392   C880    1.422   .     S
C393   N401    1.369   .     A
C393   N427    1.429   .     S
C393   C877    1.422   .     S
C394   N402    1.369   .     A
C394   N430    1.429   .     S
C394   C1364   1.422   1_554 S
H395   C437    1.088   .     S
N401   Zn411   2.013   .     S
N402   Zn412   2.013   .     S
O403   Zn411   1.984   .     S
O404   Zn412   1.984   .     S
O405   Zn412   1.984   .     S
O406   Zn411   1.984   .     S
O407   Zn411   1.966   .     S
O408   Zn412   1.966   .     S
O409   Zn412   1.980   .     S
O410   Zn411   1.980   .     S
C413   H419    1.112   .     S
C413   C414    1.526   .     S
C413   H418    1.110   .     S
C414   H416    1.110   .     S
C414   H415    1.111   .     S
C414   H417    1.110   .     S
C420   H426    1.110   .     S
C420   H425    1.112   .     S
C420   C421    1.526   .     S
C421   H422    1.110   .     S
C421   H423    1.110   .     S
C421   H424    1.111   .     S
N427   H428    1.045   .     S
N427   H429    1.045   .     S
N430   H431    1.045   .     S
N430   H432    1.045   .     S
C433   O457    1.280   .     A
C433   C444    1.407   .     S
C433   O459    1.281   .     A
C434   C443    1.407   .     S
C434   O458    1.280   .     A
C434   O460    1.281   .     A
C435   O463    1.282   .     A
C435   O461    1.278   .     A
C435   C437    1.402   .     S
C436   O464    1.282   .     A
C436   C438    1.402   .     S
C436   O462    1.278   .     A
C438   C329    1.331   1_655 S
C438   H342    1.088   1_655 S
C439   C444    1.406   .     A
C439   C467    1.517   .     S
C440   C443    1.406   .     A
C440   C474    1.517   .     S
C440   C118    1.378   1_565 S
C441   C443    1.394   .     A
C441   H451    1.086   .     S
C441   C115    1.378   1_565 S
C442   C444    1.394   .     A
C442   H452    1.086   .     S
C445   H453    1.082   .     S
C445   N456    1.365   .     A
C445   C1419   1.422   1_554 S
C446   N455    1.365   .     A
C446   H454    1.082   .     S
C446   C934    1.422   .     S
C447   N455    1.369   .     A
C447   N481    1.429   .     S
C447   C931    1.422   .     S
C448   N456    1.369   .     A
C448   N484    1.429   .     S
C448   C1418   1.422   1_554 S
H449   C329    1.088   1_655 S
N455   Zn465   2.013   .     S
N456   Zn466   2.013   .     S
O457   Zn465   1.984   .     S
O458   Zn466   1.984   .     S
O459   Zn466   1.984   .     S
O460   Zn465   1.984   .     S
O461   Zn465   1.966   .     S
O462   Zn466   1.966   .     S
O463   Zn466   1.980   .     S
O464   Zn465   1.980   .     S
C467   H473    1.112   .     S
C467   C468    1.526   .     S
C467   H472    1.110   .     S
C468   H470    1.110   .     S
C468   H469    1.111   .     S
C468   H471    1.110   .     S
C474   H480    1.110   .     S
C474   H479    1.112   .     S
C474   C475    1.526   .     S
C475   H476    1.110   .     S
C475   H477    1.110   .     S
C475   H478    1.111   .     S
N481   H482    1.045   .     S
N481   H483    1.045   .     S
N484   H485    1.045   .     S
N484   H486    1.045   .     S
C487   O511    1.280   .     A
C487   C498    1.407   .     S
C487   O513    1.281   .     A
C488   C497    1.407   .     S
C488   O512    1.280   .     A
C488   O514    1.281   .     A
C489   O517    1.282   .     A
C489   O515    1.278   .     A
C489   C491    1.402   .     S
C490   O518    1.282   .     A
C490   C492    1.402   .     S
C490   O516    1.278   .     A
C491   C600    1.331   1_455 S
C491   H611    1.088   1_455 S
C492   C545    1.331   .     S
C492   H558    1.088   .     S
C493   C498    1.406   .     A
C493   C521    1.517   .     S
C493   C819    1.378   1_545 S
C494   C497    1.406   .     A
C494   C528    1.517   .     S
C494   C658    1.378   .     S
C495   C497    1.394   .     A
C495   H505    1.086   .     S
C495   C655    1.378   .     S
C496   C498    1.394   .     A
C496   H506    1.086   .     S
C496   C818    1.378   1_545 S
C499   H507    1.082   .     S
C499   N510    1.365   .     A
C500   N509    1.365   .     A
C500   H508    1.082   .     S
C500   C988    1.422   .     S
C501   N509    1.369   .     A
C501   N535    1.429   .     S
C501   C985    1.422   .     S
C502   N510    1.369   .     A
C502   N538    1.429   .     S
H503   C545    1.088   .     S
H504   C600    1.088   1_455 S
N509   Zn519   2.013   .     S
N510   Zn520   2.013   .     S
O511   Zn519   1.984   .     S
O512   Zn520   1.984   .     S
O513   Zn520   1.984   .     S
O514   Zn519   1.984   .     S
O515   Zn519   1.966   .     S
O516   Zn520   1.966   .     S
O517   Zn520   1.980   .     S
O518   Zn519   1.980   .     S
C521   H527    1.112   .     S
C521   C522    1.526   .     S
C521   H526    1.110   .     S
C522   H524    1.110   .     S
C522   H523    1.111   .     S
C522   H525    1.110   .     S
C528   H534    1.110   .     S
C528   H533    1.112   .     S
C528   C529    1.526   .     S
C529   H530    1.110   .     S
C529   H531    1.110   .     S
C529   H532    1.111   .     S
N535   H536    1.045   .     S
N535   H537    1.045   .     S
N538   H539    1.045   .     S
N538   H540    1.045   .     S
C541   O565    1.280   .     A
C541   C552    1.407   .     S
C541   O567    1.281   .     A
C542   C551    1.407   .     S
C542   O566    1.280   .     A
C542   O568    1.281   .     A
C543   O571    1.282   .     A
C543   O569    1.278   .     A
C543   C545    1.402   .     S
C544   O572    1.282   .     A
C544   C546    1.402   .     S
C544   O570    1.278   .     A
C546   C599    1.331   .     S
C546   H612    1.088   .     S
C547   C552    1.406   .     A
C547   C575    1.517   .     S
C547   C873    1.378   1_545 S
C548   C551    1.406   .     A
C548   C582    1.517   .     S
C548   C712    1.378   .     S
C549   C551    1.394   .     A
C549   H559    1.086   .     S
C549   C709    1.378   .     S
C550   C552    1.394   .     A
C550   H560    1.086   .     S
C550   C872    1.378   1_545 S
C553   H561    1.082   .     S
C553   N564    1.365   .     A
C554   N563    1.365   .     A
C554   H562    1.082   .     S
C554   C1042   1.422   .     S
C555   N563    1.369   .     A
C555   N589    1.429   .     S
C555   C1039   1.422   .     S
C556   N564    1.369   .     A
C556   N592    1.429   .     S
H557   C599    1.088   .     S
N563   Zn573   2.013   .     S
N564   Zn574   2.013   .     S
O565   Zn573   1.984   .     S
O566   Zn574   1.984   .     S
O567   Zn574   1.984   .     S
O568   Zn573   1.984   .     S
O569   Zn573   1.966   .     S
O570   Zn574   1.966   .     S
O571   Zn574   1.980   .     S
O572   Zn573   1.980   .     S
C575   H581    1.112   .     S
C575   C576    1.526   .     S
C575   H580    1.110   .     S
C576   H578    1.110   .     S
C576   H577    1.111   .     S
C576   H579    1.110   .     S
C582   H588    1.110   .     S
C582   H587    1.112   .     S
C582   C583    1.526   .     S
C583   H584    1.110   .     S
C583   H585    1.110   .     S
C583   H586    1.111   .     S
N589   H590    1.045   .     S
N589   H591    1.045   .     S
N592   H593    1.045   .     S
N592   H594    1.045   .     S
C595   O619    1.280   .     A
C595   C606    1.407   .     S
C595   O621    1.281   .     A
C596   C605    1.407   .     S
C596   O620    1.280   .     A
C596   O622    1.281   .     A
C597   O625    1.282   .     A
C597   O623    1.278   .     A
C597   C599    1.402   .     S
C598   O626    1.282   .     A
C598   C600    1.402   .     S
C598   O624    1.278   .     A
C600   C491    1.331   1_655 S
C600   H504    1.088   1_655 S
C601   C606    1.406   .     A
C601   C629    1.517   .     S
C601   C927    1.378   1_545 S
C602   C605    1.406   .     A
C602   C636    1.517   .     S
C602   C766    1.378   .     S
C603   C605    1.394   .     A
C603   H613    1.086   .     S
C603   C763    1.378   .     S
C604   C606    1.394   .     A
C604   H614    1.086   .     S
C604   C926    1.378   1_545 S
C607   H615    1.082   .     S
C607   N618    1.365   .     A
C608   N617    1.365   .     A
C608   H616    1.082   .     S
C608   C1096   1.422   .     S
C609   N617    1.369   .     A
C609   N643    1.429   .     S
C609   C1093   1.422   .     S
C610   N618    1.369   .     A
C610   N646    1.429   .     S
H611   C491    1.088   1_655 S
N617   Zn627   2.013   .     S
N618   Zn628   2.013   .     S
O619   Zn627   1.984   .     S
O620   Zn628   1.984   .     S
O621   Zn628   1.984   .     S
O622   Zn627   1.984   .     S
O623   Zn627   1.966   .     S
O624   Zn628   1.966   .     S
O625   Zn628   1.980   .     S
O626   Zn627   1.980   .     S
C629   H635    1.112   .     S
C629   C630    1.526   .     S
C629   H634    1.110   .     S
C630   H632    1.110   .     S
C630   H631    1.111   .     S
C630   H633    1.110   .     S
C636   H642    1.110   .     S
C636   H641    1.112   .     S
C636   C637    1.526   .     S
C637   H638    1.110   .     S
C637   H639    1.110   .     S
C637   H640    1.111   .     S
N643   H644    1.045   .     S
N643   H645    1.045   .     S
N646   H647    1.045   .     S
N646   H648    1.045   .     S
C649   O673    1.280   .     A
C649   C660    1.407   .     S
C649   O675    1.281   .     A
C650   C659    1.407   .     S
C650   O674    1.280   .     A
C650   O676    1.281   .     A
C651   O679    1.282   .     A
C651   O677    1.278   .     A
C651   C653    1.402   .     S
C652   O680    1.282   .     A
C652   C654    1.402   .     S
C652   O678    1.278   .     A
C653   C762    1.331   1_455 S
C653   H773    1.088   1_455 S
C654   C707    1.331   .     S
C654   H720    1.088   .     S
C655   C660    1.406   .     A
C655   C683    1.517   .     S
C656   C659    1.406   .     A
C656   C690    1.517   .     S
C656   C820    1.378   .     S
C657   C659    1.394   .     A
C657   H667    1.086   .     S
C657   C817    1.378   .     S
C658   C660    1.394   .     A
C658   H668    1.086   .     S
C661   H669    1.082   .     S
C661   N672    1.365   .     A
C662   N671    1.365   .     A
C662   H670    1.082   .     S
C662   C1150   1.422   .     S
C663   N671    1.369   .     A
C663   N697    1.429   .     S
C663   C1147   1.422   .     S
C664   N672    1.369   .     A
C664   N700    1.429   .     S
H665   C707    1.088   .     S
H666   C762    1.088   1_455 S
N671   Zn681   2.013   .     S
N672   Zn682   2.013   .     S
O673   Zn681   1.984   .     S
O674   Zn682   1.984   .     S
O675   Zn682   1.984   .     S
O676   Zn681   1.984   .     S
O677   Zn681   1.966   .     S
O678   Zn682   1.966   .     S
O679   Zn682   1.980   .     S
O680   Zn681   1.980   .     S
C683   H689    1.112   .     S
C683   C684    1.526   .     S
C683   H688    1.110   .     S
C684   H686    1.110   .     S
C684   H685    1.111   .     S
C684   H687    1.110   .     S
C690   H696    1.110   .     S
C690   H695    1.112   .     S
C690   C691    1.526   .     S
C691   H692    1.110   .     S
C691   H693    1.110   .     S
C691   H694    1.111   .     S
N697   H698    1.045   .     S
N697   H699    1.045   .     S
N700   H701    1.045   .     S
N700   H702    1.045   .     S
C703   O727    1.280   .     A
C703   C714    1.407   .     S
C703   O729    1.281   .     A
C704   C713    1.407   .     S
C704   O728    1.280   .     A
C704   O730    1.281   .     A
C705   O733    1.282   .     A
C705   O731    1.278   .     A
C705   C707    1.402   .     S
C706   O734    1.282   .     A
C706   C708    1.402   .     S
C706   O732    1.278   .     A
C708   C761    1.331   .     S
C708   H774    1.088   .     S
C709   C714    1.406   .     A
C709   C737    1.517   .     S
C710   C713    1.406   .     A
C710   C744    1.517   .     S
C710   C874    1.378   .     S
C711   C713    1.394   .     A
C711   H721    1.086   .     S
C711   C871    1.378   .     S
C712   C714    1.394   .     A
C712   H722    1.086   .     S
C715   H723    1.082   .     S
C715   N726    1.365   .     A
C716   N725    1.365   .     A
C716   H724    1.082   .     S
C716   C1204   1.422   .     S
C717   N725    1.369   .     A
C717   N751    1.429   .     S
C717   C1201   1.422   .     S
C718   N726    1.369   .     A
C718   N754    1.429   .     S
H719   C761    1.088   .     S
N725   Zn735   2.013   .     S
N726   Zn736   2.013   .     S
O727   Zn735   1.984   .     S
O728   Zn736   1.984   .     S
O729   Zn736   1.984   .     S
O730   Zn735   1.984   .     S
O731   Zn735   1.966   .     S
O732   Zn736   1.966   .     S
O733   Zn736   1.980   .     S
O734   Zn735   1.980   .     S
C737   H743    1.112   .     S
C737   C738    1.526   .     S
C737   H742    1.110   .     S
C738   H740    1.110   .     S
C738   H739    1.111   .     S
C738   H741    1.110   .     S
C744   H750    1.110   .     S
C744   H749    1.112   .     S
C744   C745    1.526   .     S
C745   H746    1.110   .     S
C745   H747    1.110   .     S
C745   H748    1.111   .     S
N751   H752    1.045   .     S
N751   H753    1.045   .     S
N754   H755    1.045   .     S
N754   H756    1.045   .     S
C757   O781    1.280   .     A
C757   C768    1.407   .     S
C757   O783    1.281   .     A
C758   C767    1.407   .     S
C758   O782    1.280   .     A
C758   O784    1.281   .     A
C759   O787    1.282   .     A
C759   O785    1.278   .     A
C759   C761    1.402   .     S
C760   O788    1.282   .     A
C760   C762    1.402   .     S
C760   O786    1.278   .     A
C762   C653    1.331   1_655 S
C762   H666    1.088   1_655 S
C763   C768    1.406   .     A
C763   C791    1.517   .     S
C764   C767    1.406   .     A
C764   C798    1.517   .     S
C764   C928    1.378   .     S
C765   C767    1.394   .     A
C765   H775    1.086   .     S
C765   C925    1.378   .     S
C766   C768    1.394   .     A
C766   H776    1.086   .     S
C769   H777    1.082   .     S
C769   N780    1.365   .     A
C770   N779    1.365   .     A
C770   H778    1.082   .     S
C770   C1258   1.422   .     S
C771   N779    1.369   .     A
C771   N805    1.429   .     S
C771   C1255   1.422   .     S
C772   N780    1.369   .     A
C772   N808    1.429   .     S
H773   C653    1.088   1_655 S
N779   Zn789   2.013   .     S
N780   Zn790   2.013   .     S
O781   Zn789   1.984   .     S
O782   Zn790   1.984   .     S
O783   Zn790   1.984   .     S
O784   Zn789   1.984   .     S
O785   Zn789   1.966   .     S
O786   Zn790   1.966   .     S
O787   Zn790   1.980   .     S
O788   Zn789   1.980   .     S
C791   H797    1.112   .     S
C791   C792    1.526   .     S
C791   H796    1.110   .     S
C792   H794    1.110   .     S
C792   H793    1.111   .     S
C792   H795    1.110   .     S
C798   H804    1.110   .     S
C798   H803    1.112   .     S
C798   C799    1.526   .     S
C799   H800    1.110   .     S
C799   H801    1.110   .     S
C799   H802    1.111   .     S
N805   H806    1.045   .     S
N805   H807    1.045   .     S
N808   H809    1.045   .     S
N808   H810    1.045   .     S
C811   O835    1.280   .     A
C811   C822    1.407   .     S
C811   O837    1.281   .     A
C812   C821    1.407   .     S
C812   O836    1.280   .     A
C812   O838    1.281   .     A
C813   O841    1.282   .     A
C813   O839    1.278   .     A
C813   C815    1.402   .     S
C814   O842    1.282   .     A
C814   C816    1.402   .     S
C814   O840    1.278   .     A
C815   C924    1.331   1_455 S
C815   H935    1.088   1_455 S
C816   C869    1.331   .     S
C816   H882    1.088   .     S
C817   C822    1.406   .     A
C817   C845    1.517   .     S
C818   C821    1.406   .     A
C818   C852    1.517   .     S
C818   C496    1.378   1_565 S
C819   C821    1.394   .     A
C819   H829    1.086   .     S
C819   C493    1.378   1_565 S
C820   C822    1.394   .     A
C820   H830    1.086   .     S
C823   H831    1.082   .     S
C823   N834    1.365   .     A
C824   N833    1.365   .     A
C824   H832    1.082   .     S
C824   C1312   1.422   .     S
C825   N833    1.369   .     A
C825   N859    1.429   .     S
C825   C1309   1.422   .     S
C826   N834    1.369   .     A
C826   N862    1.429   .     S
H827   C869    1.088   .     S
H828   C924    1.088   1_455 S
N833   Zn843   2.013   .     S
N834   Zn844   2.013   .     S
O835   Zn843   1.984   .     S
O836   Zn844   1.984   .     S
O837   Zn844   1.984   .     S
O838   Zn843   1.984   .     S
O839   Zn843   1.966   .     S
O840   Zn844   1.966   .     S
O841   Zn844   1.980   .     S
O842   Zn843   1.980   .     S
C845   H851    1.112   .     S
C845   C846    1.526   .     S
C845   H850    1.110   .     S
C846   H848    1.110   .     S
C846   H847    1.111   .     S
C846   H849    1.110   .     S
C852   H858    1.110   .     S
C852   H857    1.112   .     S
C852   C853    1.526   .     S
C853   H854    1.110   .     S
C853   H855    1.110   .     S
C853   H856    1.111   .     S
N859   H860    1.045   .     S
N859   H861    1.045   .     S
N862   H863    1.045   .     S
N862   H864    1.045   .     S
C865   O889    1.280   .     A
C865   C876    1.407   .     S
C865   O891    1.281   .     A
C866   C875    1.407   .     S
C866   O890    1.280   .     A
C866   O892    1.281   .     A
C867   O895    1.282   .     A
C867   O893    1.278   .     A
C867   C869    1.402   .     S
C868   O896    1.282   .     A
C868   C870    1.402   .     S
C868   O894    1.278   .     A
C870   C923    1.331   .     S
C870   H936    1.088   .     S
C871   C876    1.406   .     A
C871   C899    1.517   .     S
C872   C875    1.406   .     A
C872   C906    1.517   .     S
C872   C550    1.378   1_565 S
C873   C875    1.394   .     A
C873   H883    1.086   .     S
C873   C547    1.378   1_565 S
C874   C876    1.394   .     A
C874   H884    1.086   .     S
C877   H885    1.082   .     S
C877   N888    1.365   .     A
C878   N887    1.365   .     A
C878   H886    1.082   .     S
C878   C1366   1.422   .     S
C879   N887    1.369   .     A
C879   N913    1.429   .     S
C879   C1363   1.422   .     S
C880   N888    1.369   .     A
C880   N916    1.429   .     S
H881   C923    1.088   .     S
N887   Zn897   2.013   .     S
N888   Zn898   2.013   .     S
O889   Zn897   1.984   .     S
O890   Zn898   1.984   .     S
O891   Zn898   1.984   .     S
O892   Zn897   1.984   .     S
O893   Zn897   1.966   .     S
O894   Zn898   1.966   .     S
O895   Zn898   1.980   .     S
O896   Zn897   1.980   .     S
C899   H905    1.112   .     S
C899   C900    1.526   .     S
C899   H904    1.110   .     S
C900   H902    1.110   .     S
C900   H901    1.111   .     S
C900   H903    1.110   .     S
C906   H912    1.110   .     S
C906   H911    1.112   .     S
C906   C907    1.526   .     S
C907   H908    1.110   .     S
C907   H909    1.110   .     S
C907   H910    1.111   .     S
N913   H914    1.045   .     S
N913   H915    1.045   .     S
N916   H917    1.045   .     S
N916   H918    1.045   .     S
C919   O943    1.280   .     A
C919   C930    1.407   .     S
C919   O945    1.281   .     A
C920   C929    1.407   .     S
C920   O944    1.280   .     A
C920   O946    1.281   .     A
C921   O949    1.282   .     A
C921   O947    1.278   .     A
C921   C923    1.402   .     S
C922   O950    1.282   .     A
C922   C924    1.402   .     S
C922   O948    1.278   .     A
C924   C815    1.331   1_655 S
C924   H828    1.088   1_655 S
C925   C930    1.406   .     A
C925   C953    1.517   .     S
C926   C929    1.406   .     A
C926   C960    1.517   .     S
C926   C604    1.378   1_565 S
C927   C929    1.394   .     A
C927   H937    1.086   .     S
C927   C601    1.378   1_565 S
C928   C930    1.394   .     A
C928   H938    1.086   .     S
C931   H939    1.082   .     S
C931   N942    1.365   .     A
C932   N941    1.365   .     A
C932   H940    1.082   .     S
C932   C1420   1.422   .     S
C933   N941    1.369   .     A
C933   N967    1.429   .     S
C933   C1417   1.422   .     S
C934   N942    1.369   .     A
C934   N970    1.429   .     S
H935   C815    1.088   1_655 S
N941   Zn951   2.013   .     S
N942   Zn952   2.013   .     S
O943   Zn951   1.984   .     S
O944   Zn952   1.984   .     S
O945   Zn952   1.984   .     S
O946   Zn951   1.984   .     S
O947   Zn951   1.966   .     S
O948   Zn952   1.966   .     S
O949   Zn952   1.980   .     S
O950   Zn951   1.980   .     S
C953   H959    1.112   .     S
C953   C954    1.526   .     S
C953   H958    1.110   .     S
C954   H956    1.110   .     S
C954   H955    1.111   .     S
C954   H957    1.110   .     S
C960   H966    1.110   .     S
C960   H965    1.112   .     S
C960   C961    1.526   .     S
C961   H962    1.110   .     S
C961   H963    1.110   .     S
C961   H964    1.111   .     S
N967   H968    1.045   .     S
N967   H969    1.045   .     S
N970   H971    1.045   .     S
N970   H972    1.045   .     S
C973   O997    1.280   .     A
C973   C984    1.407   .     S
C973   O999    1.281   .     A
C974   C983    1.407   .     S
C974   O998    1.280   .     A
C974   O1000   1.281   .     A
C975   O1003   1.282   .     A
C975   O1001   1.278   .     A
C975   C977    1.402   .     S
C976   O1004   1.282   .     A
C976   C978    1.402   .     S
C976   O1002   1.278   .     A
C977   C1086   1.331   1_455 S
C977   H1097   1.088   1_455 S
C978   C1031   1.331   .     S
C978   H1044   1.088   .     S
C979   C984    1.406   .     A
C979   C1007   1.517   .     S
C979   C1305   1.378   1_545 S
C980   C983    1.406   .     A
C980   C1014   1.517   .     S
C980   C1144   1.378   .     S
C981   C983    1.394   .     A
C981   H991    1.086   .     S
C981   C1141   1.378   .     S
C982   C984    1.394   .     A
C982   H992    1.086   .     S
C982   C1304   1.378   1_545 S
C985   H993    1.082   .     S
C985   N996    1.365   .     A
C986   N995    1.365   .     A
C986   H994    1.082   .     S
C986   C16     1.422   1_556 S
C987   N995    1.369   .     A
C987   N1021   1.429   .     S
C987   C13     1.422   1_556 S
C988   N996    1.369   .     A
C988   N1024   1.429   .     S
H989   C1031   1.088   .     S
H990   C1086   1.088   1_455 S
N995   Zn1005  2.013   .     S
N996   Zn1006  2.013   .     S
O997   Zn1005  1.984   .     S
O998   Zn1006  1.984   .     S
O999   Zn1006  1.984   .     S
O1000  Zn1005  1.984   .     S
O1001  Zn1005  1.966   .     S
O1002  Zn1006  1.966   .     S
O1003  Zn1006  1.980   .     S
O1004  Zn1005  1.980   .     S
C1007  H1013   1.112   .     S
C1007  C1008   1.526   .     S
C1007  H1012   1.110   .     S
C1008  H1010   1.110   .     S
C1008  H1009   1.111   .     S
C1008  H1011   1.110   .     S
C1014  H1020   1.110   .     S
C1014  H1019   1.112   .     S
C1014  C1015   1.526   .     S
C1015  H1016   1.110   .     S
C1015  H1017   1.110   .     S
C1015  H1018   1.111   .     S
N1021  H1022   1.045   .     S
N1021  H1023   1.045   .     S
N1024  H1025   1.045   .     S
N1024  H1026   1.045   .     S
C1027  O1051   1.280   .     A
C1027  C1038   1.407   .     S
C1027  O1053   1.281   .     A
C1028  C1037   1.407   .     S
C1028  O1052   1.280   .     A
C1028  O1054   1.281   .     A
C1029  O1057   1.282   .     A
C1029  O1055   1.278   .     A
C1029  C1031   1.402   .     S
C1030  O1058   1.282   .     A
C1030  C1032   1.402   .     S
C1030  O1056   1.278   .     A
C1032  C1085   1.331   .     S
C1032  H1098   1.088   .     S
C1033  C1038   1.406   .     A
C1033  C1061   1.517   .     S
C1033  C1359   1.378   1_545 S
C1034  C1037   1.406   .     A
C1034  C1068   1.517   .     S
C1034  C1198   1.378   .     S
C1035  C1037   1.394   .     A
C1035  H1045   1.086   .     S
C1035  C1195   1.378   .     S
C1036  C1038   1.394   .     A
C1036  H1046   1.086   .     S
C1036  C1358   1.378   1_545 S
C1039  H1047   1.082   .     S
C1039  N1050   1.365   .     A
C1040  N1049   1.365   .     A
C1040  H1048   1.082   .     S
C1040  C70     1.422   1_556 S
C1041  N1049   1.369   .     A
C1041  N1075   1.429   .     S
C1041  C67     1.422   1_556 S
C1042  N1050   1.369   .     A
C1042  N1078   1.429   .     S
H1043  C1085   1.088   .     S
N1049  Zn1059  2.013   .     S
N1050  Zn1060  2.013   .     S
O1051  Zn1059  1.984   .     S
O1052  Zn1060  1.984   .     S
O1053  Zn1060  1.984   .     S
O1054  Zn1059  1.984   .     S
O1055  Zn1059  1.966   .     S
O1056  Zn1060  1.966   .     S
O1057  Zn1060  1.980   .     S
O1058  Zn1059  1.980   .     S
C1061  H1067   1.112   .     S
C1061  C1062   1.526   .     S
C1061  H1066   1.110   .     S
C1062  H1064   1.110   .     S
C1062  H1063   1.111   .     S
C1062  H1065   1.110   .     S
C1068  H1074   1.110   .     S
C1068  H1073   1.112   .     S
C1068  C1069   1.526   .     S
C1069  H1070   1.110   .     S
C1069  H1071   1.110   .     S
C1069  H1072   1.111   .     S
N1075  H1076   1.045   .     S
N1075  H1077   1.045   .     S
N1078  H1079   1.045   .     S
N1078  H1080   1.045   .     S
C1081  O1105   1.280   .     A
C1081  C1092   1.407   .     S
C1081  O1107   1.281   .     A
C1082  C1091   1.407   .     S
C1082  O1106   1.280   .     A
C1082  O1108   1.281   .     A
C1083  O1111   1.282   .     A
C1083  O1109   1.278   .     A
C1083  C1085   1.402   .     S
C1084  O1112   1.282   .     A
C1084  C1086   1.402   .     S
C1084  O1110   1.278   .     A
C1086  C977    1.331   1_655 S
C1086  H990    1.088   1_655 S
C1087  C1092   1.406   .     A
C1087  C1115   1.517   .     S
C1087  C1413   1.378   1_545 S
C1088  C1091   1.406   .     A
C1088  C1122   1.517   .     S
C1088  C1252   1.378   .     S
C1089  C1091   1.394   .     A
C1089  H1099   1.086   .     S
C1089  C1249   1.378   .     S
C1090  C1092   1.394   .     A
C1090  H1100   1.086   .     S
C1090  C1412   1.378   1_545 S
C1093  H1101   1.082   .     S
C1093  N1104   1.365   .     A
C1094  N1103   1.365   .     A
C1094  H1102   1.082   .     S
C1094  C124    1.422   1_556 S
C1095  N1103   1.369   .     A
C1095  N1129   1.429   .     S
C1095  C121    1.422   1_556 S
C1096  N1104   1.369   .     A
C1096  N1132   1.429   .     S
H1097  C977    1.088   1_655 S
N1103  Zn1113  2.013   .     S
N1104  Zn1114  2.013   .     S
O1105  Zn1113  1.984   .     S
O1106  Zn1114  1.984   .     S
O1107  Zn1114  1.984   .     S
O1108  Zn1113  1.984   .     S
O1109  Zn1113  1.966   .     S
O1110  Zn1114  1.966   .     S
O1111  Zn1114  1.980   .     S
O1112  Zn1113  1.980   .     S
C1115  H1121   1.112   .     S
C1115  C1116   1.526   .     S
C1115  H1120   1.110   .     S
C1116  H1118   1.110   .     S
C1116  H1117   1.111   .     S
C1116  H1119   1.110   .     S
C1122  H1128   1.110   .     S
C1122  H1127   1.112   .     S
C1122  C1123   1.526   .     S
C1123  H1124   1.110   .     S
C1123  H1125   1.110   .     S
C1123  H1126   1.111   .     S
N1129  H1130   1.045   .     S
N1129  H1131   1.045   .     S
N1132  H1133   1.045   .     S
N1132  H1134   1.045   .     S
C1135  O1159   1.280   .     A
C1135  C1146   1.407   .     S
C1135  O1161   1.281   .     A
C1136  C1145   1.407   .     S
C1136  O1160   1.280   .     A
C1136  O1162   1.281   .     A
C1137  O1165   1.282   .     A
C1137  O1163   1.278   .     A
C1137  C1139   1.402   .     S
C1138  O1166   1.282   .     A
C1138  C1140   1.402   .     S
C1138  O1164   1.278   .     A
C1139  C1248   1.331   1_455 S
C1139  H1259   1.088   1_455 S
C1140  C1193   1.331   .     S
C1140  H1206   1.088   .     S
C1141  C1146   1.406   .     A
C1141  C1169   1.517   .     S
C1142  C1145   1.406   .     A
C1142  C1176   1.517   .     S
C1142  C1306   1.378   .     S
C1143  C1145   1.394   .     A
C1143  H1153   1.086   .     S
C1143  C1303   1.378   .     S
C1144  C1146   1.394   .     A
C1144  H1154   1.086   .     S
C1147  H1155   1.082   .     S
C1147  N1158   1.365   .     A
C1148  N1157   1.365   .     A
C1148  H1156   1.082   .     S
C1148  C178    1.422   1_556 S
C1149  N1157   1.369   .     A
C1149  N1183   1.429   .     S
C1149  C175    1.422   1_556 S
C1150  N1158   1.369   .     A
C1150  N1186   1.429   .     S
H1151  C1193   1.088   .     S
H1152  C1248   1.088   1_455 S
N1157  Zn1167  2.013   .     S
N1158  Zn1168  2.013   .     S
O1159  Zn1167  1.984   .     S
O1160  Zn1168  1.984   .     S
O1161  Zn1168  1.984   .     S
O1162  Zn1167  1.984   .     S
O1163  Zn1167  1.966   .     S
O1164  Zn1168  1.966   .     S
O1165  Zn1168  1.980   .     S
O1166  Zn1167  1.980   .     S
C1169  H1175   1.112   .     S
C1169  C1170   1.526   .     S
C1169  H1174   1.110   .     S
C1170  H1172   1.110   .     S
C1170  H1171   1.111   .     S
C1170  H1173   1.110   .     S
C1176  H1182   1.110   .     S
C1176  H1181   1.112   .     S
C1176  C1177   1.526   .     S
C1177  H1178   1.110   .     S
C1177  H1179   1.110   .     S
C1177  H1180   1.111   .     S
N1183  H1184   1.045   .     S
N1183  H1185   1.045   .     S
N1186  H1187   1.045   .     S
N1186  H1188   1.045   .     S
C1189  O1213   1.280   .     A
C1189  C1200   1.407   .     S
C1189  O1215   1.281   .     A
C1190  C1199   1.407   .     S
C1190  O1214   1.280   .     A
C1190  O1216   1.281   .     A
C1191  O1219   1.282   .     A
C1191  O1217   1.278   .     A
C1191  C1193   1.402   .     S
C1192  O1220   1.282   .     A
C1192  C1194   1.402   .     S
C1192  O1218   1.278   .     A
C1194  C1247   1.331   .     S
C1194  H1260   1.088   .     S
C1195  C1200   1.406   .     A
C1195  C1223   1.517   .     S
C1196  C1199   1.406   .     A
C1196  C1230   1.517   .     S
C1196  C1360   1.378   .     S
C1197  C1199   1.394   .     A
C1197  H1207   1.086   .     S
C1197  C1357   1.378   .     S
C1198  C1200   1.394   .     A
C1198  H1208   1.086   .     S
C1201  H1209   1.082   .     S
C1201  N1212   1.365   .     A
C1202  N1211   1.365   .     A
C1202  H1210   1.082   .     S
C1202  C232    1.422   1_556 S
C1203  N1211   1.369   .     A
C1203  N1237   1.429   .     S
C1203  C229    1.422   1_556 S
C1204  N1212   1.369   .     A
C1204  N1240   1.429   .     S
H1205  C1247   1.088   .     S
N1211  Zn1221  2.013   .     S
N1212  Zn1222  2.013   .     S
O1213  Zn1221  1.984   .     S
O1214  Zn1222  1.984   .     S
O1215  Zn1222  1.984   .     S
O1216  Zn1221  1.984   .     S
O1217  Zn1221  1.966   .     S
O1218  Zn1222  1.966   .     S
O1219  Zn1222  1.980   .     S
O1220  Zn1221  1.980   .     S
C1223  H1229   1.112   .     S
C1223  C1224   1.526   .     S
C1223  H1228   1.110   .     S
C1224  H1226   1.110   .     S
C1224  H1225   1.111   .     S
C1224  H1227   1.110   .     S
C1230  H1236   1.110   .     S
C1230  H1235   1.112   .     S
C1230  C1231   1.526   .     S
C1231  H1232   1.110   .     S
C1231  H1233   1.110   .     S
C1231  H1234   1.111   .     S
N1237  H1238   1.045   .     S
N1237  H1239   1.045   .     S
N1240  H1241   1.045   .     S
N1240  H1242   1.045   .     S
C1243  O1267   1.280   .     A
C1243  C1254   1.407   .     S
C1243  O1269   1.281   .     A
C1244  C1253   1.407   .     S
C1244  O1268   1.280   .     A
C1244  O1270   1.281   .     A
C1245  O1273   1.282   .     A
C1245  O1271   1.278   .     A
C1245  C1247   1.402   .     S
C1246  O1274   1.282   .     A
C1246  C1248   1.402   .     S
C1246  O1272   1.278   .     A
C1248  C1139   1.331   1_655 S
C1248  H1152   1.088   1_655 S
C1249  C1254   1.406   .     A
C1249  C1277   1.517   .     S
C1250  C1253   1.406   .     A
C1250  C1284   1.517   .     S
C1250  C1414   1.378   .     S
C1251  C1253   1.394   .     A
C1251  H1261   1.086   .     S
C1251  C1411   1.378   .     S
C1252  C1254   1.394   .     A
C1252  H1262   1.086   .     S
C1255  H1263   1.082   .     S
C1255  N1266   1.365   .     A
C1256  N1265   1.365   .     A
C1256  H1264   1.082   .     S
C1256  C286    1.422   1_556 S
C1257  N1265   1.369   .     A
C1257  N1291   1.429   .     S
C1257  C283    1.422   1_556 S
C1258  N1266   1.369   .     A
C1258  N1294   1.429   .     S
H1259  C1139   1.088   1_655 S
N1265  Zn1275  2.013   .     S
N1266  Zn1276  2.013   .     S
O1267  Zn1275  1.984   .     S
O1268  Zn1276  1.984   .     S
O1269  Zn1276  1.984   .     S
O1270  Zn1275  1.984   .     S
O1271  Zn1275  1.966   .     S
O1272  Zn1276  1.966   .     S
O1273  Zn1276  1.980   .     S
O1274  Zn1275  1.980   .     S
C1277  H1283   1.112   .     S
C1277  C1278   1.526   .     S
C1277  H1282   1.110   .     S
C1278  H1280   1.110   .     S
C1278  H1279   1.111   .     S
C1278  H1281   1.110   .     S
C1284  H1290   1.110   .     S
C1284  H1289   1.112   .     S
C1284  C1285   1.526   .     S
C1285  H1286   1.110   .     S
C1285  H1287   1.110   .     S
C1285  H1288   1.111   .     S
N1291  H1292   1.045   .     S
N1291  H1293   1.045   .     S
N1294  H1295   1.045   .     S
N1294  H1296   1.045   .     S
C1297  O1321   1.280   .     A
C1297  C1308   1.407   .     S
C1297  O1323   1.281   .     A
C1298  C1307   1.407   .     S
C1298  O1322   1.280   .     A
C1298  O1324   1.281   .     A
C1299  O1327   1.282   .     A
C1299  O1325   1.278   .     A
C1299  C1301   1.402   .     S
C1300  O1328   1.282   .     A
C1300  C1302   1.402   .     S
C1300  O1326   1.278   .     A
C1301  C1410   1.331   1_455 S
C1301  H1421   1.088   1_455 S
C1302  C1355   1.331   .     S
C1302  H1368   1.088   .     S
C1303  C1308   1.406   .     A
C1303  C1331   1.517   .     S
C1304  C1307   1.406   .     A
C1304  C1338   1.517   .     S
C1304  C982    1.378   1_565 S
C1305  C1307   1.394   .     A
C1305  H1315   1.086   .     S
C1305  C979    1.378   1_565 S
C1306  C1308   1.394   .     A
C1306  H1316   1.086   .     S
C1309  H1317   1.082   .     S
C1309  N1320   1.365   .     A
C1310  N1319   1.365   .     A
C1310  H1318   1.082   .     S
C1310  C340    1.422   1_556 S
C1311  N1319   1.369   .     A
C1311  N1345   1.429   .     S
C1311  C337    1.422   1_556 S
C1312  N1320   1.369   .     A
C1312  N1348   1.429   .     S
H1313  C1355   1.088   .     S
H1314  C1410   1.088   1_455 S
N1319  Zn1329  2.013   .     S
N1320  Zn1330  2.013   .     S
O1321  Zn1329  1.984   .     S
O1322  Zn1330  1.984   .     S
O1323  Zn1330  1.984   .     S
O1324  Zn1329  1.984   .     S
O1325  Zn1329  1.966   .     S
O1326  Zn1330  1.966   .     S
O1327  Zn1330  1.980   .     S
O1328  Zn1329  1.980   .     S
C1331  H1337   1.112   .     S
C1331  C1332   1.526   .     S
C1331  H1336   1.110   .     S
C1332  H1334   1.110   .     S
C1332  H1333   1.111   .     S
C1332  H1335   1.110   .     S
C1338  H1344   1.110   .     S
C1338  H1343   1.112   .     S
C1338  C1339   1.526   .     S
C1339  H1340   1.110   .     S
C1339  H1341   1.110   .     S
C1339  H1342   1.111   .     S
N1345  H1346   1.045   .     S
N1345  H1347   1.045   .     S
N1348  H1349   1.045   .     S
N1348  H1350   1.045   .     S
C1351  O1375   1.280   .     A
C1351  C1362   1.407   .     S
C1351  O1377   1.281   .     A
C1352  C1361   1.407   .     S
C1352  O1376   1.280   .     A
C1352  O1378   1.281   .     A
C1353  O1381   1.282   .     A
C1353  O1379   1.278   .     A
C1353  C1355   1.402   .     S
C1354  O1382   1.282   .     A
C1354  C1356   1.402   .     S
C1354  O1380   1.278   .     A
C1356  C1409   1.331   .     S
C1356  H1422   1.088   .     S
C1357  C1362   1.406   .     A
C1357  C1385   1.517   .     S
C1358  C1361   1.406   .     A
C1358  C1392   1.517   .     S
C1358  C1036   1.378   1_565 S
C1359  C1361   1.394   .     A
C1359  H1369   1.086   .     S
C1359  C1033   1.378   1_565 S
C1360  C1362   1.394   .     A
C1360  H1370   1.086   .     S
C1363  H1371   1.082   .     S
C1363  N1374   1.365   .     A
C1364  N1373   1.365   .     A
C1364  H1372   1.082   .     S
C1364  C394    1.422   1_556 S
C1365  N1373   1.369   .     A
C1365  N1399   1.429   .     S
C1365  C391    1.422   1_556 S
C1366  N1374   1.369   .     A
C1366  N1402   1.429   .     S
H1367  C1409   1.088   .     S
N1373  Zn1383  2.013   .     S
N1374  Zn1384  2.013   .     S
O1375  Zn1383  1.984   .     S
O1376  Zn1384  1.984   .     S
O1377  Zn1384  1.984   .     S
O1378  Zn1383  1.984   .     S
O1379  Zn1383  1.966   .     S
O1380  Zn1384  1.966   .     S
O1381  Zn1384  1.980   .     S
O1382  Zn1383  1.980   .     S
C1385  H1391   1.112   .     S
C1385  C1386   1.526   .     S
C1385  H1390   1.110   .     S
C1386  H1388   1.110   .     S
C1386  H1387   1.111   .     S
C1386  H1389   1.110   .     S
C1392  H1398   1.110   .     S
C1392  H1397   1.112   .     S
C1392  C1393   1.526   .     S
C1393  H1394   1.110   .     S
C1393  H1395   1.110   .     S
C1393  H1396   1.111   .     S
N1399  H1400   1.045   .     S
N1399  H1401   1.045   .     S
N1402  H1403   1.045   .     S
N1402  H1404   1.045   .     S
C1405  O1429   1.280   .     A
C1405  C1416   1.407   .     S
C1405  O1431   1.281   .     A
C1406  C1415   1.407   .     S
C1406  O1430   1.280   .     A
C1406  O1432   1.281   .     A
C1407  O1435   1.282   .     A
C1407  O1433   1.278   .     A
C1407  C1409   1.402   .     S
C1408  O1436   1.282   .     A
C1408  C1410   1.402   .     S
C1408  O1434   1.278   .     A
C1410  C1301   1.331   1_655 S
C1410  H1314   1.088   1_655 S
C1411  C1416   1.406   .     A
C1411  C1439   1.517   .     S
C1412  C1415   1.406   .     A
C1412  C1446   1.517   .     S
C1412  C1090   1.378   1_565 S
C1413  C1415   1.394   .     A
C1413  H1423   1.086   .     S
C1413  C1087   1.378   1_565 S
C1414  C1416   1.394   .     A
C1414  H1424   1.086   .     S
C1417  H1425   1.082   .     S
C1417  N1428   1.365   .     A
C1418  N1427   1.365   .     A
C1418  H1426   1.082   .     S
C1418  C448    1.422   1_556 S
C1419  N1427   1.369   .     A
C1419  N1453   1.429   .     S
C1419  C445    1.422   1_556 S
C1420  N1428   1.369   .     A
C1420  N1456   1.429   .     S
H1421  C1301   1.088   1_655 S
N1427  Zn1437  2.013   .     S
N1428  Zn1438  2.013   .     S
O1429  Zn1437  1.984   .     S
O1430  Zn1438  1.984   .     S
O1431  Zn1438  1.984   .     S
O1432  Zn1437  1.984   .     S
O1433  Zn1437  1.966   .     S
O1434  Zn1438  1.966   .     S
O1435  Zn1438  1.980   .     S
O1436  Zn1437  1.980   .     S
C1439  H1445   1.112   .     S
C1439  C1440   1.526   .     S
C1439  H1444   1.110   .     S
C1440  H1442   1.110   .     S
C1440  H1441   1.111   .     S
C1440  H1443   1.110   .     S
C1446  H1452   1.110   .     S
C1446  H1451   1.112   .     S
C1446  C1447   1.526   .     S
C1447  H1448   1.110   .     S
C1447  H1449   1.110   .     S
C1447  H1450   1.111   .     S
N1453  H1454   1.045   .     S
N1453  H1455   1.045   .     S
N1456  H1457   1.045   .     S
N1456  H1458   1.045   .     S
