data_str_m3_o2_o10_pcu_sym.152
_audit_creation_date              2020-01-03
_audit_creation_method            'Materials Studio'
_symmetry_space_group_name_H-M    'P1'
_symmetry_Int_Tables_number       1
_symmetry_cell_setting            triclinic
loop_
_symmetry_equiv_pos_as_xyz
  x,y,z
_cell_length_a                    25.6941
_cell_length_b                    30.0006
_cell_length_c                    28.3436
_cell_angle_alpha                 89.7358
_cell_angle_beta                  98.4372
_cell_angle_gamma                 89.9389
loop_
_atom_site_label
_atom_site_type_symbol
_atom_site_fract_x
_atom_site_fract_y
_atom_site_fract_z
_atom_site_U_iso_or_equiv
_atom_site_adp_type
_atom_site_occupancy
C1     C     0.16913   0.16387   0.25047   0.00000  Uiso   1.00
C2     C     0.16606   0.33594   0.24985   0.00000  Uiso   1.00
C3     C     0.12341   0.23302   0.04729   0.00000  Uiso   1.00
C4     C     0.16989   0.28783   0.44894   0.00000  Uiso   1.00
C5     C     0.12404   0.23426   0.09686   0.00000  Uiso   1.00
C6     C     0.17091   0.28848   0.39945   0.00000  Uiso   1.00
C7     C     0.20957   0.26484   0.10762   0.00000  Uiso   1.00
C8     C     0.16103   0.21032   0.39600   0.00000  Uiso   1.00
C9     C     0.21141   0.26358   0.05791   0.00000  Uiso   1.00
C10    C     0.16000   0.20777   0.44552   0.00000  Uiso   1.00
C11    C     0.16718   0.24722   0.02674   0.00000  Uiso   1.00
C12    C     0.16481   0.24731   0.47312   0.00000  Uiso   1.00
C13    C     0.06703   0.24940   0.23757   0.00000  Uiso   1.00
C14    C     0.26628   0.24875   0.26241   0.00000  Uiso   1.00
C15    C     0.01203   0.24838   0.23078   0.00000  Uiso   1.00
C16    C     0.32127   0.24647   0.26909   0.00000  Uiso   1.00
C17    C     0.16674   0.04732   0.29436   0.00000  Uiso   1.00
C18    C     0.21514   0.44979   0.23457   0.00000  Uiso   1.00
C19    C     0.16194   0.09300   0.29160   0.00000  Uiso   1.00
C20    C     0.20858   0.40424   0.23062   0.00000  Uiso   1.00
C21    C     0.17600   0.11596   0.25229   0.00000  Uiso   1.00
C22    C     0.16801   0.38359   0.25022   0.00000  Uiso   1.00
C23    C     0.19804   0.09282   0.21671   0.00000  Uiso   1.00
C24    C     0.13256   0.40847   0.27287   0.00000  Uiso   1.00
C25    C     0.19943   0.04661   0.21821   0.00000  Uiso   1.00
C26    C     0.13785   0.45438   0.27457   0.00000  Uiso   1.00
C27    C     0.18292   0.02368   0.25659   0.00000  Uiso   1.00
C28    C     0.17933   0.47523   0.25594   0.00000  Uiso   1.00
H29    H     0.32484   0.25024   0.19441   0.00000  Uiso   1.00
H30    H     0.00848   0.24466   0.30546   0.00000  Uiso   1.00
H31    H     0.15626   0.03048   0.32550   0.00000  Uiso   1.00
H32    H     0.24819   0.46490   0.22093   0.00000  Uiso   1.00
H33    H     0.14671   0.11027   0.32017   0.00000  Uiso   1.00
H34    H     0.23606   0.38493   0.21346   0.00000  Uiso   1.00
H35    H     0.21293   0.02888   0.18908   0.00000  Uiso   1.00
H36    H     0.10862   0.47372   0.28949   0.00000  Uiso   1.00
H37    H     0.08837   0.22152   0.02511   0.00000  Uiso   1.00
H38    H     0.17364   0.31890   0.46844   0.00000  Uiso   1.00
H39    H     0.09013   0.22260   0.11183   0.00000  Uiso   1.00
H40    H     0.17527   0.31992   0.38173   0.00000  Uiso   1.00
H41    H     0.24314   0.27694   0.13163   0.00000  Uiso   1.00
H42    H     0.15756   0.18006   0.37528   0.00000  Uiso   1.00
N43    N     0.16667   0.24999   0.12624   0.00000  Uiso   1.00
N44    N     0.16667   0.25001   0.37377   0.00000  Uiso   1.00
O45    O     0.16667   0.18453   0.28974   0.00000  Uiso   1.00
O46    O     0.16666   0.31546   0.21026   0.00000  Uiso   1.00
O47    O     0.16667   0.18453   0.21026   0.00000  Uiso   1.00
O48    O     0.16666   0.31547   0.28974   0.00000  Uiso   1.00
O49    O     0.09058   0.25000   0.28045   0.00000  Uiso   1.00
O50    O     0.24275   0.25000   0.21956   0.00000  Uiso   1.00
O51    O     0.09058   0.24999   0.20097   0.00000  Uiso   1.00
O52    O     0.24275   0.25000   0.29904   0.00000  Uiso   1.00
Zn53   Zn    0.16667   0.25000   0.30307   0.00000  Uiso   1.00
Zn54   Zn    0.16667   0.24999   0.19693   0.00000  Uiso   1.00
C55    C     0.22365   0.11586   0.18015   0.00000  Uiso   1.00
C56    C     0.19597   0.12405   0.13453   0.00000  Uiso   1.00
C57    C     0.21988   0.14793   0.10114   0.00000  Uiso   1.00
C58    C     0.27178   0.16266   0.11252   0.00000  Uiso   1.00
C59    C     0.29971   0.15411   0.15775   0.00000  Uiso   1.00
C60    C     0.27563   0.13106   0.19168   0.00000  Uiso   1.00
H61    H     0.15563   0.11304   0.12535   0.00000  Uiso   1.00
H62    H     0.19782   0.15564   0.06674   0.00000  Uiso   1.00
H63    H     0.29016   0.18102   0.08646   0.00000  Uiso   1.00
H64    H     0.00651   0.16566   0.16665   0.00000  Uiso   1.00
H65    H     0.29732   0.12518   0.22691   0.00000  Uiso   1.00
C66    C     0.08870   0.38778   0.29340   0.00000  Uiso   1.00
C67    C     0.04493   0.37097   0.26341   0.00000  Uiso   1.00
C68    C     0.00252   0.35324   0.28295   0.00000  Uiso   1.00
C69    C     0.00398   0.35131   0.33240   0.00000  Uiso   1.00
C70    C     0.04768   0.36772   0.36246   0.00000  Uiso   1.00
C71    C     0.08977   0.38631   0.34305   0.00000  Uiso   1.00
H72    H     0.04340   0.37213   0.22503   0.00000  Uiso   1.00
H73    H     0.30199   0.34069   0.25974   0.00000  Uiso   1.00
H74    H     0.30457   0.33715   0.34737   0.00000  Uiso   1.00
H75    H     0.04881   0.36625   0.40076   0.00000  Uiso   1.00
H76    H     0.12324   0.39935   0.36661   0.00000  Uiso   1.00
C77    C     0.25992   0.27888   0.03991   0.00000  Uiso   1.00
C78    C     0.28418   0.25226   0.00864   0.00000  Uiso   1.00
C79    C     0.32866   0.26755   0.49050   0.00000  Uiso   1.00
C80    C     0.01703   0.30893   0.00446   0.00000  Uiso   1.00
C81    C     0.32735   0.33522   0.03637   0.00000  Uiso   1.00
C82    C     0.28229   0.32037   0.05400   0.00000  Uiso   1.00
H83    H     0.26867   0.21972   0.49825   0.00000  Uiso   1.00
H84    H     0.01321   0.24715   0.46584   0.00000  Uiso   1.00
H85    H     0.05176   0.32054   0.49067   0.00000  Uiso   1.00
H86    H     0.01090   0.36726   0.04724   0.00000  Uiso   1.00
H87    H     0.26447   0.34149   0.07811   0.00000  Uiso   1.00
C88    C     0.15716   0.16304   0.46682   0.00000  Uiso   1.00
C89    C     0.20204   0.13567   0.47367   0.00000  Uiso   1.00
C90    C     0.19907   0.09243   0.49171   0.00000  Uiso   1.00
C91    C     0.15123   0.07614   0.00251   0.00000  Uiso   1.00
C92    C     0.10611   0.10279   0.49449   0.00000  Uiso   1.00
C93    C     0.10885   0.14590   0.47607   0.00000  Uiso   1.00
H94    H     0.23922   0.14777   0.46507   0.00000  Uiso   1.00
H95    H     0.23386   0.07161   0.49741   0.00000  Uiso   1.00
H96    H     0.14901   0.04274   0.01664   0.00000  Uiso   1.00
H97    H     0.06889   0.08988   0.00208   0.00000  Uiso   1.00
H98    H     0.07328   0.16564   0.46851   0.00000  Uiso   1.00
C99    C     0.50246   0.16387   0.25047   0.00000  Uiso   1.00
C100   C     0.49939   0.33594   0.24985   0.00000  Uiso   1.00
C101   C     0.45674   0.23302   0.04729   0.00000  Uiso   1.00
C102   C     0.50323   0.28783   0.44894   0.00000  Uiso   1.00
C103   C     0.45737   0.23426   0.09686   0.00000  Uiso   1.00
C104   C     0.50424   0.28848   0.39945   0.00000  Uiso   1.00
C105   C     0.54290   0.26484   0.10762   0.00000  Uiso   1.00
C106   C     0.49436   0.21032   0.39600   0.00000  Uiso   1.00
C107   C     0.54474   0.26358   0.05791   0.00000  Uiso   1.00
C108   C     0.49333   0.20777   0.44552   0.00000  Uiso   1.00
C109   C     0.50052   0.24722   0.02674   0.00000  Uiso   1.00
C110   C     0.49814   0.24731   0.47312   0.00000  Uiso   1.00
C111   C     0.40036   0.24940   0.23757   0.00000  Uiso   1.00
C112   C     0.59962   0.24875   0.26241   0.00000  Uiso   1.00
C113   C     0.34536   0.24838   0.23078   0.00000  Uiso   1.00
C114   C     0.65460   0.24647   0.26909   0.00000  Uiso   1.00
C115   C     0.50007   0.04732   0.29436   0.00000  Uiso   1.00
C116   C     0.54848   0.44979   0.23457   0.00000  Uiso   1.00
C117   C     0.49527   0.09300   0.29160   0.00000  Uiso   1.00
C118   C     0.54191   0.40424   0.23062   0.00000  Uiso   1.00
C119   C     0.50934   0.11596   0.25229   0.00000  Uiso   1.00
C120   C     0.50134   0.38359   0.25022   0.00000  Uiso   1.00
C121   C     0.53137   0.09282   0.21671   0.00000  Uiso   1.00
C122   C     0.46589   0.40847   0.27287   0.00000  Uiso   1.00
C123   C     0.53276   0.04661   0.21821   0.00000  Uiso   1.00
C124   C     0.47118   0.45438   0.27457   0.00000  Uiso   1.00
C125   C     0.51626   0.02368   0.25659   0.00000  Uiso   1.00
C126   C     0.51267   0.47523   0.25594   0.00000  Uiso   1.00
H127   H     0.65818   0.25024   0.19441   0.00000  Uiso   1.00
H128   H     0.34181   0.24466   0.30546   0.00000  Uiso   1.00
H129   H     0.48959   0.03048   0.32550   0.00000  Uiso   1.00
H130   H     0.58152   0.46490   0.22093   0.00000  Uiso   1.00
H131   H     0.48004   0.11027   0.32017   0.00000  Uiso   1.00
H132   H     0.56939   0.38493   0.21346   0.00000  Uiso   1.00
H133   H     0.54627   0.02888   0.18908   0.00000  Uiso   1.00
H134   H     0.44195   0.47372   0.28949   0.00000  Uiso   1.00
H135   H     0.42170   0.22152   0.02511   0.00000  Uiso   1.00
H136   H     0.50698   0.31890   0.46844   0.00000  Uiso   1.00
H137   H     0.42346   0.22260   0.11183   0.00000  Uiso   1.00
H138   H     0.50860   0.31992   0.38173   0.00000  Uiso   1.00
H139   H     0.57648   0.27694   0.13163   0.00000  Uiso   1.00
H140   H     0.49089   0.18006   0.37528   0.00000  Uiso   1.00
N141   N     0.50000   0.24999   0.12624   0.00000  Uiso   1.00
N142   N     0.50000   0.25001   0.37377   0.00000  Uiso   1.00
O143   O     0.50000   0.18453   0.28974   0.00000  Uiso   1.00
O144   O     0.50000   0.31546   0.21026   0.00000  Uiso   1.00
O145   O     0.50000   0.18453   0.21026   0.00000  Uiso   1.00
O146   O     0.50000   0.31547   0.28974   0.00000  Uiso   1.00
O147   O     0.42392   0.25000   0.28045   0.00000  Uiso   1.00
O148   O     0.57608   0.25000   0.21956   0.00000  Uiso   1.00
O149   O     0.42392   0.24999   0.20097   0.00000  Uiso   1.00
O150   O     0.57608   0.25000   0.29904   0.00000  Uiso   1.00
Zn151  Zn    0.50000   0.25000   0.30307   0.00000  Uiso   1.00
Zn152  Zn    0.50000   0.24999   0.19693   0.00000  Uiso   1.00
C153   C     0.55699   0.11586   0.18015   0.00000  Uiso   1.00
C154   C     0.52930   0.12405   0.13453   0.00000  Uiso   1.00
C155   C     0.55321   0.14793   0.10114   0.00000  Uiso   1.00
C156   C     0.60511   0.16266   0.11252   0.00000  Uiso   1.00
C157   C     0.63305   0.15411   0.15775   0.00000  Uiso   1.00
C158   C     0.60897   0.13106   0.19168   0.00000  Uiso   1.00
H159   H     0.48896   0.11304   0.12535   0.00000  Uiso   1.00
H160   H     0.53116   0.15564   0.06674   0.00000  Uiso   1.00
H161   H     0.62349   0.18102   0.08646   0.00000  Uiso   1.00
H162   H     0.33985   0.16566   0.16665   0.00000  Uiso   1.00
H163   H     0.63065   0.12518   0.22691   0.00000  Uiso   1.00
C164   C     0.42204   0.38778   0.29340   0.00000  Uiso   1.00
C165   C     0.37826   0.37097   0.26341   0.00000  Uiso   1.00
C166   C     0.33586   0.35324   0.28295   0.00000  Uiso   1.00
C167   C     0.33731   0.35131   0.33240   0.00000  Uiso   1.00
C168   C     0.38101   0.36772   0.36246   0.00000  Uiso   1.00
C169   C     0.42310   0.38631   0.34305   0.00000  Uiso   1.00
H170   H     0.37674   0.37213   0.22503   0.00000  Uiso   1.00
H171   H     0.63532   0.34069   0.25974   0.00000  Uiso   1.00
H172   H     0.63791   0.33715   0.34737   0.00000  Uiso   1.00
H173   H     0.38214   0.36625   0.40076   0.00000  Uiso   1.00
H174   H     0.45657   0.39935   0.36661   0.00000  Uiso   1.00
C175   C     0.59325   0.27888   0.03991   0.00000  Uiso   1.00
C176   C     0.61751   0.25226   0.00864   0.00000  Uiso   1.00
C177   C     0.66200   0.26755   0.49050   0.00000  Uiso   1.00
C178   C     0.35037   0.30893   0.00446   0.00000  Uiso   1.00
C179   C     0.66068   0.33522   0.03637   0.00000  Uiso   1.00
C180   C     0.61562   0.32037   0.05400   0.00000  Uiso   1.00
H181   H     0.60200   0.21972   0.49825   0.00000  Uiso   1.00
H182   H     0.34654   0.24715   0.46584   0.00000  Uiso   1.00
H183   H     0.38510   0.32054   0.49067   0.00000  Uiso   1.00
H184   H     0.34424   0.36726   0.04724   0.00000  Uiso   1.00
H185   H     0.59781   0.34149   0.07811   0.00000  Uiso   1.00
C186   C     0.49050   0.16304   0.46682   0.00000  Uiso   1.00
C187   C     0.53538   0.13567   0.47367   0.00000  Uiso   1.00
C188   C     0.53240   0.09243   0.49171   0.00000  Uiso   1.00
C189   C     0.48456   0.07614   0.00251   0.00000  Uiso   1.00
C190   C     0.43944   0.10279   0.49449   0.00000  Uiso   1.00
C191   C     0.44218   0.14590   0.47607   0.00000  Uiso   1.00
H192   H     0.57255   0.14777   0.46507   0.00000  Uiso   1.00
H193   H     0.56720   0.07161   0.49741   0.00000  Uiso   1.00
H194   H     0.48235   0.04274   0.01664   0.00000  Uiso   1.00
H195   H     0.40222   0.08988   0.00208   0.00000  Uiso   1.00
H196   H     0.40661   0.16564   0.46851   0.00000  Uiso   1.00
C197   C     0.83579   0.16387   0.25047   0.00000  Uiso   1.00
C198   C     0.83273   0.33594   0.24985   0.00000  Uiso   1.00
C199   C     0.79008   0.23302   0.04729   0.00000  Uiso   1.00
C200   C     0.83656   0.28783   0.44894   0.00000  Uiso   1.00
C201   C     0.79070   0.23426   0.09686   0.00000  Uiso   1.00
C202   C     0.83757   0.28848   0.39945   0.00000  Uiso   1.00
C203   C     0.87624   0.26484   0.10762   0.00000  Uiso   1.00
C204   C     0.82769   0.21032   0.39600   0.00000  Uiso   1.00
C205   C     0.87808   0.26358   0.05791   0.00000  Uiso   1.00
C206   C     0.82666   0.20777   0.44552   0.00000  Uiso   1.00
C207   C     0.83385   0.24722   0.02674   0.00000  Uiso   1.00
C208   C     0.83147   0.24731   0.47312   0.00000  Uiso   1.00
C209   C     0.73369   0.24940   0.23757   0.00000  Uiso   1.00
C210   C     0.93295   0.24875   0.26241   0.00000  Uiso   1.00
C211   C     0.67869   0.24838   0.23078   0.00000  Uiso   1.00
C212   C     0.98793   0.24647   0.26909   0.00000  Uiso   1.00
C213   C     0.83340   0.04732   0.29436   0.00000  Uiso   1.00
C214   C     0.88181   0.44979   0.23457   0.00000  Uiso   1.00
C215   C     0.82860   0.09300   0.29160   0.00000  Uiso   1.00
C216   C     0.87525   0.40424   0.23062   0.00000  Uiso   1.00
C217   C     0.84267   0.11596   0.25229   0.00000  Uiso   1.00
C218   C     0.83468   0.38359   0.25022   0.00000  Uiso   1.00
C219   C     0.86471   0.09282   0.21671   0.00000  Uiso   1.00
C220   C     0.79923   0.40847   0.27287   0.00000  Uiso   1.00
C221   C     0.86609   0.04661   0.21821   0.00000  Uiso   1.00
C222   C     0.80452   0.45438   0.27457   0.00000  Uiso   1.00
C223   C     0.84959   0.02368   0.25659   0.00000  Uiso   1.00
C224   C     0.84600   0.47523   0.25594   0.00000  Uiso   1.00
H225   H     0.99151   0.25024   0.19441   0.00000  Uiso   1.00
H226   H     0.67515   0.24466   0.30546   0.00000  Uiso   1.00
H227   H     0.82293   0.03048   0.32550   0.00000  Uiso   1.00
H228   H     0.91485   0.46490   0.22093   0.00000  Uiso   1.00
H229   H     0.81338   0.11027   0.32017   0.00000  Uiso   1.00
H230   H     0.90273   0.38493   0.21346   0.00000  Uiso   1.00
H231   H     0.87960   0.02888   0.18908   0.00000  Uiso   1.00
H232   H     0.77529   0.47372   0.28949   0.00000  Uiso   1.00
H233   H     0.75503   0.22152   0.02511   0.00000  Uiso   1.00
H234   H     0.84031   0.31890   0.46844   0.00000  Uiso   1.00
H235   H     0.75679   0.22260   0.11183   0.00000  Uiso   1.00
H236   H     0.84193   0.31992   0.38173   0.00000  Uiso   1.00
H237   H     0.90981   0.27694   0.13163   0.00000  Uiso   1.00
H238   H     0.82422   0.18006   0.37528   0.00000  Uiso   1.00
N239   N     0.83333   0.24999   0.12624   0.00000  Uiso   1.00
N240   N     0.83333   0.25001   0.37377   0.00000  Uiso   1.00
O241   O     0.83334   0.18453   0.28974   0.00000  Uiso   1.00
O242   O     0.83333   0.31546   0.21026   0.00000  Uiso   1.00
O243   O     0.83334   0.18453   0.21026   0.00000  Uiso   1.00
O244   O     0.83333   0.31547   0.28974   0.00000  Uiso   1.00
O245   O     0.75725   0.25000   0.28045   0.00000  Uiso   1.00
O246   O     0.90942   0.25000   0.21956   0.00000  Uiso   1.00
O247   O     0.75725   0.24999   0.20097   0.00000  Uiso   1.00
O248   O     0.90942   0.25000   0.29904   0.00000  Uiso   1.00
Zn249  Zn    0.83333   0.25000   0.30307   0.00000  Uiso   1.00
Zn250  Zn    0.83333   0.24999   0.19693   0.00000  Uiso   1.00
C251   C     0.89032   0.11586   0.18015   0.00000  Uiso   1.00
C252   C     0.86263   0.12405   0.13453   0.00000  Uiso   1.00
C253   C     0.88654   0.14793   0.10114   0.00000  Uiso   1.00
C254   C     0.93844   0.16266   0.11252   0.00000  Uiso   1.00
C255   C     0.96638   0.15411   0.15775   0.00000  Uiso   1.00
C256   C     0.94230   0.13106   0.19168   0.00000  Uiso   1.00
H257   H     0.82229   0.11304   0.12535   0.00000  Uiso   1.00
H258   H     0.86449   0.15564   0.06674   0.00000  Uiso   1.00
H259   H     0.95683   0.18102   0.08646   0.00000  Uiso   1.00
H260   H     0.67318   0.16566   0.16665   0.00000  Uiso   1.00
H261   H     0.96399   0.12518   0.22691   0.00000  Uiso   1.00
C262   C     0.75537   0.38778   0.29340   0.00000  Uiso   1.00
C263   C     0.71160   0.37097   0.26341   0.00000  Uiso   1.00
C264   C     0.66919   0.35324   0.28295   0.00000  Uiso   1.00
C265   C     0.67064   0.35131   0.33240   0.00000  Uiso   1.00
C266   C     0.71434   0.36772   0.36246   0.00000  Uiso   1.00
C267   C     0.75643   0.38631   0.34305   0.00000  Uiso   1.00
H268   H     0.71007   0.37213   0.22503   0.00000  Uiso   1.00
H269   H     0.96865   0.34069   0.25974   0.00000  Uiso   1.00
H270   H     0.97124   0.33715   0.34737   0.00000  Uiso   1.00
H271   H     0.71548   0.36625   0.40076   0.00000  Uiso   1.00
H272   H     0.78990   0.39935   0.36661   0.00000  Uiso   1.00
C273   C     0.92659   0.27888   0.03991   0.00000  Uiso   1.00
C274   C     0.95084   0.25226   0.00864   0.00000  Uiso   1.00
C275   C     0.99533   0.26755   0.49050   0.00000  Uiso   1.00
C276   C     0.68370   0.30893   0.00446   0.00000  Uiso   1.00
C277   C     0.99402   0.33522   0.03637   0.00000  Uiso   1.00
C278   C     0.94895   0.32037   0.05400   0.00000  Uiso   1.00
H279   H     0.93534   0.21972   0.49825   0.00000  Uiso   1.00
H280   H     0.67987   0.24715   0.46584   0.00000  Uiso   1.00
H281   H     0.71843   0.32054   0.49067   0.00000  Uiso   1.00
H282   H     0.67757   0.36726   0.04724   0.00000  Uiso   1.00
H283   H     0.93114   0.34149   0.07811   0.00000  Uiso   1.00
C284   C     0.82383   0.16304   0.46682   0.00000  Uiso   1.00
C285   C     0.86871   0.13567   0.47367   0.00000  Uiso   1.00
C286   C     0.86574   0.09243   0.49171   0.00000  Uiso   1.00
C287   C     0.81790   0.07614   0.00251   0.00000  Uiso   1.00
C288   C     0.77277   0.10279   0.49449   0.00000  Uiso   1.00
C289   C     0.77552   0.14590   0.47607   0.00000  Uiso   1.00
H290   H     0.90589   0.14777   0.46507   0.00000  Uiso   1.00
H291   H     0.90053   0.07161   0.49741   0.00000  Uiso   1.00
H292   H     0.81568   0.04274   0.01664   0.00000  Uiso   1.00
H293   H     0.73556   0.08988   0.00208   0.00000  Uiso   1.00
H294   H     0.73995   0.16564   0.46851   0.00000  Uiso   1.00
C295   C     0.16913   0.66387   0.25047   0.00000  Uiso   1.00
C296   C     0.16606   0.83594   0.24985   0.00000  Uiso   1.00
C297   C     0.12341   0.73302   0.04729   0.00000  Uiso   1.00
C298   C     0.16989   0.78783   0.44894   0.00000  Uiso   1.00
C299   C     0.12404   0.73426   0.09686   0.00000  Uiso   1.00
C300   C     0.17091   0.78848   0.39945   0.00000  Uiso   1.00
C301   C     0.20957   0.76484   0.10762   0.00000  Uiso   1.00
C302   C     0.16103   0.71032   0.39600   0.00000  Uiso   1.00
C303   C     0.21141   0.76358   0.05791   0.00000  Uiso   1.00
C304   C     0.16000   0.70777   0.44552   0.00000  Uiso   1.00
C305   C     0.16718   0.74722   0.02674   0.00000  Uiso   1.00
C306   C     0.16481   0.74731   0.47312   0.00000  Uiso   1.00
C307   C     0.06703   0.74940   0.23757   0.00000  Uiso   1.00
C308   C     0.26628   0.74875   0.26241   0.00000  Uiso   1.00
C309   C     0.01203   0.74838   0.23078   0.00000  Uiso   1.00
C310   C     0.32127   0.74647   0.26909   0.00000  Uiso   1.00
C311   C     0.16674   0.54732   0.29436   0.00000  Uiso   1.00
C312   C     0.21514   0.94979   0.23457   0.00000  Uiso   1.00
C313   C     0.16194   0.59300   0.29160   0.00000  Uiso   1.00
C314   C     0.20858   0.90424   0.23062   0.00000  Uiso   1.00
C315   C     0.17600   0.61596   0.25229   0.00000  Uiso   1.00
C316   C     0.16801   0.88359   0.25022   0.00000  Uiso   1.00
C317   C     0.19804   0.59282   0.21671   0.00000  Uiso   1.00
C318   C     0.13256   0.90847   0.27287   0.00000  Uiso   1.00
C319   C     0.19943   0.54661   0.21821   0.00000  Uiso   1.00
C320   C     0.13785   0.95438   0.27457   0.00000  Uiso   1.00
C321   C     0.18292   0.52368   0.25659   0.00000  Uiso   1.00
C322   C     0.17933   0.97523   0.25594   0.00000  Uiso   1.00
H323   H     0.32484   0.75024   0.19441   0.00000  Uiso   1.00
H324   H     0.00848   0.74466   0.30546   0.00000  Uiso   1.00
H325   H     0.15626   0.53048   0.32550   0.00000  Uiso   1.00
H326   H     0.24819   0.96490   0.22093   0.00000  Uiso   1.00
H327   H     0.14671   0.61027   0.32017   0.00000  Uiso   1.00
H328   H     0.23606   0.88493   0.21346   0.00000  Uiso   1.00
H329   H     0.21293   0.52888   0.18908   0.00000  Uiso   1.00
H330   H     0.10862   0.97372   0.28949   0.00000  Uiso   1.00
H331   H     0.08837   0.72152   0.02511   0.00000  Uiso   1.00
H332   H     0.17364   0.81890   0.46844   0.00000  Uiso   1.00
H333   H     0.09013   0.72260   0.11183   0.00000  Uiso   1.00
H334   H     0.17527   0.81992   0.38173   0.00000  Uiso   1.00
H335   H     0.24314   0.77694   0.13163   0.00000  Uiso   1.00
H336   H     0.15756   0.68006   0.37528   0.00000  Uiso   1.00
N337   N     0.16667   0.74999   0.12624   0.00000  Uiso   1.00
N338   N     0.16667   0.75001   0.37377   0.00000  Uiso   1.00
O339   O     0.16667   0.68453   0.28974   0.00000  Uiso   1.00
O340   O     0.16666   0.81546   0.21026   0.00000  Uiso   1.00
O341   O     0.16667   0.68453   0.21026   0.00000  Uiso   1.00
O342   O     0.16666   0.81547   0.28974   0.00000  Uiso   1.00
O343   O     0.09058   0.75000   0.28045   0.00000  Uiso   1.00
O344   O     0.24275   0.75000   0.21956   0.00000  Uiso   1.00
O345   O     0.09058   0.74999   0.20097   0.00000  Uiso   1.00
O346   O     0.24275   0.75000   0.29904   0.00000  Uiso   1.00
Zn347  Zn    0.16667   0.75000   0.30307   0.00000  Uiso   1.00
Zn348  Zn    0.16667   0.74999   0.19693   0.00000  Uiso   1.00
C349   C     0.22365   0.61586   0.18015   0.00000  Uiso   1.00
C350   C     0.19597   0.62405   0.13453   0.00000  Uiso   1.00
C351   C     0.21988   0.64793   0.10114   0.00000  Uiso   1.00
C352   C     0.27178   0.66266   0.11252   0.00000  Uiso   1.00
C353   C     0.29971   0.65411   0.15775   0.00000  Uiso   1.00
C354   C     0.27563   0.63106   0.19168   0.00000  Uiso   1.00
H355   H     0.15563   0.61304   0.12535   0.00000  Uiso   1.00
H356   H     0.19782   0.65564   0.06674   0.00000  Uiso   1.00
H357   H     0.29016   0.68102   0.08646   0.00000  Uiso   1.00
H358   H     0.00651   0.66566   0.16665   0.00000  Uiso   1.00
H359   H     0.29732   0.62518   0.22691   0.00000  Uiso   1.00
C360   C     0.08870   0.88778   0.29340   0.00000  Uiso   1.00
C361   C     0.04493   0.87097   0.26341   0.00000  Uiso   1.00
C362   C     0.00252   0.85324   0.28295   0.00000  Uiso   1.00
C363   C     0.00398   0.85131   0.33240   0.00000  Uiso   1.00
C364   C     0.04768   0.86772   0.36246   0.00000  Uiso   1.00
C365   C     0.08977   0.88631   0.34305   0.00000  Uiso   1.00
H366   H     0.04340   0.87213   0.22503   0.00000  Uiso   1.00
H367   H     0.30199   0.84069   0.25974   0.00000  Uiso   1.00
H368   H     0.30457   0.83715   0.34737   0.00000  Uiso   1.00
H369   H     0.04881   0.86625   0.40076   0.00000  Uiso   1.00
H370   H     0.12324   0.89935   0.36661   0.00000  Uiso   1.00
C371   C     0.25992   0.77888   0.03991   0.00000  Uiso   1.00
C372   C     0.28418   0.75226   0.00864   0.00000  Uiso   1.00
C373   C     0.32866   0.76755   0.49050   0.00000  Uiso   1.00
C374   C     0.01703   0.80893   0.00446   0.00000  Uiso   1.00
C375   C     0.32735   0.83522   0.03637   0.00000  Uiso   1.00
C376   C     0.28229   0.82037   0.05400   0.00000  Uiso   1.00
H377   H     0.26867   0.71972   0.49825   0.00000  Uiso   1.00
H378   H     0.01321   0.74715   0.46584   0.00000  Uiso   1.00
H379   H     0.05176   0.82054   0.49067   0.00000  Uiso   1.00
H380   H     0.01090   0.86726   0.04724   0.00000  Uiso   1.00
H381   H     0.26447   0.84149   0.07811   0.00000  Uiso   1.00
C382   C     0.15716   0.66304   0.46682   0.00000  Uiso   1.00
C383   C     0.20204   0.63567   0.47367   0.00000  Uiso   1.00
C384   C     0.19907   0.59243   0.49171   0.00000  Uiso   1.00
C385   C     0.15123   0.57614   0.00251   0.00000  Uiso   1.00
C386   C     0.10611   0.60279   0.49449   0.00000  Uiso   1.00
C387   C     0.10885   0.64590   0.47607   0.00000  Uiso   1.00
H388   H     0.23922   0.64777   0.46507   0.00000  Uiso   1.00
H389   H     0.23386   0.57161   0.49741   0.00000  Uiso   1.00
H390   H     0.14901   0.54274   0.01664   0.00000  Uiso   1.00
H391   H     0.06889   0.58988   0.00208   0.00000  Uiso   1.00
H392   H     0.07328   0.66564   0.46851   0.00000  Uiso   1.00
C393   C     0.50246   0.66387   0.25047   0.00000  Uiso   1.00
C394   C     0.49939   0.83594   0.24985   0.00000  Uiso   1.00
C395   C     0.45674   0.73302   0.04729   0.00000  Uiso   1.00
C396   C     0.50323   0.78783   0.44894   0.00000  Uiso   1.00
C397   C     0.45737   0.73426   0.09686   0.00000  Uiso   1.00
C398   C     0.50424   0.78848   0.39945   0.00000  Uiso   1.00
C399   C     0.54290   0.76484   0.10762   0.00000  Uiso   1.00
C400   C     0.49436   0.71032   0.39600   0.00000  Uiso   1.00
C401   C     0.54474   0.76358   0.05791   0.00000  Uiso   1.00
C402   C     0.49333   0.70777   0.44552   0.00000  Uiso   1.00
C403   C     0.50052   0.74722   0.02674   0.00000  Uiso   1.00
C404   C     0.49814   0.74731   0.47312   0.00000  Uiso   1.00
C405   C     0.40036   0.74940   0.23757   0.00000  Uiso   1.00
C406   C     0.59962   0.74875   0.26241   0.00000  Uiso   1.00
C407   C     0.34536   0.74838   0.23078   0.00000  Uiso   1.00
C408   C     0.65460   0.74647   0.26909   0.00000  Uiso   1.00
C409   C     0.50007   0.54732   0.29436   0.00000  Uiso   1.00
C410   C     0.54848   0.94979   0.23457   0.00000  Uiso   1.00
C411   C     0.49527   0.59300   0.29160   0.00000  Uiso   1.00
C412   C     0.54191   0.90424   0.23062   0.00000  Uiso   1.00
C413   C     0.50934   0.61596   0.25229   0.00000  Uiso   1.00
C414   C     0.50134   0.88359   0.25022   0.00000  Uiso   1.00
C415   C     0.53137   0.59282   0.21671   0.00000  Uiso   1.00
C416   C     0.46589   0.90847   0.27287   0.00000  Uiso   1.00
C417   C     0.53276   0.54661   0.21821   0.00000  Uiso   1.00
C418   C     0.47118   0.95438   0.27457   0.00000  Uiso   1.00
C419   C     0.51626   0.52368   0.25659   0.00000  Uiso   1.00
C420   C     0.51267   0.97523   0.25594   0.00000  Uiso   1.00
H421   H     0.65818   0.75024   0.19441   0.00000  Uiso   1.00
H422   H     0.34181   0.74466   0.30546   0.00000  Uiso   1.00
H423   H     0.48959   0.53048   0.32550   0.00000  Uiso   1.00
H424   H     0.58152   0.96490   0.22093   0.00000  Uiso   1.00
H425   H     0.48004   0.61027   0.32017   0.00000  Uiso   1.00
H426   H     0.56939   0.88493   0.21346   0.00000  Uiso   1.00
H427   H     0.54627   0.52888   0.18908   0.00000  Uiso   1.00
H428   H     0.44195   0.97372   0.28949   0.00000  Uiso   1.00
H429   H     0.42170   0.72152   0.02511   0.00000  Uiso   1.00
H430   H     0.50698   0.81890   0.46844   0.00000  Uiso   1.00
H431   H     0.42346   0.72260   0.11183   0.00000  Uiso   1.00
H432   H     0.50860   0.81992   0.38173   0.00000  Uiso   1.00
H433   H     0.57648   0.77694   0.13163   0.00000  Uiso   1.00
H434   H     0.49089   0.68006   0.37528   0.00000  Uiso   1.00
N435   N     0.50000   0.74999   0.12624   0.00000  Uiso   1.00
N436   N     0.50000   0.75001   0.37377   0.00000  Uiso   1.00
O437   O     0.50000   0.68453   0.28974   0.00000  Uiso   1.00
O438   O     0.50000   0.81546   0.21026   0.00000  Uiso   1.00
O439   O     0.50000   0.68453   0.21026   0.00000  Uiso   1.00
O440   O     0.50000   0.81547   0.28974   0.00000  Uiso   1.00
O441   O     0.42392   0.75000   0.28045   0.00000  Uiso   1.00
O442   O     0.57608   0.75000   0.21956   0.00000  Uiso   1.00
O443   O     0.42392   0.74999   0.20097   0.00000  Uiso   1.00
O444   O     0.57608   0.75000   0.29904   0.00000  Uiso   1.00
Zn445  Zn    0.50000   0.75000   0.30307   0.00000  Uiso   1.00
Zn446  Zn    0.50000   0.74999   0.19693   0.00000  Uiso   1.00
C447   C     0.55699   0.61586   0.18015   0.00000  Uiso   1.00
C448   C     0.52930   0.62405   0.13453   0.00000  Uiso   1.00
C449   C     0.55321   0.64793   0.10114   0.00000  Uiso   1.00
C450   C     0.60511   0.66266   0.11252   0.00000  Uiso   1.00
C451   C     0.63305   0.65411   0.15775   0.00000  Uiso   1.00
C452   C     0.60897   0.63106   0.19168   0.00000  Uiso   1.00
H453   H     0.48896   0.61304   0.12535   0.00000  Uiso   1.00
H454   H     0.53116   0.65564   0.06674   0.00000  Uiso   1.00
H455   H     0.62349   0.68102   0.08646   0.00000  Uiso   1.00
H456   H     0.33985   0.66566   0.16665   0.00000  Uiso   1.00
H457   H     0.63065   0.62518   0.22691   0.00000  Uiso   1.00
C458   C     0.42204   0.88778   0.29340   0.00000  Uiso   1.00
C459   C     0.37826   0.87097   0.26341   0.00000  Uiso   1.00
C460   C     0.33586   0.85324   0.28295   0.00000  Uiso   1.00
C461   C     0.33731   0.85131   0.33240   0.00000  Uiso   1.00
C462   C     0.38101   0.86772   0.36246   0.00000  Uiso   1.00
C463   C     0.42310   0.88631   0.34305   0.00000  Uiso   1.00
H464   H     0.37674   0.87213   0.22503   0.00000  Uiso   1.00
H465   H     0.63532   0.84069   0.25974   0.00000  Uiso   1.00
H466   H     0.63791   0.83715   0.34737   0.00000  Uiso   1.00
H467   H     0.38214   0.86625   0.40076   0.00000  Uiso   1.00
H468   H     0.45657   0.89935   0.36661   0.00000  Uiso   1.00
C469   C     0.59325   0.77888   0.03991   0.00000  Uiso   1.00
C470   C     0.61751   0.75226   0.00864   0.00000  Uiso   1.00
C471   C     0.66200   0.76755   0.49050   0.00000  Uiso   1.00
C472   C     0.35037   0.80893   0.00446   0.00000  Uiso   1.00
C473   C     0.66068   0.83522   0.03637   0.00000  Uiso   1.00
C474   C     0.61562   0.82037   0.05400   0.00000  Uiso   1.00
H475   H     0.60200   0.71972   0.49825   0.00000  Uiso   1.00
H476   H     0.34654   0.74715   0.46584   0.00000  Uiso   1.00
H477   H     0.38510   0.82054   0.49067   0.00000  Uiso   1.00
H478   H     0.34424   0.86726   0.04724   0.00000  Uiso   1.00
H479   H     0.59781   0.84149   0.07811   0.00000  Uiso   1.00
C480   C     0.49050   0.66304   0.46682   0.00000  Uiso   1.00
C481   C     0.53538   0.63567   0.47367   0.00000  Uiso   1.00
C482   C     0.53240   0.59243   0.49171   0.00000  Uiso   1.00
C483   C     0.48456   0.57614   0.00251   0.00000  Uiso   1.00
C484   C     0.43944   0.60279   0.49449   0.00000  Uiso   1.00
C485   C     0.44218   0.64590   0.47607   0.00000  Uiso   1.00
H486   H     0.57255   0.64777   0.46507   0.00000  Uiso   1.00
H487   H     0.56720   0.57161   0.49741   0.00000  Uiso   1.00
H488   H     0.48235   0.54274   0.01664   0.00000  Uiso   1.00
H489   H     0.40222   0.58988   0.00208   0.00000  Uiso   1.00
H490   H     0.40661   0.66564   0.46851   0.00000  Uiso   1.00
C491   C     0.83579   0.66387   0.25047   0.00000  Uiso   1.00
C492   C     0.83273   0.83594   0.24985   0.00000  Uiso   1.00
C493   C     0.79008   0.73302   0.04729   0.00000  Uiso   1.00
C494   C     0.83656   0.78783   0.44894   0.00000  Uiso   1.00
C495   C     0.79070   0.73426   0.09686   0.00000  Uiso   1.00
C496   C     0.83757   0.78848   0.39945   0.00000  Uiso   1.00
C497   C     0.87624   0.76484   0.10762   0.00000  Uiso   1.00
C498   C     0.82769   0.71032   0.39600   0.00000  Uiso   1.00
C499   C     0.87808   0.76358   0.05791   0.00000  Uiso   1.00
C500   C     0.82666   0.70777   0.44552   0.00000  Uiso   1.00
C501   C     0.83385   0.74722   0.02674   0.00000  Uiso   1.00
C502   C     0.83147   0.74731   0.47312   0.00000  Uiso   1.00
C503   C     0.73369   0.74940   0.23757   0.00000  Uiso   1.00
C504   C     0.93295   0.74875   0.26241   0.00000  Uiso   1.00
C505   C     0.67869   0.74838   0.23078   0.00000  Uiso   1.00
C506   C     0.98793   0.74647   0.26909   0.00000  Uiso   1.00
C507   C     0.83340   0.54732   0.29436   0.00000  Uiso   1.00
C508   C     0.88181   0.94979   0.23457   0.00000  Uiso   1.00
C509   C     0.82860   0.59300   0.29160   0.00000  Uiso   1.00
C510   C     0.87525   0.90424   0.23062   0.00000  Uiso   1.00
C511   C     0.84267   0.61596   0.25229   0.00000  Uiso   1.00
C512   C     0.83468   0.88359   0.25022   0.00000  Uiso   1.00
C513   C     0.86471   0.59282   0.21671   0.00000  Uiso   1.00
C514   C     0.79923   0.90847   0.27287   0.00000  Uiso   1.00
C515   C     0.86609   0.54661   0.21821   0.00000  Uiso   1.00
C516   C     0.80452   0.95438   0.27457   0.00000  Uiso   1.00
C517   C     0.84959   0.52368   0.25659   0.00000  Uiso   1.00
C518   C     0.84600   0.97523   0.25594   0.00000  Uiso   1.00
H519   H     0.99151   0.75024   0.19441   0.00000  Uiso   1.00
H520   H     0.67515   0.74466   0.30546   0.00000  Uiso   1.00
H521   H     0.82293   0.53048   0.32550   0.00000  Uiso   1.00
H522   H     0.91485   0.96490   0.22093   0.00000  Uiso   1.00
H523   H     0.81338   0.61027   0.32017   0.00000  Uiso   1.00
H524   H     0.90273   0.88493   0.21346   0.00000  Uiso   1.00
H525   H     0.87960   0.52888   0.18908   0.00000  Uiso   1.00
H526   H     0.77529   0.97372   0.28949   0.00000  Uiso   1.00
H527   H     0.75503   0.72152   0.02511   0.00000  Uiso   1.00
H528   H     0.84031   0.81890   0.46844   0.00000  Uiso   1.00
H529   H     0.75679   0.72260   0.11183   0.00000  Uiso   1.00
H530   H     0.84193   0.81992   0.38173   0.00000  Uiso   1.00
H531   H     0.90981   0.77694   0.13163   0.00000  Uiso   1.00
H532   H     0.82422   0.68006   0.37528   0.00000  Uiso   1.00
N533   N     0.83333   0.74999   0.12624   0.00000  Uiso   1.00
N534   N     0.83333   0.75001   0.37377   0.00000  Uiso   1.00
O535   O     0.83334   0.68453   0.28974   0.00000  Uiso   1.00
O536   O     0.83333   0.81546   0.21026   0.00000  Uiso   1.00
O537   O     0.83334   0.68453   0.21026   0.00000  Uiso   1.00
O538   O     0.83333   0.81547   0.28974   0.00000  Uiso   1.00
O539   O     0.75725   0.75000   0.28045   0.00000  Uiso   1.00
O540   O     0.90942   0.75000   0.21956   0.00000  Uiso   1.00
O541   O     0.75725   0.74999   0.20097   0.00000  Uiso   1.00
O542   O     0.90942   0.75000   0.29904   0.00000  Uiso   1.00
Zn543  Zn    0.83333   0.75000   0.30307   0.00000  Uiso   1.00
Zn544  Zn    0.83333   0.74999   0.19693   0.00000  Uiso   1.00
C545   C     0.89032   0.61586   0.18015   0.00000  Uiso   1.00
C546   C     0.86263   0.62405   0.13453   0.00000  Uiso   1.00
C547   C     0.88654   0.64793   0.10114   0.00000  Uiso   1.00
C548   C     0.93844   0.66266   0.11252   0.00000  Uiso   1.00
C549   C     0.96638   0.65411   0.15775   0.00000  Uiso   1.00
C550   C     0.94230   0.63106   0.19168   0.00000  Uiso   1.00
H551   H     0.82229   0.61304   0.12535   0.00000  Uiso   1.00
H552   H     0.86449   0.65564   0.06674   0.00000  Uiso   1.00
H553   H     0.95683   0.68102   0.08646   0.00000  Uiso   1.00
H554   H     0.67318   0.66566   0.16665   0.00000  Uiso   1.00
H555   H     0.96399   0.62518   0.22691   0.00000  Uiso   1.00
C556   C     0.75537   0.88778   0.29340   0.00000  Uiso   1.00
C557   C     0.71160   0.87097   0.26341   0.00000  Uiso   1.00
C558   C     0.66919   0.85324   0.28295   0.00000  Uiso   1.00
C559   C     0.67064   0.85131   0.33240   0.00000  Uiso   1.00
C560   C     0.71434   0.86772   0.36246   0.00000  Uiso   1.00
C561   C     0.75643   0.88631   0.34305   0.00000  Uiso   1.00
H562   H     0.71007   0.87213   0.22503   0.00000  Uiso   1.00
H563   H     0.96865   0.84069   0.25974   0.00000  Uiso   1.00
H564   H     0.97124   0.83715   0.34737   0.00000  Uiso   1.00
H565   H     0.71548   0.86625   0.40076   0.00000  Uiso   1.00
H566   H     0.78990   0.89935   0.36661   0.00000  Uiso   1.00
C567   C     0.92659   0.77888   0.03991   0.00000  Uiso   1.00
C568   C     0.95084   0.75226   0.00864   0.00000  Uiso   1.00
C569   C     0.99533   0.76755   0.49050   0.00000  Uiso   1.00
C570   C     0.68370   0.80893   0.00446   0.00000  Uiso   1.00
C571   C     0.99402   0.83522   0.03637   0.00000  Uiso   1.00
C572   C     0.94895   0.82037   0.05400   0.00000  Uiso   1.00
H573   H     0.93534   0.71972   0.49825   0.00000  Uiso   1.00
H574   H     0.67987   0.74715   0.46584   0.00000  Uiso   1.00
H575   H     0.71843   0.82054   0.49067   0.00000  Uiso   1.00
H576   H     0.67757   0.86726   0.04724   0.00000  Uiso   1.00
H577   H     0.93114   0.84149   0.07811   0.00000  Uiso   1.00
C578   C     0.82383   0.66304   0.46682   0.00000  Uiso   1.00
C579   C     0.86871   0.63567   0.47367   0.00000  Uiso   1.00
C580   C     0.86574   0.59243   0.49171   0.00000  Uiso   1.00
C581   C     0.81790   0.57614   0.00251   0.00000  Uiso   1.00
C582   C     0.77277   0.60279   0.49449   0.00000  Uiso   1.00
C583   C     0.77552   0.64590   0.47607   0.00000  Uiso   1.00
H584   H     0.90589   0.64777   0.46507   0.00000  Uiso   1.00
H585   H     0.90053   0.57161   0.49741   0.00000  Uiso   1.00
H586   H     0.81568   0.54274   0.01664   0.00000  Uiso   1.00
H587   H     0.73556   0.58988   0.00208   0.00000  Uiso   1.00
H588   H     0.73995   0.66564   0.46851   0.00000  Uiso   1.00
C589   C     0.16913   0.16387   0.75047   0.00000  Uiso   1.00
C590   C     0.16606   0.33594   0.74985   0.00000  Uiso   1.00
C591   C     0.12341   0.23302   0.54729   0.00000  Uiso   1.00
C592   C     0.16989   0.28783   0.94894   0.00000  Uiso   1.00
C593   C     0.12404   0.23426   0.59686   0.00000  Uiso   1.00
C594   C     0.17091   0.28848   0.89945   0.00000  Uiso   1.00
C595   C     0.20957   0.26484   0.60762   0.00000  Uiso   1.00
C596   C     0.16103   0.21032   0.89600   0.00000  Uiso   1.00
C597   C     0.21141   0.26358   0.55791   0.00000  Uiso   1.00
C598   C     0.16000   0.20777   0.94552   0.00000  Uiso   1.00
C599   C     0.16718   0.24722   0.52674   0.00000  Uiso   1.00
C600   C     0.16481   0.24731   0.97312   0.00000  Uiso   1.00
C601   C     0.06703   0.24940   0.73757   0.00000  Uiso   1.00
C602   C     0.26628   0.24875   0.76241   0.00000  Uiso   1.00
C603   C     0.01203   0.24838   0.73078   0.00000  Uiso   1.00
C604   C     0.32127   0.24647   0.76909   0.00000  Uiso   1.00
C605   C     0.16674   0.04732   0.79436   0.00000  Uiso   1.00
C606   C     0.21514   0.44979   0.73457   0.00000  Uiso   1.00
C607   C     0.16194   0.09300   0.79160   0.00000  Uiso   1.00
C608   C     0.20858   0.40424   0.73062   0.00000  Uiso   1.00
C609   C     0.17600   0.11596   0.75229   0.00000  Uiso   1.00
C610   C     0.16801   0.38359   0.75022   0.00000  Uiso   1.00
C611   C     0.19804   0.09282   0.71671   0.00000  Uiso   1.00
C612   C     0.13256   0.40847   0.77287   0.00000  Uiso   1.00
C613   C     0.19943   0.04661   0.71821   0.00000  Uiso   1.00
C614   C     0.13785   0.45438   0.77457   0.00000  Uiso   1.00
C615   C     0.18292   0.02368   0.75659   0.00000  Uiso   1.00
C616   C     0.17933   0.47523   0.75594   0.00000  Uiso   1.00
H617   H     0.32484   0.25024   0.69441   0.00000  Uiso   1.00
H618   H     0.00848   0.24466   0.80546   0.00000  Uiso   1.00
H619   H     0.15626   0.03048   0.82550   0.00000  Uiso   1.00
H620   H     0.24819   0.46490   0.72093   0.00000  Uiso   1.00
H621   H     0.14671   0.11027   0.82017   0.00000  Uiso   1.00
H622   H     0.23606   0.38493   0.71346   0.00000  Uiso   1.00
H623   H     0.21293   0.02888   0.68908   0.00000  Uiso   1.00
H624   H     0.10862   0.47372   0.78949   0.00000  Uiso   1.00
H625   H     0.08837   0.22152   0.52511   0.00000  Uiso   1.00
H626   H     0.17364   0.31890   0.96844   0.00000  Uiso   1.00
H627   H     0.09013   0.22260   0.61183   0.00000  Uiso   1.00
H628   H     0.17527   0.31992   0.88173   0.00000  Uiso   1.00
H629   H     0.24314   0.27694   0.63163   0.00000  Uiso   1.00
H630   H     0.15756   0.18006   0.87528   0.00000  Uiso   1.00
N631   N     0.16667   0.24999   0.62624   0.00000  Uiso   1.00
N632   N     0.16667   0.25001   0.87377   0.00000  Uiso   1.00
O633   O     0.16667   0.18453   0.78974   0.00000  Uiso   1.00
O634   O     0.16666   0.31546   0.71026   0.00000  Uiso   1.00
O635   O     0.16667   0.18453   0.71026   0.00000  Uiso   1.00
O636   O     0.16666   0.31547   0.78974   0.00000  Uiso   1.00
O637   O     0.09058   0.25000   0.78045   0.00000  Uiso   1.00
O638   O     0.24275   0.25000   0.71956   0.00000  Uiso   1.00
O639   O     0.09058   0.24999   0.70097   0.00000  Uiso   1.00
O640   O     0.24275   0.25000   0.79904   0.00000  Uiso   1.00
Zn641  Zn    0.16667   0.25000   0.80307   0.00000  Uiso   1.00
Zn642  Zn    0.16667   0.24999   0.69693   0.00000  Uiso   1.00
C643   C     0.22365   0.11586   0.68015   0.00000  Uiso   1.00
C644   C     0.19597   0.12405   0.63453   0.00000  Uiso   1.00
C645   C     0.21988   0.14793   0.60114   0.00000  Uiso   1.00
C646   C     0.27178   0.16266   0.61252   0.00000  Uiso   1.00
C647   C     0.29971   0.15411   0.65775   0.00000  Uiso   1.00
C648   C     0.27563   0.13106   0.69168   0.00000  Uiso   1.00
H649   H     0.15563   0.11304   0.62535   0.00000  Uiso   1.00
H650   H     0.19782   0.15564   0.56674   0.00000  Uiso   1.00
H651   H     0.29016   0.18102   0.58646   0.00000  Uiso   1.00
H652   H     0.00651   0.16566   0.66665   0.00000  Uiso   1.00
H653   H     0.29732   0.12518   0.72691   0.00000  Uiso   1.00
C654   C     0.08870   0.38778   0.79340   0.00000  Uiso   1.00
C655   C     0.04493   0.37097   0.76341   0.00000  Uiso   1.00
C656   C     0.00252   0.35324   0.78295   0.00000  Uiso   1.00
C657   C     0.00398   0.35131   0.83240   0.00000  Uiso   1.00
C658   C     0.04768   0.36772   0.86246   0.00000  Uiso   1.00
C659   C     0.08977   0.38631   0.84305   0.00000  Uiso   1.00
H660   H     0.04340   0.37213   0.72503   0.00000  Uiso   1.00
H661   H     0.30199   0.34069   0.75974   0.00000  Uiso   1.00
H662   H     0.30457   0.33715   0.84737   0.00000  Uiso   1.00
H663   H     0.04881   0.36625   0.90076   0.00000  Uiso   1.00
H664   H     0.12324   0.39935   0.86661   0.00000  Uiso   1.00
C665   C     0.25992   0.27888   0.53991   0.00000  Uiso   1.00
C666   C     0.28418   0.25226   0.50864   0.00000  Uiso   1.00
C667   C     0.32866   0.26755   0.99050   0.00000  Uiso   1.00
C668   C     0.01703   0.30893   0.50446   0.00000  Uiso   1.00
C669   C     0.32735   0.33522   0.53637   0.00000  Uiso   1.00
C670   C     0.28229   0.32037   0.55400   0.00000  Uiso   1.00
H671   H     0.26867   0.21972   0.99825   0.00000  Uiso   1.00
H672   H     0.01321   0.24715   0.96584   0.00000  Uiso   1.00
H673   H     0.05176   0.32054   0.99067   0.00000  Uiso   1.00
H674   H     0.01090   0.36726   0.54724   0.00000  Uiso   1.00
H675   H     0.26447   0.34149   0.57811   0.00000  Uiso   1.00
C676   C     0.15716   0.16304   0.96682   0.00000  Uiso   1.00
C677   C     0.20204   0.13567   0.97367   0.00000  Uiso   1.00
C678   C     0.19907   0.09243   0.99171   0.00000  Uiso   1.00
C679   C     0.15123   0.07614   0.50251   0.00000  Uiso   1.00
C680   C     0.10611   0.10279   0.99449   0.00000  Uiso   1.00
C681   C     0.10885   0.14590   0.97607   0.00000  Uiso   1.00
H682   H     0.23922   0.14777   0.96507   0.00000  Uiso   1.00
H683   H     0.23386   0.07161   0.99741   0.00000  Uiso   1.00
H684   H     0.14901   0.04274   0.51664   0.00000  Uiso   1.00
H685   H     0.06889   0.08988   0.50208   0.00000  Uiso   1.00
H686   H     0.07328   0.16564   0.96851   0.00000  Uiso   1.00
C687   C     0.50246   0.16387   0.75047   0.00000  Uiso   1.00
C688   C     0.49939   0.33594   0.74985   0.00000  Uiso   1.00
C689   C     0.45674   0.23302   0.54729   0.00000  Uiso   1.00
C690   C     0.50323   0.28783   0.94894   0.00000  Uiso   1.00
C691   C     0.45737   0.23426   0.59686   0.00000  Uiso   1.00
C692   C     0.50424   0.28848   0.89945   0.00000  Uiso   1.00
C693   C     0.54290   0.26484   0.60762   0.00000  Uiso   1.00
C694   C     0.49436   0.21032   0.89600   0.00000  Uiso   1.00
C695   C     0.54474   0.26358   0.55791   0.00000  Uiso   1.00
C696   C     0.49333   0.20777   0.94552   0.00000  Uiso   1.00
C697   C     0.50052   0.24722   0.52674   0.00000  Uiso   1.00
C698   C     0.49814   0.24731   0.97312   0.00000  Uiso   1.00
C699   C     0.40036   0.24940   0.73757   0.00000  Uiso   1.00
C700   C     0.59962   0.24875   0.76241   0.00000  Uiso   1.00
C701   C     0.34536   0.24838   0.73078   0.00000  Uiso   1.00
C702   C     0.65460   0.24647   0.76909   0.00000  Uiso   1.00
C703   C     0.50007   0.04732   0.79436   0.00000  Uiso   1.00
C704   C     0.54848   0.44979   0.73457   0.00000  Uiso   1.00
C705   C     0.49527   0.09300   0.79160   0.00000  Uiso   1.00
C706   C     0.54191   0.40424   0.73062   0.00000  Uiso   1.00
C707   C     0.50934   0.11596   0.75229   0.00000  Uiso   1.00
C708   C     0.50134   0.38359   0.75022   0.00000  Uiso   1.00
C709   C     0.53137   0.09282   0.71671   0.00000  Uiso   1.00
C710   C     0.46589   0.40847   0.77287   0.00000  Uiso   1.00
C711   C     0.53276   0.04661   0.71821   0.00000  Uiso   1.00
C712   C     0.47118   0.45438   0.77457   0.00000  Uiso   1.00
C713   C     0.51626   0.02368   0.75659   0.00000  Uiso   1.00
C714   C     0.51267   0.47523   0.75594   0.00000  Uiso   1.00
H715   H     0.65818   0.25024   0.69441   0.00000  Uiso   1.00
H716   H     0.34181   0.24466   0.80546   0.00000  Uiso   1.00
H717   H     0.48959   0.03048   0.82550   0.00000  Uiso   1.00
H718   H     0.58152   0.46490   0.72093   0.00000  Uiso   1.00
H719   H     0.48004   0.11027   0.82017   0.00000  Uiso   1.00
H720   H     0.56939   0.38493   0.71346   0.00000  Uiso   1.00
H721   H     0.54627   0.02888   0.68908   0.00000  Uiso   1.00
H722   H     0.44195   0.47372   0.78949   0.00000  Uiso   1.00
H723   H     0.42170   0.22152   0.52511   0.00000  Uiso   1.00
H724   H     0.50698   0.31890   0.96844   0.00000  Uiso   1.00
H725   H     0.42346   0.22260   0.61183   0.00000  Uiso   1.00
H726   H     0.50860   0.31992   0.88173   0.00000  Uiso   1.00
H727   H     0.57648   0.27694   0.63163   0.00000  Uiso   1.00
H728   H     0.49089   0.18006   0.87528   0.00000  Uiso   1.00
N729   N     0.50000   0.24999   0.62624   0.00000  Uiso   1.00
N730   N     0.50000   0.25001   0.87377   0.00000  Uiso   1.00
O731   O     0.50000   0.18453   0.78974   0.00000  Uiso   1.00
O732   O     0.50000   0.31546   0.71026   0.00000  Uiso   1.00
O733   O     0.50000   0.18453   0.71026   0.00000  Uiso   1.00
O734   O     0.50000   0.31547   0.78974   0.00000  Uiso   1.00
O735   O     0.42392   0.25000   0.78045   0.00000  Uiso   1.00
O736   O     0.57608   0.25000   0.71956   0.00000  Uiso   1.00
O737   O     0.42392   0.24999   0.70097   0.00000  Uiso   1.00
O738   O     0.57608   0.25000   0.79904   0.00000  Uiso   1.00
Zn739  Zn    0.50000   0.25000   0.80307   0.00000  Uiso   1.00
Zn740  Zn    0.50000   0.24999   0.69693   0.00000  Uiso   1.00
C741   C     0.55699   0.11586   0.68015   0.00000  Uiso   1.00
C742   C     0.52930   0.12405   0.63453   0.00000  Uiso   1.00
C743   C     0.55321   0.14793   0.60114   0.00000  Uiso   1.00
C744   C     0.60511   0.16266   0.61252   0.00000  Uiso   1.00
C745   C     0.63305   0.15411   0.65775   0.00000  Uiso   1.00
C746   C     0.60897   0.13106   0.69168   0.00000  Uiso   1.00
H747   H     0.48896   0.11304   0.62535   0.00000  Uiso   1.00
H748   H     0.53116   0.15564   0.56674   0.00000  Uiso   1.00
H749   H     0.62349   0.18102   0.58646   0.00000  Uiso   1.00
H750   H     0.33985   0.16566   0.66665   0.00000  Uiso   1.00
H751   H     0.63065   0.12518   0.72691   0.00000  Uiso   1.00
C752   C     0.42204   0.38778   0.79340   0.00000  Uiso   1.00
C753   C     0.37826   0.37097   0.76341   0.00000  Uiso   1.00
C754   C     0.33586   0.35324   0.78295   0.00000  Uiso   1.00
C755   C     0.33731   0.35131   0.83240   0.00000  Uiso   1.00
C756   C     0.38101   0.36772   0.86246   0.00000  Uiso   1.00
C757   C     0.42310   0.38631   0.84305   0.00000  Uiso   1.00
H758   H     0.37674   0.37213   0.72503   0.00000  Uiso   1.00
H759   H     0.63532   0.34069   0.75974   0.00000  Uiso   1.00
H760   H     0.63791   0.33715   0.84737   0.00000  Uiso   1.00
H761   H     0.38214   0.36625   0.90076   0.00000  Uiso   1.00
H762   H     0.45657   0.39935   0.86661   0.00000  Uiso   1.00
C763   C     0.59325   0.27888   0.53991   0.00000  Uiso   1.00
C764   C     0.61751   0.25226   0.50864   0.00000  Uiso   1.00
C765   C     0.66200   0.26755   0.99050   0.00000  Uiso   1.00
C766   C     0.35037   0.30893   0.50446   0.00000  Uiso   1.00
C767   C     0.66068   0.33522   0.53637   0.00000  Uiso   1.00
C768   C     0.61562   0.32037   0.55400   0.00000  Uiso   1.00
H769   H     0.60200   0.21972   0.99825   0.00000  Uiso   1.00
H770   H     0.34654   0.24715   0.96584   0.00000  Uiso   1.00
H771   H     0.38510   0.32054   0.99067   0.00000  Uiso   1.00
H772   H     0.34424   0.36726   0.54724   0.00000  Uiso   1.00
H773   H     0.59781   0.34149   0.57811   0.00000  Uiso   1.00
C774   C     0.49050   0.16304   0.96682   0.00000  Uiso   1.00
C775   C     0.53538   0.13567   0.97367   0.00000  Uiso   1.00
C776   C     0.53240   0.09243   0.99171   0.00000  Uiso   1.00
C777   C     0.48456   0.07614   0.50251   0.00000  Uiso   1.00
C778   C     0.43944   0.10279   0.99449   0.00000  Uiso   1.00
C779   C     0.44218   0.14590   0.97607   0.00000  Uiso   1.00
H780   H     0.57255   0.14777   0.96507   0.00000  Uiso   1.00
H781   H     0.56720   0.07161   0.99741   0.00000  Uiso   1.00
H782   H     0.48235   0.04274   0.51664   0.00000  Uiso   1.00
H783   H     0.40222   0.08988   0.50208   0.00000  Uiso   1.00
H784   H     0.40661   0.16564   0.96851   0.00000  Uiso   1.00
C785   C     0.83579   0.16387   0.75047   0.00000  Uiso   1.00
C786   C     0.83273   0.33594   0.74985   0.00000  Uiso   1.00
C787   C     0.79008   0.23302   0.54729   0.00000  Uiso   1.00
C788   C     0.83656   0.28783   0.94894   0.00000  Uiso   1.00
C789   C     0.79070   0.23426   0.59686   0.00000  Uiso   1.00
C790   C     0.83757   0.28848   0.89945   0.00000  Uiso   1.00
C791   C     0.87624   0.26484   0.60762   0.00000  Uiso   1.00
C792   C     0.82769   0.21032   0.89600   0.00000  Uiso   1.00
C793   C     0.87808   0.26358   0.55791   0.00000  Uiso   1.00
C794   C     0.82666   0.20777   0.94552   0.00000  Uiso   1.00
C795   C     0.83385   0.24722   0.52674   0.00000  Uiso   1.00
C796   C     0.83147   0.24731   0.97312   0.00000  Uiso   1.00
C797   C     0.73369   0.24940   0.73757   0.00000  Uiso   1.00
C798   C     0.93295   0.24875   0.76241   0.00000  Uiso   1.00
C799   C     0.67869   0.24838   0.73078   0.00000  Uiso   1.00
C800   C     0.98793   0.24647   0.76909   0.00000  Uiso   1.00
C801   C     0.83340   0.04732   0.79436   0.00000  Uiso   1.00
C802   C     0.88181   0.44979   0.73457   0.00000  Uiso   1.00
C803   C     0.82860   0.09300   0.79160   0.00000  Uiso   1.00
C804   C     0.87525   0.40424   0.73062   0.00000  Uiso   1.00
C805   C     0.84267   0.11596   0.75229   0.00000  Uiso   1.00
C806   C     0.83468   0.38359   0.75022   0.00000  Uiso   1.00
C807   C     0.86471   0.09282   0.71671   0.00000  Uiso   1.00
C808   C     0.79923   0.40847   0.77287   0.00000  Uiso   1.00
C809   C     0.86609   0.04661   0.71821   0.00000  Uiso   1.00
C810   C     0.80452   0.45438   0.77457   0.00000  Uiso   1.00
C811   C     0.84959   0.02368   0.75659   0.00000  Uiso   1.00
C812   C     0.84600   0.47523   0.75594   0.00000  Uiso   1.00
H813   H     0.99151   0.25024   0.69441   0.00000  Uiso   1.00
H814   H     0.67515   0.24466   0.80546   0.00000  Uiso   1.00
H815   H     0.82293   0.03048   0.82550   0.00000  Uiso   1.00
H816   H     0.91485   0.46490   0.72093   0.00000  Uiso   1.00
H817   H     0.81338   0.11027   0.82017   0.00000  Uiso   1.00
H818   H     0.90273   0.38493   0.71346   0.00000  Uiso   1.00
H819   H     0.87960   0.02888   0.68908   0.00000  Uiso   1.00
H820   H     0.77529   0.47372   0.78949   0.00000  Uiso   1.00
H821   H     0.75503   0.22152   0.52511   0.00000  Uiso   1.00
H822   H     0.84031   0.31890   0.96844   0.00000  Uiso   1.00
H823   H     0.75679   0.22260   0.61183   0.00000  Uiso   1.00
H824   H     0.84193   0.31992   0.88173   0.00000  Uiso   1.00
H825   H     0.90981   0.27694   0.63163   0.00000  Uiso   1.00
H826   H     0.82422   0.18006   0.87528   0.00000  Uiso   1.00
N827   N     0.83333   0.24999   0.62624   0.00000  Uiso   1.00
N828   N     0.83333   0.25001   0.87377   0.00000  Uiso   1.00
O829   O     0.83334   0.18453   0.78974   0.00000  Uiso   1.00
O830   O     0.83333   0.31546   0.71026   0.00000  Uiso   1.00
O831   O     0.83334   0.18453   0.71026   0.00000  Uiso   1.00
O832   O     0.83333   0.31547   0.78974   0.00000  Uiso   1.00
O833   O     0.75725   0.25000   0.78045   0.00000  Uiso   1.00
O834   O     0.90942   0.25000   0.71956   0.00000  Uiso   1.00
O835   O     0.75725   0.24999   0.70097   0.00000  Uiso   1.00
O836   O     0.90942   0.25000   0.79904   0.00000  Uiso   1.00
Zn837  Zn    0.83333   0.25000   0.80307   0.00000  Uiso   1.00
Zn838  Zn    0.83333   0.24999   0.69693   0.00000  Uiso   1.00
C839   C     0.89032   0.11586   0.68015   0.00000  Uiso   1.00
C840   C     0.86263   0.12405   0.63453   0.00000  Uiso   1.00
C841   C     0.88654   0.14793   0.60114   0.00000  Uiso   1.00
C842   C     0.93844   0.16266   0.61252   0.00000  Uiso   1.00
C843   C     0.96638   0.15411   0.65775   0.00000  Uiso   1.00
C844   C     0.94230   0.13106   0.69168   0.00000  Uiso   1.00
H845   H     0.82229   0.11304   0.62535   0.00000  Uiso   1.00
H846   H     0.86449   0.15564   0.56674   0.00000  Uiso   1.00
H847   H     0.95683   0.18102   0.58646   0.00000  Uiso   1.00
H848   H     0.67318   0.16566   0.66665   0.00000  Uiso   1.00
H849   H     0.96399   0.12518   0.72691   0.00000  Uiso   1.00
C850   C     0.75537   0.38778   0.79340   0.00000  Uiso   1.00
C851   C     0.71160   0.37097   0.76341   0.00000  Uiso   1.00
C852   C     0.66919   0.35324   0.78295   0.00000  Uiso   1.00
C853   C     0.67064   0.35131   0.83240   0.00000  Uiso   1.00
C854   C     0.71434   0.36772   0.86246   0.00000  Uiso   1.00
C855   C     0.75643   0.38631   0.84305   0.00000  Uiso   1.00
H856   H     0.71007   0.37213   0.72503   0.00000  Uiso   1.00
H857   H     0.96865   0.34069   0.75974   0.00000  Uiso   1.00
H858   H     0.97124   0.33715   0.84737   0.00000  Uiso   1.00
H859   H     0.71548   0.36625   0.90076   0.00000  Uiso   1.00
H860   H     0.78990   0.39935   0.86661   0.00000  Uiso   1.00
C861   C     0.92659   0.27888   0.53991   0.00000  Uiso   1.00
C862   C     0.95084   0.25226   0.50864   0.00000  Uiso   1.00
C863   C     0.99533   0.26755   0.99050   0.00000  Uiso   1.00
C864   C     0.68370   0.30893   0.50446   0.00000  Uiso   1.00
C865   C     0.99402   0.33522   0.53637   0.00000  Uiso   1.00
C866   C     0.94895   0.32037   0.55400   0.00000  Uiso   1.00
H867   H     0.93534   0.21972   0.99825   0.00000  Uiso   1.00
H868   H     0.67987   0.24715   0.96584   0.00000  Uiso   1.00
H869   H     0.71843   0.32054   0.99067   0.00000  Uiso   1.00
H870   H     0.67757   0.36726   0.54724   0.00000  Uiso   1.00
H871   H     0.93114   0.34149   0.57811   0.00000  Uiso   1.00
C872   C     0.82383   0.16304   0.96682   0.00000  Uiso   1.00
C873   C     0.86871   0.13567   0.97367   0.00000  Uiso   1.00
C874   C     0.86574   0.09243   0.99171   0.00000  Uiso   1.00
C875   C     0.81790   0.07614   0.50251   0.00000  Uiso   1.00
C876   C     0.77277   0.10279   0.99449   0.00000  Uiso   1.00
C877   C     0.77552   0.14590   0.97607   0.00000  Uiso   1.00
H878   H     0.90589   0.14777   0.96507   0.00000  Uiso   1.00
H879   H     0.90053   0.07161   0.99741   0.00000  Uiso   1.00
H880   H     0.81568   0.04274   0.51664   0.00000  Uiso   1.00
H881   H     0.73556   0.08988   0.50208   0.00000  Uiso   1.00
H882   H     0.73995   0.16564   0.96851   0.00000  Uiso   1.00
C883   C     0.16913   0.66387   0.75047   0.00000  Uiso   1.00
C884   C     0.16606   0.83594   0.74985   0.00000  Uiso   1.00
C885   C     0.12341   0.73302   0.54729   0.00000  Uiso   1.00
C886   C     0.16989   0.78783   0.94894   0.00000  Uiso   1.00
C887   C     0.12404   0.73426   0.59686   0.00000  Uiso   1.00
C888   C     0.17091   0.78848   0.89945   0.00000  Uiso   1.00
C889   C     0.20957   0.76484   0.60762   0.00000  Uiso   1.00
C890   C     0.16103   0.71032   0.89600   0.00000  Uiso   1.00
C891   C     0.21141   0.76358   0.55791   0.00000  Uiso   1.00
C892   C     0.16000   0.70777   0.94552   0.00000  Uiso   1.00
C893   C     0.16718   0.74722   0.52674   0.00000  Uiso   1.00
C894   C     0.16481   0.74731   0.97312   0.00000  Uiso   1.00
C895   C     0.06703   0.74940   0.73757   0.00000  Uiso   1.00
C896   C     0.26628   0.74875   0.76241   0.00000  Uiso   1.00
C897   C     0.01203   0.74838   0.73078   0.00000  Uiso   1.00
C898   C     0.32127   0.74647   0.76909   0.00000  Uiso   1.00
C899   C     0.16674   0.54732   0.79436   0.00000  Uiso   1.00
C900   C     0.21514   0.94979   0.73457   0.00000  Uiso   1.00
C901   C     0.16194   0.59300   0.79160   0.00000  Uiso   1.00
C902   C     0.20858   0.90424   0.73062   0.00000  Uiso   1.00
C903   C     0.17600   0.61596   0.75229   0.00000  Uiso   1.00
C904   C     0.16801   0.88359   0.75022   0.00000  Uiso   1.00
C905   C     0.19804   0.59282   0.71671   0.00000  Uiso   1.00
C906   C     0.13256   0.90847   0.77287   0.00000  Uiso   1.00
C907   C     0.19943   0.54661   0.71821   0.00000  Uiso   1.00
C908   C     0.13785   0.95438   0.77457   0.00000  Uiso   1.00
C909   C     0.18292   0.52368   0.75659   0.00000  Uiso   1.00
C910   C     0.17933   0.97523   0.75594   0.00000  Uiso   1.00
H911   H     0.32484   0.75024   0.69441   0.00000  Uiso   1.00
H912   H     0.00848   0.74466   0.80546   0.00000  Uiso   1.00
H913   H     0.15626   0.53048   0.82550   0.00000  Uiso   1.00
H914   H     0.24819   0.96490   0.72093   0.00000  Uiso   1.00
H915   H     0.14671   0.61027   0.82017   0.00000  Uiso   1.00
H916   H     0.23606   0.88493   0.71346   0.00000  Uiso   1.00
H917   H     0.21293   0.52888   0.68908   0.00000  Uiso   1.00
H918   H     0.10862   0.97372   0.78949   0.00000  Uiso   1.00
H919   H     0.08837   0.72152   0.52511   0.00000  Uiso   1.00
H920   H     0.17364   0.81890   0.96844   0.00000  Uiso   1.00
H921   H     0.09013   0.72260   0.61183   0.00000  Uiso   1.00
H922   H     0.17527   0.81992   0.88173   0.00000  Uiso   1.00
H923   H     0.24314   0.77694   0.63163   0.00000  Uiso   1.00
H924   H     0.15756   0.68006   0.87528   0.00000  Uiso   1.00
N925   N     0.16667   0.74999   0.62624   0.00000  Uiso   1.00
N926   N     0.16667   0.75001   0.87377   0.00000  Uiso   1.00
O927   O     0.16667   0.68453   0.78974   0.00000  Uiso   1.00
O928   O     0.16666   0.81546   0.71026   0.00000  Uiso   1.00
O929   O     0.16667   0.68453   0.71026   0.00000  Uiso   1.00
O930   O     0.16666   0.81547   0.78974   0.00000  Uiso   1.00
O931   O     0.09058   0.75000   0.78045   0.00000  Uiso   1.00
O932   O     0.24275   0.75000   0.71956   0.00000  Uiso   1.00
O933   O     0.09058   0.74999   0.70097   0.00000  Uiso   1.00
O934   O     0.24275   0.75000   0.79904   0.00000  Uiso   1.00
Zn935  Zn    0.16667   0.75000   0.80307   0.00000  Uiso   1.00
Zn936  Zn    0.16667   0.74999   0.69693   0.00000  Uiso   1.00
C937   C     0.22365   0.61586   0.68015   0.00000  Uiso   1.00
C938   C     0.19597   0.62405   0.63453   0.00000  Uiso   1.00
C939   C     0.21988   0.64793   0.60114   0.00000  Uiso   1.00
C940   C     0.27178   0.66266   0.61252   0.00000  Uiso   1.00
C941   C     0.29971   0.65411   0.65775   0.00000  Uiso   1.00
C942   C     0.27563   0.63106   0.69168   0.00000  Uiso   1.00
H943   H     0.15563   0.61304   0.62535   0.00000  Uiso   1.00
H944   H     0.19782   0.65564   0.56674   0.00000  Uiso   1.00
H945   H     0.29016   0.68102   0.58646   0.00000  Uiso   1.00
H946   H     0.00651   0.66566   0.66665   0.00000  Uiso   1.00
H947   H     0.29732   0.62518   0.72691   0.00000  Uiso   1.00
C948   C     0.08870   0.88778   0.79340   0.00000  Uiso   1.00
C949   C     0.04493   0.87097   0.76341   0.00000  Uiso   1.00
C950   C     0.00252   0.85324   0.78295   0.00000  Uiso   1.00
C951   C     0.00398   0.85131   0.83240   0.00000  Uiso   1.00
C952   C     0.04768   0.86772   0.86246   0.00000  Uiso   1.00
C953   C     0.08977   0.88631   0.84305   0.00000  Uiso   1.00
H954   H     0.04340   0.87213   0.72503   0.00000  Uiso   1.00
H955   H     0.30199   0.84069   0.75974   0.00000  Uiso   1.00
H956   H     0.30457   0.83715   0.84737   0.00000  Uiso   1.00
H957   H     0.04881   0.86625   0.90076   0.00000  Uiso   1.00
H958   H     0.12324   0.89935   0.86661   0.00000  Uiso   1.00
C959   C     0.25992   0.77888   0.53991   0.00000  Uiso   1.00
C960   C     0.28418   0.75226   0.50864   0.00000  Uiso   1.00
C961   C     0.32866   0.76755   0.99050   0.00000  Uiso   1.00
C962   C     0.01703   0.80893   0.50446   0.00000  Uiso   1.00
C963   C     0.32735   0.83522   0.53637   0.00000  Uiso   1.00
C964   C     0.28229   0.82037   0.55400   0.00000  Uiso   1.00
H965   H     0.26867   0.71972   0.99825   0.00000  Uiso   1.00
H966   H     0.01321   0.74715   0.96584   0.00000  Uiso   1.00
H967   H     0.05176   0.82054   0.99067   0.00000  Uiso   1.00
H968   H     0.01090   0.86726   0.54724   0.00000  Uiso   1.00
H969   H     0.26447   0.84149   0.57811   0.00000  Uiso   1.00
C970   C     0.15716   0.66304   0.96682   0.00000  Uiso   1.00
C971   C     0.20204   0.63567   0.97367   0.00000  Uiso   1.00
C972   C     0.19907   0.59243   0.99171   0.00000  Uiso   1.00
C973   C     0.15123   0.57614   0.50251   0.00000  Uiso   1.00
C974   C     0.10611   0.60279   0.99449   0.00000  Uiso   1.00
C975   C     0.10885   0.64590   0.97607   0.00000  Uiso   1.00
H976   H     0.23922   0.64777   0.96507   0.00000  Uiso   1.00
H977   H     0.23386   0.57161   0.99741   0.00000  Uiso   1.00
H978   H     0.14901   0.54274   0.51664   0.00000  Uiso   1.00
H979   H     0.06889   0.58988   0.50208   0.00000  Uiso   1.00
H980   H     0.07328   0.66564   0.96851   0.00000  Uiso   1.00
C981   C     0.50246   0.66387   0.75047   0.00000  Uiso   1.00
C982   C     0.49939   0.83594   0.74985   0.00000  Uiso   1.00
C983   C     0.45674   0.73302   0.54729   0.00000  Uiso   1.00
C984   C     0.50323   0.78783   0.94894   0.00000  Uiso   1.00
C985   C     0.45737   0.73426   0.59686   0.00000  Uiso   1.00
C986   C     0.50424   0.78848   0.89945   0.00000  Uiso   1.00
C987   C     0.54290   0.76484   0.60762   0.00000  Uiso   1.00
C988   C     0.49436   0.71032   0.89600   0.00000  Uiso   1.00
C989   C     0.54474   0.76358   0.55791   0.00000  Uiso   1.00
C990   C     0.49333   0.70777   0.94552   0.00000  Uiso   1.00
C991   C     0.50052   0.74722   0.52674   0.00000  Uiso   1.00
C992   C     0.49814   0.74731   0.97312   0.00000  Uiso   1.00
C993   C     0.40036   0.74940   0.73757   0.00000  Uiso   1.00
C994   C     0.59962   0.74875   0.76241   0.00000  Uiso   1.00
C995   C     0.34536   0.74838   0.73078   0.00000  Uiso   1.00
C996   C     0.65460   0.74647   0.76909   0.00000  Uiso   1.00
C997   C     0.50007   0.54732   0.79436   0.00000  Uiso   1.00
C998   C     0.54848   0.94979   0.73457   0.00000  Uiso   1.00
C999   C     0.49527   0.59300   0.79160   0.00000  Uiso   1.00
C1000  C     0.54191   0.90424   0.73062   0.00000  Uiso   1.00
C1001  C     0.50934   0.61596   0.75229   0.00000  Uiso   1.00
C1002  C     0.50134   0.88359   0.75022   0.00000  Uiso   1.00
C1003  C     0.53137   0.59282   0.71671   0.00000  Uiso   1.00
C1004  C     0.46589   0.90847   0.77287   0.00000  Uiso   1.00
C1005  C     0.53276   0.54661   0.71821   0.00000  Uiso   1.00
C1006  C     0.47118   0.95438   0.77457   0.00000  Uiso   1.00
C1007  C     0.51626   0.52368   0.75659   0.00000  Uiso   1.00
C1008  C     0.51267   0.97523   0.75594   0.00000  Uiso   1.00
H1009  H     0.65818   0.75024   0.69441   0.00000  Uiso   1.00
H1010  H     0.34181   0.74466   0.80546   0.00000  Uiso   1.00
H1011  H     0.48959   0.53048   0.82550   0.00000  Uiso   1.00
H1012  H     0.58152   0.96490   0.72093   0.00000  Uiso   1.00
H1013  H     0.48004   0.61027   0.82017   0.00000  Uiso   1.00
H1014  H     0.56939   0.88493   0.71346   0.00000  Uiso   1.00
H1015  H     0.54627   0.52888   0.68908   0.00000  Uiso   1.00
H1016  H     0.44195   0.97372   0.78949   0.00000  Uiso   1.00
H1017  H     0.42170   0.72152   0.52511   0.00000  Uiso   1.00
H1018  H     0.50698   0.81890   0.96844   0.00000  Uiso   1.00
H1019  H     0.42346   0.72260   0.61183   0.00000  Uiso   1.00
H1020  H     0.50860   0.81992   0.88173   0.00000  Uiso   1.00
H1021  H     0.57648   0.77694   0.63163   0.00000  Uiso   1.00
H1022  H     0.49089   0.68006   0.87528   0.00000  Uiso   1.00
N1023  N     0.50000   0.74999   0.62624   0.00000  Uiso   1.00
N1024  N     0.50000   0.75001   0.87377   0.00000  Uiso   1.00
O1025  O     0.50000   0.68453   0.78974   0.00000  Uiso   1.00
O1026  O     0.50000   0.81546   0.71026   0.00000  Uiso   1.00
O1027  O     0.50000   0.68453   0.71026   0.00000  Uiso   1.00
O1028  O     0.50000   0.81547   0.78974   0.00000  Uiso   1.00
O1029  O     0.42392   0.75000   0.78045   0.00000  Uiso   1.00
O1030  O     0.57608   0.75000   0.71956   0.00000  Uiso   1.00
O1031  O     0.42392   0.74999   0.70097   0.00000  Uiso   1.00
O1032  O     0.57608   0.75000   0.79904   0.00000  Uiso   1.00
Zn1033 Zn    0.50000   0.75000   0.80307   0.00000  Uiso   1.00
Zn1034 Zn    0.50000   0.74999   0.69693   0.00000  Uiso   1.00
C1035  C     0.55699   0.61586   0.68015   0.00000  Uiso   1.00
C1036  C     0.52930   0.62405   0.63453   0.00000  Uiso   1.00
C1037  C     0.55321   0.64793   0.60114   0.00000  Uiso   1.00
C1038  C     0.60511   0.66266   0.61252   0.00000  Uiso   1.00
C1039  C     0.63305   0.65411   0.65775   0.00000  Uiso   1.00
C1040  C     0.60897   0.63106   0.69168   0.00000  Uiso   1.00
H1041  H     0.48896   0.61304   0.62535   0.00000  Uiso   1.00
H1042  H     0.53116   0.65564   0.56674   0.00000  Uiso   1.00
H1043  H     0.62349   0.68102   0.58646   0.00000  Uiso   1.00
H1044  H     0.33985   0.66566   0.66665   0.00000  Uiso   1.00
H1045  H     0.63065   0.62518   0.72691   0.00000  Uiso   1.00
C1046  C     0.42204   0.88778   0.79340   0.00000  Uiso   1.00
C1047  C     0.37826   0.87097   0.76341   0.00000  Uiso   1.00
C1048  C     0.33586   0.85324   0.78295   0.00000  Uiso   1.00
C1049  C     0.33731   0.85131   0.83240   0.00000  Uiso   1.00
C1050  C     0.38101   0.86772   0.86246   0.00000  Uiso   1.00
C1051  C     0.42310   0.88631   0.84305   0.00000  Uiso   1.00
H1052  H     0.37674   0.87213   0.72503   0.00000  Uiso   1.00
H1053  H     0.63532   0.84069   0.75974   0.00000  Uiso   1.00
H1054  H     0.63791   0.83715   0.84737   0.00000  Uiso   1.00
H1055  H     0.38214   0.86625   0.90076   0.00000  Uiso   1.00
H1056  H     0.45657   0.89935   0.86661   0.00000  Uiso   1.00
C1057  C     0.59325   0.77888   0.53991   0.00000  Uiso   1.00
C1058  C     0.61751   0.75226   0.50864   0.00000  Uiso   1.00
C1059  C     0.66200   0.76755   0.99050   0.00000  Uiso   1.00
C1060  C     0.35037   0.80893   0.50446   0.00000  Uiso   1.00
C1061  C     0.66068   0.83522   0.53637   0.00000  Uiso   1.00
C1062  C     0.61562   0.82037   0.55400   0.00000  Uiso   1.00
H1063  H     0.60200   0.71972   0.99825   0.00000  Uiso   1.00
H1064  H     0.34654   0.74715   0.96584   0.00000  Uiso   1.00
H1065  H     0.38510   0.82054   0.99067   0.00000  Uiso   1.00
H1066  H     0.34424   0.86726   0.54724   0.00000  Uiso   1.00
H1067  H     0.59781   0.84149   0.57811   0.00000  Uiso   1.00
C1068  C     0.49050   0.66304   0.96682   0.00000  Uiso   1.00
C1069  C     0.53538   0.63567   0.97367   0.00000  Uiso   1.00
C1070  C     0.53240   0.59243   0.99171   0.00000  Uiso   1.00
C1071  C     0.48456   0.57614   0.50251   0.00000  Uiso   1.00
C1072  C     0.43944   0.60279   0.99449   0.00000  Uiso   1.00
C1073  C     0.44218   0.64590   0.97607   0.00000  Uiso   1.00
H1074  H     0.57255   0.64777   0.96507   0.00000  Uiso   1.00
H1075  H     0.56720   0.57161   0.99741   0.00000  Uiso   1.00
H1076  H     0.48235   0.54274   0.51664   0.00000  Uiso   1.00
H1077  H     0.40222   0.58988   0.50208   0.00000  Uiso   1.00
H1078  H     0.40661   0.66564   0.96851   0.00000  Uiso   1.00
C1079  C     0.83579   0.66387   0.75047   0.00000  Uiso   1.00
C1080  C     0.83273   0.83594   0.74985   0.00000  Uiso   1.00
C1081  C     0.79008   0.73302   0.54729   0.00000  Uiso   1.00
C1082  C     0.83656   0.78783   0.94894   0.00000  Uiso   1.00
C1083  C     0.79070   0.73426   0.59686   0.00000  Uiso   1.00
C1084  C     0.83757   0.78848   0.89945   0.00000  Uiso   1.00
C1085  C     0.87624   0.76484   0.60762   0.00000  Uiso   1.00
C1086  C     0.82769   0.71032   0.89600   0.00000  Uiso   1.00
C1087  C     0.87808   0.76358   0.55791   0.00000  Uiso   1.00
C1088  C     0.82666   0.70777   0.94552   0.00000  Uiso   1.00
C1089  C     0.83385   0.74722   0.52674   0.00000  Uiso   1.00
C1090  C     0.83147   0.74731   0.97312   0.00000  Uiso   1.00
C1091  C     0.73369   0.74940   0.73757   0.00000  Uiso   1.00
C1092  C     0.93295   0.74875   0.76241   0.00000  Uiso   1.00
C1093  C     0.67869   0.74838   0.73078   0.00000  Uiso   1.00
C1094  C     0.98793   0.74647   0.76909   0.00000  Uiso   1.00
C1095  C     0.83340   0.54732   0.79436   0.00000  Uiso   1.00
C1096  C     0.88181   0.94979   0.73457   0.00000  Uiso   1.00
C1097  C     0.82860   0.59300   0.79160   0.00000  Uiso   1.00
C1098  C     0.87525   0.90424   0.73062   0.00000  Uiso   1.00
C1099  C     0.84267   0.61596   0.75229   0.00000  Uiso   1.00
C1100  C     0.83468   0.88359   0.75022   0.00000  Uiso   1.00
C1101  C     0.86471   0.59282   0.71671   0.00000  Uiso   1.00
C1102  C     0.79923   0.90847   0.77287   0.00000  Uiso   1.00
C1103  C     0.86609   0.54661   0.71821   0.00000  Uiso   1.00
C1104  C     0.80452   0.95438   0.77457   0.00000  Uiso   1.00
C1105  C     0.84959   0.52368   0.75659   0.00000  Uiso   1.00
C1106  C     0.84600   0.97523   0.75594   0.00000  Uiso   1.00
H1107  H     0.99151   0.75024   0.69441   0.00000  Uiso   1.00
H1108  H     0.67515   0.74466   0.80546   0.00000  Uiso   1.00
H1109  H     0.82293   0.53048   0.82550   0.00000  Uiso   1.00
H1110  H     0.91485   0.96490   0.72093   0.00000  Uiso   1.00
H1111  H     0.81338   0.61027   0.82017   0.00000  Uiso   1.00
H1112  H     0.90273   0.88493   0.71346   0.00000  Uiso   1.00
H1113  H     0.87960   0.52888   0.68908   0.00000  Uiso   1.00
H1114  H     0.77529   0.97372   0.78949   0.00000  Uiso   1.00
H1115  H     0.75503   0.72152   0.52511   0.00000  Uiso   1.00
H1116  H     0.84031   0.81890   0.96844   0.00000  Uiso   1.00
H1117  H     0.75679   0.72260   0.61183   0.00000  Uiso   1.00
H1118  H     0.84193   0.81992   0.88173   0.00000  Uiso   1.00
H1119  H     0.90981   0.77694   0.63163   0.00000  Uiso   1.00
H1120  H     0.82422   0.68006   0.87528   0.00000  Uiso   1.00
N1121  N     0.83333   0.74999   0.62624   0.00000  Uiso   1.00
N1122  N     0.83333   0.75001   0.87377   0.00000  Uiso   1.00
O1123  O     0.83334   0.68453   0.78974   0.00000  Uiso   1.00
O1124  O     0.83333   0.81546   0.71026   0.00000  Uiso   1.00
O1125  O     0.83334   0.68453   0.71026   0.00000  Uiso   1.00
O1126  O     0.83333   0.81547   0.78974   0.00000  Uiso   1.00
O1127  O     0.75725   0.75000   0.78045   0.00000  Uiso   1.00
O1128  O     0.90942   0.75000   0.71956   0.00000  Uiso   1.00
O1129  O     0.75725   0.74999   0.70097   0.00000  Uiso   1.00
O1130  O     0.90942   0.75000   0.79904   0.00000  Uiso   1.00
Zn1131 Zn    0.83333   0.75000   0.80307   0.00000  Uiso   1.00
Zn1132 Zn    0.83333   0.74999   0.69693   0.00000  Uiso   1.00
C1133  C     0.89032   0.61586   0.68015   0.00000  Uiso   1.00
C1134  C     0.86263   0.62405   0.63453   0.00000  Uiso   1.00
C1135  C     0.88654   0.64793   0.60114   0.00000  Uiso   1.00
C1136  C     0.93844   0.66266   0.61252   0.00000  Uiso   1.00
C1137  C     0.96638   0.65411   0.65775   0.00000  Uiso   1.00
C1138  C     0.94230   0.63106   0.69168   0.00000  Uiso   1.00
H1139  H     0.82229   0.61304   0.62535   0.00000  Uiso   1.00
H1140  H     0.86449   0.65564   0.56674   0.00000  Uiso   1.00
H1141  H     0.95683   0.68102   0.58646   0.00000  Uiso   1.00
H1142  H     0.67318   0.66566   0.66665   0.00000  Uiso   1.00
H1143  H     0.96399   0.62518   0.72691   0.00000  Uiso   1.00
C1144  C     0.75537   0.88778   0.79340   0.00000  Uiso   1.00
C1145  C     0.71160   0.87097   0.76341   0.00000  Uiso   1.00
C1146  C     0.66919   0.85324   0.78295   0.00000  Uiso   1.00
C1147  C     0.67064   0.85131   0.83240   0.00000  Uiso   1.00
C1148  C     0.71434   0.86772   0.86246   0.00000  Uiso   1.00
C1149  C     0.75643   0.88631   0.84305   0.00000  Uiso   1.00
H1150  H     0.71007   0.87213   0.72503   0.00000  Uiso   1.00
H1151  H     0.96865   0.84069   0.75974   0.00000  Uiso   1.00
H1152  H     0.97124   0.83715   0.84737   0.00000  Uiso   1.00
H1153  H     0.71548   0.86625   0.90076   0.00000  Uiso   1.00
H1154  H     0.78990   0.89935   0.86661   0.00000  Uiso   1.00
C1155  C     0.92659   0.77888   0.53991   0.00000  Uiso   1.00
C1156  C     0.95084   0.75226   0.50864   0.00000  Uiso   1.00
C1157  C     0.99533   0.76755   0.99050   0.00000  Uiso   1.00
C1158  C     0.68370   0.80893   0.50446   0.00000  Uiso   1.00
C1159  C     0.99402   0.83522   0.53637   0.00000  Uiso   1.00
C1160  C     0.94895   0.82037   0.55400   0.00000  Uiso   1.00
H1161  H     0.93534   0.71972   0.99825   0.00000  Uiso   1.00
H1162  H     0.67987   0.74715   0.96584   0.00000  Uiso   1.00
H1163  H     0.71843   0.82054   0.99067   0.00000  Uiso   1.00
H1164  H     0.67757   0.86726   0.54724   0.00000  Uiso   1.00
H1165  H     0.93114   0.84149   0.57811   0.00000  Uiso   1.00
C1166  C     0.82383   0.66304   0.96682   0.00000  Uiso   1.00
C1167  C     0.86871   0.63567   0.97367   0.00000  Uiso   1.00
C1168  C     0.86574   0.59243   0.99171   0.00000  Uiso   1.00
C1169  C     0.81790   0.57614   0.50251   0.00000  Uiso   1.00
C1170  C     0.77277   0.60279   0.99449   0.00000  Uiso   1.00
C1171  C     0.77552   0.64590   0.97607   0.00000  Uiso   1.00
H1172  H     0.90589   0.64777   0.96507   0.00000  Uiso   1.00
H1173  H     0.90053   0.57161   0.99741   0.00000  Uiso   1.00
H1174  H     0.81568   0.54274   0.51664   0.00000  Uiso   1.00
H1175  H     0.73556   0.58988   0.50208   0.00000  Uiso   1.00
H1176  H     0.73995   0.66564   0.96851   0.00000  Uiso   1.00
loop_
_geom_bond_atom_site_label_1
_geom_bond_atom_site_label_2
_geom_bond_distance
_geom_bond_site_symmetry_2
_ccdc_geom_bond_type
C1     C21     1.448   .     S
C1     O47     1.288   .     A
C1     O45     1.286   .     A
C2     O46     1.284   .     A
C2     C22     1.431   .     S
C2     O48     1.282   .     A
C3     C5      1.403   .     A
C3     C11     1.406   .     A
C3     H37     1.078   .     S
C4     C12     1.408   .     A
C4     C6      1.407   .     A
C4     H38     1.083   .     S
C5     N43     1.361   .     A
C5     H39     1.081   .     S
C6     N44     1.363   .     A
C6     H40     1.080   .     S
C7     N43     1.364   .     A
C7     C9      1.417   .     A
C7     H41     1.082   .     S
C8     H42     1.080   .     S
C8     N44     1.362   .     A
C8     C10     1.409   .     A
C9     C77     1.487   .     S
C9     C11     1.422   .     A
C10    C88     1.475   .     S
C10    C12     1.420   .     A
C11    C600    1.512   1_554 S
C12    C599    1.512   .     S
C13    O51     1.276   .     A
C13    O49     1.276   .     A
C13    C15     1.398   .     S
C14    O50     1.275   .     A
C14    O52     1.276   .     A
C14    C16     1.399   .     S
C15    C212    1.327   1_455 S
C15    H225    1.088   1_455 S
C16    C113    1.327   .     S
C16    H128    1.088   .     S
C17    C27     1.400   .     A
C17    H31     1.083   .     S
C17    C19     1.377   .     A
C18    C20     1.380   .     A
C18    C28     1.401   .     A
C18    H32     1.082   .     S
C19    C21     1.399   .     A
C19    H33     1.083   .     S
C20    H34     1.083   .     S
C20    C22     1.395   .     A
C21    C23     1.412   .     A
C22    C24     1.405   .     A
C23    C25     1.387   .     A
C23    C55     1.476   .     S
C24    C26     1.385   .     A
C24    C66     1.478   .     S
C25    H35     1.083   .     S
C25    C27     1.402   .     A
C26    H36     1.083   .     S
C26    C28     1.404   .     A
C27    C322    1.457   1_545 S
C28    C321    1.457   .     S
H29    C113    1.088   .     S
H30    C212    1.088   1_455 S
N43    Zn54    2.004   .     S
N44    Zn53    2.004   .     S
O45    Zn53    2.002   .     S
O46    Zn54    2.002   .     S
O47    Zn54    1.998   .     S
O48    Zn53    1.998   .     S
O49    Zn53    1.966   .     S
O50    Zn54    1.966   .     S
O51    Zn54    1.975   .     S
O52    Zn53    1.975   .     S
C55    C56     1.402   .     A
C55    C60     1.405   .     A
C56    C57     1.397   .     A
C56    H61     1.083   .     S
C57    H62     1.077   .     S
C57    C58     1.398   .     A
C58    C59     1.397   .     A
C58    H63     1.082   .     S
C59    C60     1.398   .     A
C59    H162    1.083   .     S
C60    H65     1.083   .     S
H64    C255    1.083   1_455 S
C66    C67     1.402   .     A
C66    C71     1.404   .     A
C67    H72     1.083   .     S
C67    C68     1.397   .     A
C68    C69     1.397   .     A
C68    H269    1.080   1_455 S
C69    C70     1.398   .     A
C69    H270    1.083   1_455 S
C70    C71     1.399   .     A
C70    H75     1.082   .     S
C71    H76     1.083   .     S
H73    C166    1.080   .     S
H74    C167    1.083   .     S
C77    C78     1.407   .     A
C77    C82     1.406   .     A
C78    C667    1.397   1_554 S
C78    H671    1.081   1_554 S
C79    C666    1.397   .     S
C79    C766    1.396   .     S
C79    H182    1.082   .     S
C80    C863    1.396   1_454 S
C80    C277    1.397   1_455 S
C80    H673    1.083   1_554 S
C81    C82     1.399   .     A
C81    C178    1.397   .     S
C81    H184    1.082   .     S
C82    H87     1.083   .     S
H83    C666    1.081   .     S
H84    C275    1.082   1_455 S
H85    C668    1.083   .     S
H86    C277    1.082   1_455 S
C88    C93     1.403   .     A
C88    C89     1.404   .     A
C89    H94     1.083   .     S
C89    C90     1.398   .     A
C90    H95     1.082   .     S
C90    C679    1.398   .     S
C91    H96     1.082   .     S
C91    C678    1.398   1_554 S
C91    C680    1.398   1_554 S
C92    C93     1.398   .     A
C92    C679    1.398   .     S
C92    H685    1.082   .     S
C93    H98     1.083   .     S
H97    C680    1.082   1_554 S
C99    C119    1.448   .     S
C99    O145    1.288   .     A
C99    O143    1.286   .     A
C100   O144    1.284   .     A
C100   C120    1.431   .     S
C100   O146    1.282   .     A
C101   C103    1.403   .     A
C101   C109    1.406   .     A
C101   H135    1.078   .     S
C102   C110    1.408   .     A
C102   C104    1.407   .     A
C102   H136    1.083   .     S
C103   N141    1.361   .     A
C103   H137    1.081   .     S
C104   N142    1.363   .     A
C104   H138    1.080   .     S
C105   N141    1.364   .     A
C105   C107    1.417   .     A
C105   H139    1.082   .     S
C106   H140    1.080   .     S
C106   N142    1.362   .     A
C106   C108    1.409   .     A
C107   C175    1.487   .     S
C107   C109    1.422   .     A
C108   C186    1.475   .     S
C108   C110    1.420   .     A
C109   C698    1.512   1_554 S
C110   C697    1.512   .     S
C111   O149    1.276   .     A
C111   O147    1.276   .     A
C111   C113    1.398   .     S
C112   O148    1.275   .     A
C112   O150    1.276   .     A
C112   C114    1.399   .     S
C114   C211    1.327   .     S
C114   H226    1.088   .     S
C115   C125    1.400   .     A
C115   H129    1.083   .     S
C115   C117    1.377   .     A
C116   C118    1.380   .     A
C116   C126    1.401   .     A
C116   H130    1.082   .     S
C117   C119    1.399   .     A
C117   H131    1.083   .     S
C118   H132    1.083   .     S
C118   C120    1.395   .     A
C119   C121    1.412   .     A
C120   C122    1.405   .     A
C121   C123    1.387   .     A
C121   C153    1.476   .     S
C122   C124    1.385   .     A
C122   C164    1.478   .     S
C123   H133    1.083   .     S
C123   C125    1.402   .     A
C124   H134    1.083   .     S
C124   C126    1.404   .     A
C125   C420    1.457   1_545 S
C126   C419    1.457   .     S
H127   C211    1.088   .     S
N141   Zn152   2.004   .     S
N142   Zn151   2.004   .     S
O143   Zn151   2.002   .     S
O144   Zn152   2.002   .     S
O145   Zn152   1.998   .     S
O146   Zn151   1.998   .     S
O147   Zn151   1.966   .     S
O148   Zn152   1.966   .     S
O149   Zn152   1.975   .     S
O150   Zn151   1.975   .     S
C153   C154    1.402   .     A
C153   C158    1.405   .     A
C154   C155    1.397   .     A
C154   H159    1.083   .     S
C155   H160    1.077   .     S
C155   C156    1.398   .     A
C156   C157    1.397   .     A
C156   H161    1.082   .     S
C157   C158    1.398   .     A
C157   H260    1.083   .     S
C158   H163    1.083   .     S
C164   C165    1.402   .     A
C164   C169    1.404   .     A
C165   H170    1.083   .     S
C165   C166    1.397   .     A
C166   C167    1.397   .     A
C167   C168    1.398   .     A
C168   C169    1.399   .     A
C168   H173    1.082   .     S
C169   H174    1.083   .     S
H171   C264    1.080   .     S
H172   C265    1.083   .     S
C175   C176    1.407   .     A
C175   C180    1.406   .     A
C176   C765    1.397   1_554 S
C176   H769    1.081   1_554 S
C177   C764    1.397   .     S
C177   C864    1.396   .     S
C177   H280    1.082   .     S
C178   C667    1.396   1_554 S
C178   H771    1.083   1_554 S
C179   C180    1.399   .     A
C179   C276    1.397   .     S
C179   H282    1.082   .     S
C180   H185    1.083   .     S
H181   C764    1.081   .     S
H183   C766    1.083   .     S
C186   C191    1.403   .     A
C186   C187    1.404   .     A
C187   H192    1.083   .     S
C187   C188    1.398   .     A
C188   H193    1.082   .     S
C188   C777    1.398   .     S
C189   H194    1.082   .     S
C189   C776    1.398   1_554 S
C189   C778    1.398   1_554 S
C190   C191    1.398   .     A
C190   C777    1.398   .     S
C190   H783    1.082   .     S
C191   H196    1.083   .     S
H195   C778    1.082   1_554 S
C197   C217    1.448   .     S
C197   O243    1.288   .     A
C197   O241    1.286   .     A
C198   O242    1.284   .     A
C198   C218    1.431   .     S
C198   O244    1.282   .     A
C199   C201    1.403   .     A
C199   C207    1.406   .     A
C199   H233    1.078   .     S
C200   C208    1.408   .     A
C200   C202    1.407   .     A
C200   H234    1.083   .     S
C201   N239    1.361   .     A
C201   H235    1.081   .     S
C202   N240    1.363   .     A
C202   H236    1.080   .     S
C203   N239    1.364   .     A
C203   C205    1.417   .     A
C203   H237    1.082   .     S
C204   H238    1.080   .     S
C204   N240    1.362   .     A
C204   C206    1.409   .     A
C205   C273    1.487   .     S
C205   C207    1.422   .     A
C206   C284    1.475   .     S
C206   C208    1.420   .     A
C207   C796    1.512   1_554 S
C208   C795    1.512   .     S
C209   O247    1.276   .     A
C209   O245    1.276   .     A
C209   C211    1.398   .     S
C210   O246    1.275   .     A
C210   O248    1.276   .     A
C210   C212    1.399   .     S
C212   C15     1.327   1_655 S
C212   H30     1.088   1_655 S
C213   C223    1.400   .     A
C213   H227    1.083   .     S
C213   C215    1.377   .     A
C214   C216    1.380   .     A
C214   C224    1.401   .     A
C214   H228    1.082   .     S
C215   C217    1.399   .     A
C215   H229    1.083   .     S
C216   H230    1.083   .     S
C216   C218    1.395   .     A
C217   C219    1.412   .     A
C218   C220    1.405   .     A
C219   C221    1.387   .     A
C219   C251    1.476   .     S
C220   C222    1.385   .     A
C220   C262    1.478   .     S
C221   H231    1.083   .     S
C221   C223    1.402   .     A
C222   H232    1.083   .     S
C222   C224    1.404   .     A
C223   C518    1.457   1_545 S
C224   C517    1.457   .     S
H225   C15     1.088   1_655 S
N239   Zn250   2.004   .     S
N240   Zn249   2.004   .     S
O241   Zn249   2.002   .     S
O242   Zn250   2.002   .     S
O243   Zn250   1.998   .     S
O244   Zn249   1.998   .     S
O245   Zn249   1.966   .     S
O246   Zn250   1.966   .     S
O247   Zn250   1.975   .     S
O248   Zn249   1.975   .     S
C251   C252    1.402   .     A
C251   C256    1.405   .     A
C252   C253    1.397   .     A
C252   H257    1.083   .     S
C253   H258    1.077   .     S
C253   C254    1.398   .     A
C254   C255    1.397   .     A
C254   H259    1.082   .     S
C255   C256    1.398   .     A
C255   H64     1.083   1_655 S
C256   H261    1.083   .     S
C262   C263    1.402   .     A
C262   C267    1.404   .     A
C263   H268    1.083   .     S
C263   C264    1.397   .     A
C264   C265    1.397   .     A
C265   C266    1.398   .     A
C266   C267    1.399   .     A
C266   H271    1.082   .     S
C267   H272    1.083   .     S
H269   C68     1.080   1_655 S
H270   C69     1.083   1_655 S
C273   C274    1.407   .     A
C273   C278    1.406   .     A
C274   C863    1.397   1_554 S
C274   H867    1.081   1_554 S
C275   C862    1.397   .     S
C275   C668    1.396   1_655 S
C275   H84     1.082   1_655 S
C276   C765    1.396   1_554 S
C276   H869    1.083   1_554 S
C277   C278    1.399   .     A
C277   C80     1.397   1_655 S
C277   H86     1.082   1_655 S
C278   H283    1.083   .     S
H279   C862    1.081   .     S
H281   C864    1.083   .     S
C284   C289    1.403   .     A
C284   C285    1.404   .     A
C285   H290    1.083   .     S
C285   C286    1.398   .     A
C286   H291    1.082   .     S
C286   C875    1.398   .     S
C287   H292    1.082   .     S
C287   C874    1.398   1_554 S
C287   C876    1.398   1_554 S
C288   C289    1.398   .     A
C288   C875    1.398   .     S
C288   H881    1.082   .     S
C289   H294    1.083   .     S
H293   C876    1.082   1_554 S
C295   C315    1.448   .     S
C295   O341    1.288   .     A
C295   O339    1.286   .     A
C296   O340    1.284   .     A
C296   C316    1.431   .     S
C296   O342    1.282   .     A
C297   C299    1.403   .     A
C297   C305    1.406   .     A
C297   H331    1.078   .     S
C298   C306    1.408   .     A
C298   C300    1.407   .     A
C298   H332    1.083   .     S
C299   N337    1.361   .     A
C299   H333    1.081   .     S
C300   N338    1.363   .     A
C300   H334    1.080   .     S
C301   N337    1.364   .     A
C301   C303    1.417   .     A
C301   H335    1.082   .     S
C302   H336    1.080   .     S
C302   N338    1.362   .     A
C302   C304    1.409   .     A
C303   C371    1.487   .     S
C303   C305    1.422   .     A
C304   C382    1.475   .     S
C304   C306    1.420   .     A
C305   C894    1.512   1_554 S
C306   C893    1.512   .     S
C307   O345    1.276   .     A
C307   O343    1.276   .     A
C307   C309    1.398   .     S
C308   O344    1.275   .     A
C308   O346    1.276   .     A
C308   C310    1.399   .     S
C309   C506    1.327   1_455 S
C309   H519    1.088   1_455 S
C310   C407    1.327   .     S
C310   H422    1.088   .     S
C311   C321    1.400   .     A
C311   H325    1.083   .     S
C311   C313    1.377   .     A
C312   C314    1.380   .     A
C312   C322    1.401   .     A
C312   H326    1.082   .     S
C313   C315    1.399   .     A
C313   H327    1.083   .     S
C314   H328    1.083   .     S
C314   C316    1.395   .     A
C315   C317    1.412   .     A
C316   C318    1.405   .     A
C317   C319    1.387   .     A
C317   C349    1.476   .     S
C318   C320    1.385   .     A
C318   C360    1.478   .     S
C319   H329    1.083   .     S
C319   C321    1.402   .     A
C320   H330    1.083   .     S
C320   C322    1.404   .     A
C322   C27     1.457   1_565 S
H323   C407    1.088   .     S
H324   C506    1.088   1_455 S
N337   Zn348   2.004   .     S
N338   Zn347   2.004   .     S
O339   Zn347   2.002   .     S
O340   Zn348   2.002   .     S
O341   Zn348   1.998   .     S
O342   Zn347   1.998   .     S
O343   Zn347   1.966   .     S
O344   Zn348   1.966   .     S
O345   Zn348   1.975   .     S
O346   Zn347   1.975   .     S
C349   C350    1.402   .     A
C349   C354    1.405   .     A
C350   C351    1.397   .     A
C350   H355    1.083   .     S
C351   H356    1.077   .     S
C351   C352    1.398   .     A
C352   C353    1.397   .     A
C352   H357    1.082   .     S
C353   C354    1.398   .     A
C353   H456    1.083   .     S
C354   H359    1.083   .     S
H358   C549    1.083   1_455 S
C360   C361    1.402   .     A
C360   C365    1.404   .     A
C361   H366    1.083   .     S
C361   C362    1.397   .     A
C362   C363    1.397   .     A
C362   H563    1.080   1_455 S
C363   C364    1.398   .     A
C363   H564    1.083   1_455 S
C364   C365    1.399   .     A
C364   H369    1.082   .     S
C365   H370    1.083   .     S
H367   C460    1.080   .     S
H368   C461    1.083   .     S
C371   C372    1.407   .     A
C371   C376    1.406   .     A
C372   C961    1.397   1_554 S
C372   H965    1.081   1_554 S
C373   C960    1.397   .     S
C373   C1060   1.396   .     S
C373   H476    1.082   .     S
C374   C1157   1.396   1_454 S
C374   C571    1.397   1_455 S
C374   H967    1.083   1_554 S
C375   C376    1.399   .     A
C375   C472    1.397   .     S
C375   H478    1.082   .     S
C376   H381    1.083   .     S
H377   C960    1.081   .     S
H378   C569    1.082   1_455 S
H379   C962    1.083   .     S
H380   C571    1.082   1_455 S
C382   C387    1.403   .     A
C382   C383    1.404   .     A
C383   H388    1.083   .     S
C383   C384    1.398   .     A
C384   H389    1.082   .     S
C384   C973    1.398   .     S
C385   H390    1.082   .     S
C385   C972    1.398   1_554 S
C385   C974    1.398   1_554 S
C386   C387    1.398   .     A
C386   C973    1.398   .     S
C386   H979    1.082   .     S
C387   H392    1.083   .     S
H391   C974    1.082   1_554 S
C393   C413    1.448   .     S
C393   O439    1.288   .     A
C393   O437    1.286   .     A
C394   O438    1.284   .     A
C394   C414    1.431   .     S
C394   O440    1.282   .     A
C395   C397    1.403   .     A
C395   C403    1.406   .     A
C395   H429    1.078   .     S
C396   C404    1.408   .     A
C396   C398    1.407   .     A
C396   H430    1.083   .     S
C397   N435    1.361   .     A
C397   H431    1.081   .     S
C398   N436    1.363   .     A
C398   H432    1.080   .     S
C399   N435    1.364   .     A
C399   C401    1.417   .     A
C399   H433    1.082   .     S
C400   H434    1.080   .     S
C400   N436    1.362   .     A
C400   C402    1.409   .     A
C401   C469    1.487   .     S
C401   C403    1.422   .     A
C402   C480    1.475   .     S
C402   C404    1.420   .     A
C403   C992    1.512   1_554 S
C404   C991    1.512   .     S
C405   O443    1.276   .     A
C405   O441    1.276   .     A
C405   C407    1.398   .     S
C406   O442    1.275   .     A
C406   O444    1.276   .     A
C406   C408    1.399   .     S
C408   C505    1.327   .     S
C408   H520    1.088   .     S
C409   C419    1.400   .     A
C409   H423    1.083   .     S
C409   C411    1.377   .     A
C410   C412    1.380   .     A
C410   C420    1.401   .     A
C410   H424    1.082   .     S
C411   C413    1.399   .     A
C411   H425    1.083   .     S
C412   H426    1.083   .     S
C412   C414    1.395   .     A
C413   C415    1.412   .     A
C414   C416    1.405   .     A
C415   C417    1.387   .     A
C415   C447    1.476   .     S
C416   C418    1.385   .     A
C416   C458    1.478   .     S
C417   H427    1.083   .     S
C417   C419    1.402   .     A
C418   H428    1.083   .     S
C418   C420    1.404   .     A
C420   C125    1.457   1_565 S
H421   C505    1.088   .     S
N435   Zn446   2.004   .     S
N436   Zn445   2.004   .     S
O437   Zn445   2.002   .     S
O438   Zn446   2.002   .     S
O439   Zn446   1.998   .     S
O440   Zn445   1.998   .     S
O441   Zn445   1.966   .     S
O442   Zn446   1.966   .     S
O443   Zn446   1.975   .     S
O444   Zn445   1.975   .     S
C447   C448    1.402   .     A
C447   C452    1.405   .     A
C448   C449    1.397   .     A
C448   H453    1.083   .     S
C449   H454    1.077   .     S
C449   C450    1.398   .     A
C450   C451    1.397   .     A
C450   H455    1.082   .     S
C451   C452    1.398   .     A
C451   H554    1.083   .     S
C452   H457    1.083   .     S
C458   C459    1.402   .     A
C458   C463    1.404   .     A
C459   H464    1.083   .     S
C459   C460    1.397   .     A
C460   C461    1.397   .     A
C461   C462    1.398   .     A
C462   C463    1.399   .     A
C462   H467    1.082   .     S
C463   H468    1.083   .     S
H465   C558    1.080   .     S
H466   C559    1.083   .     S
C469   C470    1.407   .     A
C469   C474    1.406   .     A
C470   C1059   1.397   1_554 S
C470   H1063   1.081   1_554 S
C471   C1058   1.397   .     S
C471   C1158   1.396   .     S
C471   H574    1.082   .     S
C472   C961    1.396   1_554 S
C472   H1065   1.083   1_554 S
C473   C474    1.399   .     A
C473   C570    1.397   .     S
C473   H576    1.082   .     S
C474   H479    1.083   .     S
H475   C1058   1.081   .     S
H477   C1060   1.083   .     S
C480   C485    1.403   .     A
C480   C481    1.404   .     A
C481   H486    1.083   .     S
C481   C482    1.398   .     A
C482   H487    1.082   .     S
C482   C1071   1.398   .     S
C483   H488    1.082   .     S
C483   C1070   1.398   1_554 S
C483   C1072   1.398   1_554 S
C484   C485    1.398   .     A
C484   C1071   1.398   .     S
C484   H1077   1.082   .     S
C485   H490    1.083   .     S
H489   C1072   1.082   1_554 S
C491   C511    1.448   .     S
C491   O537    1.288   .     A
C491   O535    1.286   .     A
C492   O536    1.284   .     A
C492   C512    1.431   .     S
C492   O538    1.282   .     A
C493   C495    1.403   .     A
C493   C501    1.406   .     A
C493   H527    1.078   .     S
C494   C502    1.408   .     A
C494   C496    1.407   .     A
C494   H528    1.083   .     S
C495   N533    1.361   .     A
C495   H529    1.081   .     S
C496   N534    1.363   .     A
C496   H530    1.080   .     S
C497   N533    1.364   .     A
C497   C499    1.417   .     A
C497   H531    1.082   .     S
C498   H532    1.080   .     S
C498   N534    1.362   .     A
C498   C500    1.409   .     A
C499   C567    1.487   .     S
C499   C501    1.422   .     A
C500   C578    1.475   .     S
C500   C502    1.420   .     A
C501   C1090   1.512   1_554 S
C502   C1089   1.512   .     S
C503   O541    1.276   .     A
C503   O539    1.276   .     A
C503   C505    1.398   .     S
C504   O540    1.275   .     A
C504   O542    1.276   .     A
C504   C506    1.399   .     S
C506   C309    1.327   1_655 S
C506   H324    1.088   1_655 S
C507   C517    1.400   .     A
C507   H521    1.083   .     S
C507   C509    1.377   .     A
C508   C510    1.380   .     A
C508   C518    1.401   .     A
C508   H522    1.082   .     S
C509   C511    1.399   .     A
C509   H523    1.083   .     S
C510   H524    1.083   .     S
C510   C512    1.395   .     A
C511   C513    1.412   .     A
C512   C514    1.405   .     A
C513   C515    1.387   .     A
C513   C545    1.476   .     S
C514   C516    1.385   .     A
C514   C556    1.478   .     S
C515   H525    1.083   .     S
C515   C517    1.402   .     A
C516   H526    1.083   .     S
C516   C518    1.404   .     A
C518   C223    1.457   1_565 S
H519   C309    1.088   1_655 S
N533   Zn544   2.004   .     S
N534   Zn543   2.004   .     S
O535   Zn543   2.002   .     S
O536   Zn544   2.002   .     S
O537   Zn544   1.998   .     S
O538   Zn543   1.998   .     S
O539   Zn543   1.966   .     S
O540   Zn544   1.966   .     S
O541   Zn544   1.975   .     S
O542   Zn543   1.975   .     S
C545   C546    1.402   .     A
C545   C550    1.405   .     A
C546   C547    1.397   .     A
C546   H551    1.083   .     S
C547   H552    1.077   .     S
C547   C548    1.398   .     A
C548   C549    1.397   .     A
C548   H553    1.082   .     S
C549   C550    1.398   .     A
C549   H358    1.083   1_655 S
C550   H555    1.083   .     S
C556   C557    1.402   .     A
C556   C561    1.404   .     A
C557   H562    1.083   .     S
C557   C558    1.397   .     A
C558   C559    1.397   .     A
C559   C560    1.398   .     A
C560   C561    1.399   .     A
C560   H565    1.082   .     S
C561   H566    1.083   .     S
H563   C362    1.080   1_655 S
H564   C363    1.083   1_655 S
C567   C568    1.407   .     A
C567   C572    1.406   .     A
C568   C1157   1.397   1_554 S
C568   H1161   1.081   1_554 S
C569   C1156   1.397   .     S
C569   C962    1.396   1_655 S
C569   H378    1.082   1_655 S
C570   C1059   1.396   1_554 S
C570   H1163   1.083   1_554 S
C571   C572    1.399   .     A
C571   C374    1.397   1_655 S
C571   H380    1.082   1_655 S
C572   H577    1.083   .     S
H573   C1156   1.081   .     S
H575   C1158   1.083   .     S
C578   C583    1.403   .     A
C578   C579    1.404   .     A
C579   H584    1.083   .     S
C579   C580    1.398   .     A
C580   H585    1.082   .     S
C580   C1169   1.398   .     S
C581   H586    1.082   .     S
C581   C1168   1.398   1_554 S
C581   C1170   1.398   1_554 S
C582   C583    1.398   .     A
C582   C1169   1.398   .     S
C582   H1175   1.082   .     S
C583   H588    1.083   .     S
H587   C1170   1.082   1_554 S
C589   C609    1.448   .     S
C589   O635    1.288   .     A
C589   O633    1.286   .     A
C590   O634    1.284   .     A
C590   C610    1.431   .     S
C590   O636    1.282   .     A
C591   C593    1.403   .     A
C591   C599    1.406   .     A
C591   H625    1.078   .     S
C592   C600    1.408   .     A
C592   C594    1.407   .     A
C592   H626    1.083   .     S
C593   N631    1.361   .     A
C593   H627    1.081   .     S
C594   N632    1.363   .     A
C594   H628    1.080   .     S
C595   N631    1.364   .     A
C595   C597    1.417   .     A
C595   H629    1.082   .     S
C596   H630    1.080   .     S
C596   N632    1.362   .     A
C596   C598    1.409   .     A
C597   C665    1.487   .     S
C597   C599    1.422   .     A
C598   C676    1.475   .     S
C598   C600    1.420   .     A
C600   C11     1.512   1_556 S
C601   O639    1.276   .     A
C601   O637    1.276   .     A
C601   C603    1.398   .     S
C602   O638    1.275   .     A
C602   O640    1.276   .     A
C602   C604    1.399   .     S
C603   C800    1.327   1_455 S
C603   H813    1.088   1_455 S
C604   C701    1.327   .     S
C604   H716    1.088   .     S
C605   C615    1.400   .     A
C605   H619    1.083   .     S
C605   C607    1.377   .     A
C606   C608    1.380   .     A
C606   C616    1.401   .     A
C606   H620    1.082   .     S
C607   C609    1.399   .     A
C607   H621    1.083   .     S
C608   H622    1.083   .     S
C608   C610    1.395   .     A
C609   C611    1.412   .     A
C610   C612    1.405   .     A
C611   C613    1.387   .     A
C611   C643    1.476   .     S
C612   C614    1.385   .     A
C612   C654    1.478   .     S
C613   H623    1.083   .     S
C613   C615    1.402   .     A
C614   H624    1.083   .     S
C614   C616    1.404   .     A
C615   C910    1.457   1_545 S
C616   C909    1.457   .     S
H617   C701    1.088   .     S
H618   C800    1.088   1_455 S
N631   Zn642   2.004   .     S
N632   Zn641   2.004   .     S
O633   Zn641   2.002   .     S
O634   Zn642   2.002   .     S
O635   Zn642   1.998   .     S
O636   Zn641   1.998   .     S
O637   Zn641   1.966   .     S
O638   Zn642   1.966   .     S
O639   Zn642   1.975   .     S
O640   Zn641   1.975   .     S
C643   C644    1.402   .     A
C643   C648    1.405   .     A
C644   C645    1.397   .     A
C644   H649    1.083   .     S
C645   H650    1.077   .     S
C645   C646    1.398   .     A
C646   C647    1.397   .     A
C646   H651    1.082   .     S
C647   C648    1.398   .     A
C647   H750    1.083   .     S
C648   H653    1.083   .     S
H652   C843    1.083   1_455 S
C654   C655    1.402   .     A
C654   C659    1.404   .     A
C655   H660    1.083   .     S
C655   C656    1.397   .     A
C656   C657    1.397   .     A
C656   H857    1.080   1_455 S
C657   C658    1.398   .     A
C657   H858    1.083   1_455 S
C658   C659    1.399   .     A
C658   H663    1.082   .     S
C659   H664    1.083   .     S
H661   C754    1.080   .     S
H662   C755    1.083   .     S
C665   C666    1.407   .     A
C665   C670    1.406   .     A
C667   C78     1.397   1_556 S
C667   C178    1.396   1_556 S
C667   H770    1.082   .     S
C668   C275    1.396   1_455 S
C668   C865    1.397   1_455 S
C669   C670    1.399   .     A
C669   C766    1.397   .     S
C669   H772    1.082   .     S
C670   H675    1.083   .     S
H671   C78     1.081   1_556 S
H672   C863    1.082   1_455 S
H673   C80     1.083   1_556 S
H674   C865    1.082   1_455 S
C676   C681    1.403   .     A
C676   C677    1.404   .     A
C677   H682    1.083   .     S
C677   C678    1.398   .     A
C678   H683    1.082   .     S
C678   C91     1.398   1_556 S
C679   H684    1.082   .     S
C680   C681    1.398   .     A
C680   C91     1.398   1_556 S
C680   H97     1.082   1_556 S
C681   H686    1.083   .     S
C687   C707    1.448   .     S
C687   O733    1.288   .     A
C687   O731    1.286   .     A
C688   O732    1.284   .     A
C688   C708    1.431   .     S
C688   O734    1.282   .     A
C689   C691    1.403   .     A
C689   C697    1.406   .     A
C689   H723    1.078   .     S
C690   C698    1.408   .     A
C690   C692    1.407   .     A
C690   H724    1.083   .     S
C691   N729    1.361   .     A
C691   H725    1.081   .     S
C692   N730    1.363   .     A
C692   H726    1.080   .     S
C693   N729    1.364   .     A
C693   C695    1.417   .     A
C693   H727    1.082   .     S
C694   H728    1.080   .     S
C694   N730    1.362   .     A
C694   C696    1.409   .     A
C695   C763    1.487   .     S
C695   C697    1.422   .     A
C696   C774    1.475   .     S
C696   C698    1.420   .     A
C698   C109    1.512   1_556 S
C699   O737    1.276   .     A
C699   O735    1.276   .     A
C699   C701    1.398   .     S
C700   O736    1.275   .     A
C700   O738    1.276   .     A
C700   C702    1.399   .     S
C702   C799    1.327   .     S
C702   H814    1.088   .     S
C703   C713    1.400   .     A
C703   H717    1.083   .     S
C703   C705    1.377   .     A
C704   C706    1.380   .     A
C704   C714    1.401   .     A
C704   H718    1.082   .     S
C705   C707    1.399   .     A
C705   H719    1.083   .     S
C706   H720    1.083   .     S
C706   C708    1.395   .     A
C707   C709    1.412   .     A
C708   C710    1.405   .     A
C709   C711    1.387   .     A
C709   C741    1.476   .     S
C710   C712    1.385   .     A
C710   C752    1.478   .     S
C711   H721    1.083   .     S
C711   C713    1.402   .     A
C712   H722    1.083   .     S
C712   C714    1.404   .     A
C713   C1008   1.457   1_545 S
C714   C1007   1.457   .     S
H715   C799    1.088   .     S
N729   Zn740   2.004   .     S
N730   Zn739   2.004   .     S
O731   Zn739   2.002   .     S
O732   Zn740   2.002   .     S
O733   Zn740   1.998   .     S
O734   Zn739   1.998   .     S
O735   Zn739   1.966   .     S
O736   Zn740   1.966   .     S
O737   Zn740   1.975   .     S
O738   Zn739   1.975   .     S
C741   C742    1.402   .     A
C741   C746    1.405   .     A
C742   C743    1.397   .     A
C742   H747    1.083   .     S
C743   H748    1.077   .     S
C743   C744    1.398   .     A
C744   C745    1.397   .     A
C744   H749    1.082   .     S
C745   C746    1.398   .     A
C745   H848    1.083   .     S
C746   H751    1.083   .     S
C752   C753    1.402   .     A
C752   C757    1.404   .     A
C753   H758    1.083   .     S
C753   C754    1.397   .     A
C754   C755    1.397   .     A
C755   C756    1.398   .     A
C756   C757    1.399   .     A
C756   H761    1.082   .     S
C757   H762    1.083   .     S
H759   C852    1.080   .     S
H760   C853    1.083   .     S
C763   C764    1.407   .     A
C763   C768    1.406   .     A
C765   C176    1.397   1_556 S
C765   C276    1.396   1_556 S
C765   H868    1.082   .     S
C767   C768    1.399   .     A
C767   C864    1.397   .     S
C767   H870    1.082   .     S
C768   H773    1.083   .     S
H769   C176    1.081   1_556 S
H771   C178    1.083   1_556 S
C774   C779    1.403   .     A
C774   C775    1.404   .     A
C775   H780    1.083   .     S
C775   C776    1.398   .     A
C776   H781    1.082   .     S
C776   C189    1.398   1_556 S
C777   H782    1.082   .     S
C778   C779    1.398   .     A
C778   C189    1.398   1_556 S
C778   H195    1.082   1_556 S
C779   H784    1.083   .     S
C785   C805    1.448   .     S
C785   O831    1.288   .     A
C785   O829    1.286   .     A
C786   O830    1.284   .     A
C786   C806    1.431   .     S
C786   O832    1.282   .     A
C787   C789    1.403   .     A
C787   C795    1.406   .     A
C787   H821    1.078   .     S
C788   C796    1.408   .     A
C788   C790    1.407   .     A
C788   H822    1.083   .     S
C789   N827    1.361   .     A
C789   H823    1.081   .     S
C790   N828    1.363   .     A
C790   H824    1.080   .     S
C791   N827    1.364   .     A
C791   C793    1.417   .     A
C791   H825    1.082   .     S
C792   H826    1.080   .     S
C792   N828    1.362   .     A
C792   C794    1.409   .     A
C793   C861    1.487   .     S
C793   C795    1.422   .     A
C794   C872    1.475   .     S
C794   C796    1.420   .     A
C796   C207    1.512   1_556 S
C797   O835    1.276   .     A
C797   O833    1.276   .     A
C797   C799    1.398   .     S
C798   O834    1.275   .     A
C798   O836    1.276   .     A
C798   C800    1.399   .     S
C800   C603    1.327   1_655 S
C800   H618    1.088   1_655 S
C801   C811    1.400   .     A
C801   H815    1.083   .     S
C801   C803    1.377   .     A
C802   C804    1.380   .     A
C802   C812    1.401   .     A
C802   H816    1.082   .     S
C803   C805    1.399   .     A
C803   H817    1.083   .     S
C804   H818    1.083   .     S
C804   C806    1.395   .     A
C805   C807    1.412   .     A
C806   C808    1.405   .     A
C807   C809    1.387   .     A
C807   C839    1.476   .     S
C808   C810    1.385   .     A
C808   C850    1.478   .     S
C809   H819    1.083   .     S
C809   C811    1.402   .     A
C810   H820    1.083   .     S
C810   C812    1.404   .     A
C811   C1106   1.457   1_545 S
C812   C1105   1.457   .     S
H813   C603    1.088   1_655 S
N827   Zn838   2.004   .     S
N828   Zn837   2.004   .     S
O829   Zn837   2.002   .     S
O830   Zn838   2.002   .     S
O831   Zn838   1.998   .     S
O832   Zn837   1.998   .     S
O833   Zn837   1.966   .     S
O834   Zn838   1.966   .     S
O835   Zn838   1.975   .     S
O836   Zn837   1.975   .     S
C839   C840    1.402   .     A
C839   C844    1.405   .     A
C840   C841    1.397   .     A
C840   H845    1.083   .     S
C841   H846    1.077   .     S
C841   C842    1.398   .     A
C842   C843    1.397   .     A
C842   H847    1.082   .     S
C843   C844    1.398   .     A
C843   H652    1.083   1_655 S
C844   H849    1.083   .     S
C850   C851    1.402   .     A
C850   C855    1.404   .     A
C851   H856    1.083   .     S
C851   C852    1.397   .     A
C852   C853    1.397   .     A
C853   C854    1.398   .     A
C854   C855    1.399   .     A
C854   H859    1.082   .     S
C855   H860    1.083   .     S
H857   C656    1.080   1_655 S
H858   C657    1.083   1_655 S
C861   C862    1.407   .     A
C861   C866    1.406   .     A
C863   C274    1.397   1_556 S
C863   C80     1.396   1_656 S
C863   H672    1.082   1_655 S
C865   C866    1.399   .     A
C865   C668    1.397   1_655 S
C865   H674    1.082   1_655 S
C866   H871    1.083   .     S
H867   C274    1.081   1_556 S
H869   C276    1.083   1_556 S
C872   C877    1.403   .     A
C872   C873    1.404   .     A
C873   H878    1.083   .     S
C873   C874    1.398   .     A
C874   H879    1.082   .     S
C874   C287    1.398   1_556 S
C875   H880    1.082   .     S
C876   C877    1.398   .     A
C876   C287    1.398   1_556 S
C876   H293    1.082   1_556 S
C877   H882    1.083   .     S
C883   C903    1.448   .     S
C883   O929    1.288   .     A
C883   O927    1.286   .     A
C884   O928    1.284   .     A
C884   C904    1.431   .     S
C884   O930    1.282   .     A
C885   C887    1.403   .     A
C885   C893    1.406   .     A
C885   H919    1.078   .     S
C886   C894    1.408   .     A
C886   C888    1.407   .     A
C886   H920    1.083   .     S
C887   N925    1.361   .     A
C887   H921    1.081   .     S
C888   N926    1.363   .     A
C888   H922    1.080   .     S
C889   N925    1.364   .     A
C889   C891    1.417   .     A
C889   H923    1.082   .     S
C890   H924    1.080   .     S
C890   N926    1.362   .     A
C890   C892    1.409   .     A
C891   C959    1.487   .     S
C891   C893    1.422   .     A
C892   C970    1.475   .     S
C892   C894    1.420   .     A
C894   C305    1.512   1_556 S
C895   O933    1.276   .     A
C895   O931    1.276   .     A
C895   C897    1.398   .     S
C896   O932    1.275   .     A
C896   O934    1.276   .     A
C896   C898    1.399   .     S
C897   C1094   1.327   1_455 S
C897   H1107   1.088   1_455 S
C898   C995    1.327   .     S
C898   H1010   1.088   .     S
C899   C909    1.400   .     A
C899   H913    1.083   .     S
C899   C901    1.377   .     A
C900   C902    1.380   .     A
C900   C910    1.401   .     A
C900   H914    1.082   .     S
C901   C903    1.399   .     A
C901   H915    1.083   .     S
C902   H916    1.083   .     S
C902   C904    1.395   .     A
C903   C905    1.412   .     A
C904   C906    1.405   .     A
C905   C907    1.387   .     A
C905   C937    1.476   .     S
C906   C908    1.385   .     A
C906   C948    1.478   .     S
C907   H917    1.083   .     S
C907   C909    1.402   .     A
C908   H918    1.083   .     S
C908   C910    1.404   .     A
C910   C615    1.457   1_565 S
H911   C995    1.088   .     S
H912   C1094   1.088   1_455 S
N925   Zn936   2.004   .     S
N926   Zn935   2.004   .     S
O927   Zn935   2.002   .     S
O928   Zn936   2.002   .     S
O929   Zn936   1.998   .     S
O930   Zn935   1.998   .     S
O931   Zn935   1.966   .     S
O932   Zn936   1.966   .     S
O933   Zn936   1.975   .     S
O934   Zn935   1.975   .     S
C937   C938    1.402   .     A
C937   C942    1.405   .     A
C938   C939    1.397   .     A
C938   H943    1.083   .     S
C939   H944    1.077   .     S
C939   C940    1.398   .     A
C940   C941    1.397   .     A
C940   H945    1.082   .     S
C941   C942    1.398   .     A
C941   H1044   1.083   .     S
C942   H947    1.083   .     S
H946   C1137   1.083   1_455 S
C948   C949    1.402   .     A
C948   C953    1.404   .     A
C949   H954    1.083   .     S
C949   C950    1.397   .     A
C950   C951    1.397   .     A
C950   H1151   1.080   1_455 S
C951   C952    1.398   .     A
C951   H1152   1.083   1_455 S
C952   C953    1.399   .     A
C952   H957    1.082   .     S
C953   H958    1.083   .     S
H955   C1048   1.080   .     S
H956   C1049   1.083   .     S
C959   C960    1.407   .     A
C959   C964    1.406   .     A
C961   C372    1.397   1_556 S
C961   C472    1.396   1_556 S
C961   H1064   1.082   .     S
C962   C569    1.396   1_455 S
C962   C1159   1.397   1_455 S
C963   C964    1.399   .     A
C963   C1060   1.397   .     S
C963   H1066   1.082   .     S
C964   H969    1.083   .     S
H965   C372    1.081   1_556 S
H966   C1157   1.082   1_455 S
H967   C374    1.083   1_556 S
H968   C1159   1.082   1_455 S
C970   C975    1.403   .     A
C970   C971    1.404   .     A
C971   H976    1.083   .     S
C971   C972    1.398   .     A
C972   H977    1.082   .     S
C972   C385    1.398   1_556 S
C973   H978    1.082   .     S
C974   C975    1.398   .     A
C974   C385    1.398   1_556 S
C974   H391    1.082   1_556 S
C975   H980    1.083   .     S
C981   C1001   1.448   .     S
C981   O1027   1.288   .     A
C981   O1025   1.286   .     A
C982   O1026   1.284   .     A
C982   C1002   1.431   .     S
C982   O1028   1.282   .     A
C983   C985    1.403   .     A
C983   C991    1.406   .     A
C983   H1017   1.078   .     S
C984   C992    1.408   .     A
C984   C986    1.407   .     A
C984   H1018   1.083   .     S
C985   N1023   1.361   .     A
C985   H1019   1.081   .     S
C986   N1024   1.363   .     A
C986   H1020   1.080   .     S
C987   N1023   1.364   .     A
C987   C989    1.417   .     A
C987   H1021   1.082   .     S
C988   H1022   1.080   .     S
C988   N1024   1.362   .     A
C988   C990    1.409   .     A
C989   C1057   1.487   .     S
C989   C991    1.422   .     A
C990   C1068   1.475   .     S
C990   C992    1.420   .     A
C992   C403    1.512   1_556 S
C993   O1031   1.276   .     A
C993   O1029   1.276   .     A
C993   C995    1.398   .     S
C994   O1030   1.275   .     A
C994   O1032   1.276   .     A
C994   C996    1.399   .     S
C996   C1093   1.327   .     S
C996   H1108   1.088   .     S
C997   C1007   1.400   .     A
C997   H1011   1.083   .     S
C997   C999    1.377   .     A
C998   C1000   1.380   .     A
C998   C1008   1.401   .     A
C998   H1012   1.082   .     S
C999   C1001   1.399   .     A
C999   H1013   1.083   .     S
C1000  H1014   1.083   .     S
C1000  C1002   1.395   .     A
C1001  C1003   1.412   .     A
C1002  C1004   1.405   .     A
C1003  C1005   1.387   .     A
C1003  C1035   1.476   .     S
C1004  C1006   1.385   .     A
C1004  C1046   1.478   .     S
C1005  H1015   1.083   .     S
C1005  C1007   1.402   .     A
C1006  H1016   1.083   .     S
C1006  C1008   1.404   .     A
C1008  C713    1.457   1_565 S
H1009  C1093   1.088   .     S
N1023  Zn1034  2.004   .     S
N1024  Zn1033  2.004   .     S
O1025  Zn1033  2.002   .     S
O1026  Zn1034  2.002   .     S
O1027  Zn1034  1.998   .     S
O1028  Zn1033  1.998   .     S
O1029  Zn1033  1.966   .     S
O1030  Zn1034  1.966   .     S
O1031  Zn1034  1.975   .     S
O1032  Zn1033  1.975   .     S
C1035  C1036   1.402   .     A
C1035  C1040   1.405   .     A
C1036  C1037   1.397   .     A
C1036  H1041   1.083   .     S
C1037  H1042   1.077   .     S
C1037  C1038   1.398   .     A
C1038  C1039   1.397   .     A
C1038  H1043   1.082   .     S
C1039  C1040   1.398   .     A
C1039  H1142   1.083   .     S
C1040  H1045   1.083   .     S
C1046  C1047   1.402   .     A
C1046  C1051   1.404   .     A
C1047  H1052   1.083   .     S
C1047  C1048   1.397   .     A
C1048  C1049   1.397   .     A
C1049  C1050   1.398   .     A
C1050  C1051   1.399   .     A
C1050  H1055   1.082   .     S
C1051  H1056   1.083   .     S
H1053  C1146   1.080   .     S
H1054  C1147   1.083   .     S
C1057  C1058   1.407   .     A
C1057  C1062   1.406   .     A
C1059  C470    1.397   1_556 S
C1059  C570    1.396   1_556 S
C1059  H1162   1.082   .     S
C1061  C1062   1.399   .     A
C1061  C1158   1.397   .     S
C1061  H1164   1.082   .     S
C1062  H1067   1.083   .     S
H1063  C470    1.081   1_556 S
H1065  C472    1.083   1_556 S
C1068  C1073   1.403   .     A
C1068  C1069   1.404   .     A
C1069  H1074   1.083   .     S
C1069  C1070   1.398   .     A
C1070  H1075   1.082   .     S
C1070  C483    1.398   1_556 S
C1071  H1076   1.082   .     S
C1072  C1073   1.398   .     A
C1072  C483    1.398   1_556 S
C1072  H489    1.082   1_556 S
C1073  H1078   1.083   .     S
C1079  C1099   1.448   .     S
C1079  O1125   1.288   .     A
C1079  O1123   1.286   .     A
C1080  O1124   1.284   .     A
C1080  C1100   1.431   .     S
C1080  O1126   1.282   .     A
C1081  C1083   1.403   .     A
C1081  C1089   1.406   .     A
C1081  H1115   1.078   .     S
C1082  C1090   1.408   .     A
C1082  C1084   1.407   .     A
C1082  H1116   1.083   .     S
C1083  N1121   1.361   .     A
C1083  H1117   1.081   .     S
C1084  N1122   1.363   .     A
C1084  H1118   1.080   .     S
C1085  N1121   1.364   .     A
C1085  C1087   1.417   .     A
C1085  H1119   1.082   .     S
C1086  H1120   1.080   .     S
C1086  N1122   1.362   .     A
C1086  C1088   1.409   .     A
C1087  C1155   1.487   .     S
C1087  C1089   1.422   .     A
C1088  C1166   1.475   .     S
C1088  C1090   1.420   .     A
C1090  C501    1.512   1_556 S
C1091  O1129   1.276   .     A
C1091  O1127   1.276   .     A
C1091  C1093   1.398   .     S
C1092  O1128   1.275   .     A
C1092  O1130   1.276   .     A
C1092  C1094   1.399   .     S
C1094  C897    1.327   1_655 S
C1094  H912    1.088   1_655 S
C1095  C1105   1.400   .     A
C1095  H1109   1.083   .     S
C1095  C1097   1.377   .     A
C1096  C1098   1.380   .     A
C1096  C1106   1.401   .     A
C1096  H1110   1.082   .     S
C1097  C1099   1.399   .     A
C1097  H1111   1.083   .     S
C1098  H1112   1.083   .     S
C1098  C1100   1.395   .     A
C1099  C1101   1.412   .     A
C1100  C1102   1.405   .     A
C1101  C1103   1.387   .     A
C1101  C1133   1.476   .     S
C1102  C1104   1.385   .     A
C1102  C1144   1.478   .     S
C1103  H1113   1.083   .     S
C1103  C1105   1.402   .     A
C1104  H1114   1.083   .     S
C1104  C1106   1.404   .     A
C1106  C811    1.457   1_565 S
H1107  C897    1.088   1_655 S
N1121  Zn1132  2.004   .     S
N1122  Zn1131  2.004   .     S
O1123  Zn1131  2.002   .     S
O1124  Zn1132  2.002   .     S
O1125  Zn1132  1.998   .     S
O1126  Zn1131  1.998   .     S
O1127  Zn1131  1.966   .     S
O1128  Zn1132  1.966   .     S
O1129  Zn1132  1.975   .     S
O1130  Zn1131  1.975   .     S
C1133  C1134   1.402   .     A
C1133  C1138   1.405   .     A
C1134  C1135   1.397   .     A
C1134  H1139   1.083   .     S
C1135  H1140   1.077   .     S
C1135  C1136   1.398   .     A
C1136  C1137   1.397   .     A
C1136  H1141   1.082   .     S
C1137  C1138   1.398   .     A
C1137  H946    1.083   1_655 S
C1138  H1143   1.083   .     S
C1144  C1145   1.402   .     A
C1144  C1149   1.404   .     A
C1145  H1150   1.083   .     S
C1145  C1146   1.397   .     A
C1146  C1147   1.397   .     A
C1147  C1148   1.398   .     A
C1148  C1149   1.399   .     A
C1148  H1153   1.082   .     S
C1149  H1154   1.083   .     S
H1151  C950    1.080   1_655 S
H1152  C951    1.083   1_655 S
C1155  C1156   1.407   .     A
C1155  C1160   1.406   .     A
C1157  C568    1.397   1_556 S
C1157  C374    1.396   1_656 S
C1157  H966    1.082   1_655 S
C1159  C1160   1.399   .     A
C1159  C962    1.397   1_655 S
C1159  H968    1.082   1_655 S
C1160  H1165   1.083   .     S
H1161  C568    1.081   1_556 S
H1163  C570    1.083   1_556 S
C1166  C1171   1.403   .     A
C1166  C1167   1.404   .     A
C1167  H1172   1.083   .     S
C1167  C1168   1.398   .     A
C1168  H1173   1.082   .     S
C1168  C581    1.398   1_556 S
C1169  H1174   1.082   .     S
C1170  C1171   1.398   .     A
C1170  C581    1.398   1_556 S
C1170  H587    1.082   1_556 S
C1171  H1176   1.083   .     S
