data_str_m3_o10_o17_pcu_sym.60
_audit_creation_date              2020-01-03
_audit_creation_method            'Materials Studio'
_symmetry_space_group_name_H-M    'P1'
_symmetry_Int_Tables_number       1
_symmetry_cell_setting            triclinic
loop_
_symmetry_equiv_pos_as_xyz
  x,y,z
_cell_length_a                    23.2626
_cell_length_b                    25.7392
_cell_length_c                    29.8181
_cell_angle_alpha                 91.0849
_cell_angle_beta                  85.6913
_cell_angle_gamma                 93.8587
loop_
_atom_site_label
_atom_site_type_symbol
_atom_site_fract_x
_atom_site_fract_y
_atom_site_fract_z
_atom_site_U_iso_or_equiv
_atom_site_adp_type
_atom_site_occupancy
C1     C     0.18204   0.26470   0.25224   0.00000  Uiso   1.00
C2     C     0.21257   0.19307   0.40466   0.00000  Uiso   1.00
C3     C     0.16498   0.16878   0.11583   0.00000  Uiso   1.00
C4     C     0.16815   0.16526   0.38413   0.00000  Uiso   1.00
C5     C     0.20984   0.19634   0.09106   0.00000  Uiso   1.00
C6     C     0.12307   0.13808   0.40891   0.00000  Uiso   1.00
C7     C     0.21014   0.19746   0.04456   0.00000  Uiso   1.00
C8     C     0.12144   0.13883   0.45547   0.00000  Uiso   1.00
C9     C     0.16508   0.16928   0.02337   0.00000  Uiso   1.00
C10    C     0.16579   0.16799   0.47668   0.00000  Uiso   1.00
C11    C     0.11978   0.14164   0.04893   0.00000  Uiso   1.00
C12    C     0.15171   0.06865   0.25446   0.00000  Uiso   1.00
C13    C     0.21137   0.19520   0.45110   0.00000  Uiso   1.00
C14    C     0.25448   0.22590   0.01898   0.00000  Uiso   1.00
C15    C     0.07636   0.11141   0.48112   0.00000  Uiso   1.00
C16    C     0.29401   0.30611   0.03693   0.00000  Uiso   1.00
C17    C     0.31784   0.10577   0.46004   0.00000  Uiso   1.00
C18    C     0.26857   0.01209   0.29708   0.00000  Uiso   1.00
C19    C     0.08470   0.32498   0.32518   0.00000  Uiso   1.00
C20    C     0.25511   0.22395   0.47213   0.00000  Uiso   1.00
C21    C     0.07608   0.11283   0.02788   0.00000  Uiso   1.00
C22    C     0.19117   0.31895   0.25865   0.00000  Uiso   1.00
C23    C     0.14459   0.01495   0.26440   0.00000  Uiso   1.00
C24    C     0.16723   0.16624   0.33649   0.00000  Uiso   1.00
C25    C     0.16609   0.16711   0.16349   0.00000  Uiso   1.00
C26    C     0.11968   0.14226   0.09531   0.00000  Uiso   1.00
H27    H     0.08546   0.12089   0.11545   0.00000  Uiso   1.00
H28    H     0.25109   0.31720   0.05177   0.00000  Uiso   1.00
H29    H     0.30146   0.31963   0.00164   0.00000  Uiso   1.00
H30    H     0.28529   0.08036   0.44322   0.00000  Uiso   1.00
H31    H     0.32552   0.14222   0.44037   0.00000  Uiso   1.00
H32    H     0.29930   0.11428   0.49470   0.00000  Uiso   1.00
H33    H     0.27207   0.30680   0.31244   0.00000  Uiso   1.00
H34    H     0.24088   0.03658   0.31973   0.00000  Uiso   1.00
H35    H     0.31227   0.03227   0.29378   0.00000  Uiso   1.00
H36    H     0.08823   0.03120   0.34089   0.00000  Uiso   1.00
H37    H     0.11761   0.30039   0.33760   0.00000  Uiso   1.00
H38    H     0.24698   0.21411   0.38446   0.00000  Uiso   1.00
H39    H     0.04167   0.30646   0.33618   0.00000  Uiso   1.00
H40    H     0.24400   0.21712   0.10833   0.00000  Uiso   1.00
H41    H     0.08943   0.11655   0.39163   0.00000  Uiso   1.00
H42    H     0.29035   0.24414   0.45224   0.00000  Uiso   1.00
H43    H     0.04213   0.09076   0.04763   0.00000  Uiso   1.00
H44    H     0.00465   0.12744   0.21621   0.00000  Uiso   1.00
H45    H     0.32868   0.20588   0.28381   0.00000  Uiso   1.00
H46    H     0.32745   0.32670   0.05658   0.00000  Uiso   1.00
N47    N     0.31678   0.15265   0.23783   0.00000  Uiso   1.00
N48    N     0.01656   0.18068   0.26217   0.00000  Uiso   1.00
O49    O     0.12975   0.24619   0.25298   0.00000  Uiso   1.00
O50    O     0.03560   0.07945   0.46059   0.00000  Uiso   1.00
O51    O     0.24795   0.00629   0.25386   0.00000  Uiso   1.00
O52    O     0.08931   0.32795   0.27780   0.00000  Uiso   1.00
O53    O     0.20358   0.08714   0.24701   0.00000  Uiso   1.00
O54    O     0.22613   0.23721   0.24518   0.00000  Uiso   1.00
O55    O     0.10720   0.09613   0.25481   0.00000  Uiso   1.00
O56    O     0.11847   0.17117   0.31997   0.00000  Uiso   1.00
O57    O     0.21486   0.16216   0.18002   0.00000  Uiso   1.00
O58    O     0.21485   0.16219   0.31217   0.00000  Uiso   1.00
O59    O     0.11848   0.17115   0.18782   0.00000  Uiso   1.00
O60    O     0.29950   0.25203   0.03967   0.00000  Uiso   1.00
Zn61   Zn    0.10231   0.17266   0.25521   0.00000  Uiso   1.00
Zn62   Zn    0.23102   0.16067   0.24479   0.00000  Uiso   1.00
C63    C     0.51538   0.26470   0.25224   0.00000  Uiso   1.00
C64    C     0.54590   0.19307   0.40466   0.00000  Uiso   1.00
C65    C     0.49831   0.16878   0.11583   0.00000  Uiso   1.00
C66    C     0.50148   0.16526   0.38413   0.00000  Uiso   1.00
C67    C     0.54317   0.19634   0.09106   0.00000  Uiso   1.00
C68    C     0.45640   0.13808   0.40891   0.00000  Uiso   1.00
C69    C     0.54348   0.19746   0.04456   0.00000  Uiso   1.00
C70    C     0.45477   0.13883   0.45547   0.00000  Uiso   1.00
C71    C     0.49841   0.16928   0.02337   0.00000  Uiso   1.00
C72    C     0.49912   0.16799   0.47668   0.00000  Uiso   1.00
C73    C     0.45311   0.14164   0.04893   0.00000  Uiso   1.00
C74    C     0.48504   0.06865   0.25446   0.00000  Uiso   1.00
C75    C     0.54471   0.19520   0.45110   0.00000  Uiso   1.00
C76    C     0.58781   0.22590   0.01898   0.00000  Uiso   1.00
C77    C     0.40969   0.11141   0.48112   0.00000  Uiso   1.00
C78    C     0.62734   0.30611   0.03693   0.00000  Uiso   1.00
C79    C     0.65117   0.10577   0.46004   0.00000  Uiso   1.00
C80    C     0.60191   0.01209   0.29708   0.00000  Uiso   1.00
C81    C     0.41803   0.32498   0.32518   0.00000  Uiso   1.00
C82    C     0.58844   0.22395   0.47213   0.00000  Uiso   1.00
C83    C     0.40941   0.11283   0.02788   0.00000  Uiso   1.00
C84    C     0.52451   0.31895   0.25865   0.00000  Uiso   1.00
C85    C     0.47792   0.01495   0.26440   0.00000  Uiso   1.00
C86    C     0.50056   0.16624   0.33649   0.00000  Uiso   1.00
C87    C     0.49942   0.16711   0.16349   0.00000  Uiso   1.00
C88    C     0.45301   0.14226   0.09531   0.00000  Uiso   1.00
H89    H     0.41880   0.12089   0.11545   0.00000  Uiso   1.00
H90    H     0.58443   0.31720   0.05177   0.00000  Uiso   1.00
H91    H     0.63479   0.31963   0.00164   0.00000  Uiso   1.00
H92    H     0.61862   0.08036   0.44322   0.00000  Uiso   1.00
H93    H     0.65885   0.14222   0.44037   0.00000  Uiso   1.00
H94    H     0.63263   0.11428   0.49470   0.00000  Uiso   1.00
H95    H     0.60540   0.30680   0.31244   0.00000  Uiso   1.00
H96    H     0.57421   0.03658   0.31973   0.00000  Uiso   1.00
H97    H     0.64560   0.03227   0.29378   0.00000  Uiso   1.00
H98    H     0.42156   0.03120   0.34089   0.00000  Uiso   1.00
H99    H     0.45095   0.30039   0.33760   0.00000  Uiso   1.00
H100   H     0.58031   0.21411   0.38446   0.00000  Uiso   1.00
H101   H     0.37501   0.30646   0.33618   0.00000  Uiso   1.00
H102   H     0.57733   0.21712   0.10833   0.00000  Uiso   1.00
H103   H     0.42276   0.11655   0.39163   0.00000  Uiso   1.00
H104   H     0.62368   0.24414   0.45224   0.00000  Uiso   1.00
H105   H     0.37546   0.09076   0.04763   0.00000  Uiso   1.00
H106   H     0.33799   0.12744   0.21621   0.00000  Uiso   1.00
H107   H     0.66202   0.20588   0.28381   0.00000  Uiso   1.00
H108   H     0.66078   0.32670   0.05658   0.00000  Uiso   1.00
N109   N     0.65011   0.15265   0.23783   0.00000  Uiso   1.00
N110   N     0.34989   0.18068   0.26217   0.00000  Uiso   1.00
O111   O     0.46308   0.24619   0.25298   0.00000  Uiso   1.00
O112   O     0.36893   0.07945   0.46059   0.00000  Uiso   1.00
O113   O     0.58128   0.00629   0.25386   0.00000  Uiso   1.00
O114   O     0.42265   0.32795   0.27780   0.00000  Uiso   1.00
O115   O     0.53692   0.08714   0.24701   0.00000  Uiso   1.00
O116   O     0.55946   0.23721   0.24518   0.00000  Uiso   1.00
O117   O     0.44054   0.09613   0.25481   0.00000  Uiso   1.00
O118   O     0.45181   0.17117   0.31997   0.00000  Uiso   1.00
O119   O     0.54819   0.16216   0.18002   0.00000  Uiso   1.00
O120   O     0.54819   0.16219   0.31217   0.00000  Uiso   1.00
O121   O     0.45181   0.17115   0.18782   0.00000  Uiso   1.00
O122   O     0.63284   0.25203   0.03967   0.00000  Uiso   1.00
Zn123  Zn    0.43565   0.17266   0.25521   0.00000  Uiso   1.00
Zn124  Zn    0.56435   0.16067   0.24479   0.00000  Uiso   1.00
C125   C     0.84871   0.26470   0.25224   0.00000  Uiso   1.00
C126   C     0.87923   0.19307   0.40466   0.00000  Uiso   1.00
C127   C     0.83165   0.16878   0.11583   0.00000  Uiso   1.00
C128   C     0.83481   0.16526   0.38413   0.00000  Uiso   1.00
C129   C     0.87650   0.19634   0.09106   0.00000  Uiso   1.00
C130   C     0.78973   0.13808   0.40891   0.00000  Uiso   1.00
C131   C     0.87681   0.19746   0.04456   0.00000  Uiso   1.00
C132   C     0.78811   0.13883   0.45547   0.00000  Uiso   1.00
C133   C     0.83175   0.16928   0.02337   0.00000  Uiso   1.00
C134   C     0.83245   0.16799   0.47668   0.00000  Uiso   1.00
C135   C     0.78645   0.14164   0.04893   0.00000  Uiso   1.00
C136   C     0.81838   0.06865   0.25446   0.00000  Uiso   1.00
C137   C     0.87804   0.19520   0.45110   0.00000  Uiso   1.00
C138   C     0.92115   0.22590   0.01898   0.00000  Uiso   1.00
C139   C     0.74303   0.11141   0.48112   0.00000  Uiso   1.00
C140   C     0.96068   0.30611   0.03693   0.00000  Uiso   1.00
C141   C     0.98450   0.10577   0.46004   0.00000  Uiso   1.00
C142   C     0.93524   0.01209   0.29708   0.00000  Uiso   1.00
C143   C     0.75136   0.32498   0.32518   0.00000  Uiso   1.00
C144   C     0.92177   0.22395   0.47213   0.00000  Uiso   1.00
C145   C     0.74274   0.11283   0.02788   0.00000  Uiso   1.00
C146   C     0.85784   0.31895   0.25865   0.00000  Uiso   1.00
C147   C     0.81126   0.01495   0.26440   0.00000  Uiso   1.00
C148   C     0.83390   0.16624   0.33649   0.00000  Uiso   1.00
C149   C     0.83275   0.16711   0.16349   0.00000  Uiso   1.00
C150   C     0.78634   0.14226   0.09531   0.00000  Uiso   1.00
H151   H     0.75213   0.12089   0.11545   0.00000  Uiso   1.00
H152   H     0.91776   0.31720   0.05177   0.00000  Uiso   1.00
H153   H     0.96813   0.31963   0.00164   0.00000  Uiso   1.00
H154   H     0.95195   0.08036   0.44322   0.00000  Uiso   1.00
H155   H     0.99218   0.14222   0.44037   0.00000  Uiso   1.00
H156   H     0.96596   0.11428   0.49470   0.00000  Uiso   1.00
H157   H     0.93874   0.30680   0.31244   0.00000  Uiso   1.00
H158   H     0.90755   0.03658   0.31973   0.00000  Uiso   1.00
H159   H     0.97894   0.03227   0.29378   0.00000  Uiso   1.00
H160   H     0.75489   0.03120   0.34089   0.00000  Uiso   1.00
H161   H     0.78428   0.30039   0.33760   0.00000  Uiso   1.00
H162   H     0.91365   0.21411   0.38446   0.00000  Uiso   1.00
H163   H     0.70834   0.30646   0.33618   0.00000  Uiso   1.00
H164   H     0.91066   0.21712   0.10833   0.00000  Uiso   1.00
H165   H     0.75609   0.11655   0.39163   0.00000  Uiso   1.00
H166   H     0.95702   0.24414   0.45224   0.00000  Uiso   1.00
H167   H     0.70880   0.09076   0.04763   0.00000  Uiso   1.00
H168   H     0.67132   0.12744   0.21621   0.00000  Uiso   1.00
H169   H     0.99535   0.20588   0.28381   0.00000  Uiso   1.00
H170   H     0.99411   0.32670   0.05658   0.00000  Uiso   1.00
N171   N     0.98344   0.15265   0.23783   0.00000  Uiso   1.00
N172   N     0.68322   0.18068   0.26217   0.00000  Uiso   1.00
O173   O     0.79642   0.24619   0.25298   0.00000  Uiso   1.00
O174   O     0.70227   0.07945   0.46059   0.00000  Uiso   1.00
O175   O     0.91461   0.00629   0.25386   0.00000  Uiso   1.00
O176   O     0.75598   0.32795   0.27780   0.00000  Uiso   1.00
O177   O     0.87025   0.08714   0.24701   0.00000  Uiso   1.00
O178   O     0.89280   0.23721   0.24518   0.00000  Uiso   1.00
O179   O     0.77387   0.09613   0.25481   0.00000  Uiso   1.00
O180   O     0.78514   0.17117   0.31997   0.00000  Uiso   1.00
O181   O     0.88153   0.16216   0.18002   0.00000  Uiso   1.00
O182   O     0.88152   0.16219   0.31217   0.00000  Uiso   1.00
O183   O     0.78515   0.17115   0.18782   0.00000  Uiso   1.00
O184   O     0.96617   0.25203   0.03967   0.00000  Uiso   1.00
Zn185  Zn    0.76898   0.17266   0.25521   0.00000  Uiso   1.00
Zn186  Zn    0.89769   0.16067   0.24479   0.00000  Uiso   1.00
C187   C     0.18204   0.59803   0.25224   0.00000  Uiso   1.00
C188   C     0.21257   0.52641   0.40466   0.00000  Uiso   1.00
C189   C     0.16498   0.50211   0.11583   0.00000  Uiso   1.00
C190   C     0.16815   0.49860   0.38413   0.00000  Uiso   1.00
C191   C     0.20984   0.52967   0.09106   0.00000  Uiso   1.00
C192   C     0.12307   0.47141   0.40891   0.00000  Uiso   1.00
C193   C     0.21014   0.53079   0.04456   0.00000  Uiso   1.00
C194   C     0.12144   0.47216   0.45547   0.00000  Uiso   1.00
C195   C     0.16508   0.50262   0.02337   0.00000  Uiso   1.00
C196   C     0.16579   0.50132   0.47668   0.00000  Uiso   1.00
C197   C     0.11978   0.47498   0.04893   0.00000  Uiso   1.00
C198   C     0.15171   0.40199   0.25446   0.00000  Uiso   1.00
C199   C     0.21137   0.52853   0.45110   0.00000  Uiso   1.00
C200   C     0.25448   0.55923   0.01898   0.00000  Uiso   1.00
C201   C     0.07636   0.44475   0.48112   0.00000  Uiso   1.00
C202   C     0.29401   0.63944   0.03693   0.00000  Uiso   1.00
C203   C     0.31784   0.43911   0.46004   0.00000  Uiso   1.00
C204   C     0.26857   0.34543   0.29708   0.00000  Uiso   1.00
C205   C     0.08470   0.65831   0.32518   0.00000  Uiso   1.00
C206   C     0.25511   0.55728   0.47213   0.00000  Uiso   1.00
C207   C     0.07608   0.44617   0.02788   0.00000  Uiso   1.00
C208   C     0.19117   0.65228   0.25865   0.00000  Uiso   1.00
C209   C     0.14459   0.34828   0.26440   0.00000  Uiso   1.00
C210   C     0.16723   0.49957   0.33649   0.00000  Uiso   1.00
C211   C     0.16609   0.50045   0.16349   0.00000  Uiso   1.00
C212   C     0.11968   0.47560   0.09531   0.00000  Uiso   1.00
H213   H     0.08546   0.45423   0.11545   0.00000  Uiso   1.00
H214   H     0.25109   0.65053   0.05177   0.00000  Uiso   1.00
H215   H     0.30146   0.65297   0.00164   0.00000  Uiso   1.00
H216   H     0.28529   0.41370   0.44322   0.00000  Uiso   1.00
H217   H     0.32552   0.47555   0.44037   0.00000  Uiso   1.00
H218   H     0.29930   0.44761   0.49470   0.00000  Uiso   1.00
H219   H     0.27207   0.64013   0.31244   0.00000  Uiso   1.00
H220   H     0.24088   0.36992   0.31973   0.00000  Uiso   1.00
H221   H     0.31227   0.36560   0.29378   0.00000  Uiso   1.00
H222   H     0.08823   0.36453   0.34089   0.00000  Uiso   1.00
H223   H     0.11761   0.63372   0.33760   0.00000  Uiso   1.00
H224   H     0.24698   0.54744   0.38446   0.00000  Uiso   1.00
H225   H     0.04167   0.63979   0.33618   0.00000  Uiso   1.00
H226   H     0.24400   0.55046   0.10833   0.00000  Uiso   1.00
H227   H     0.08943   0.44989   0.39163   0.00000  Uiso   1.00
H228   H     0.29035   0.57747   0.45224   0.00000  Uiso   1.00
H229   H     0.04213   0.42409   0.04763   0.00000  Uiso   1.00
H230   H     0.00465   0.46077   0.21621   0.00000  Uiso   1.00
H231   H     0.32868   0.53921   0.28381   0.00000  Uiso   1.00
H232   H     0.32745   0.66003   0.05658   0.00000  Uiso   1.00
N233   N     0.31678   0.48598   0.23783   0.00000  Uiso   1.00
N234   N     0.01656   0.51402   0.26217   0.00000  Uiso   1.00
O235   O     0.12975   0.57952   0.25298   0.00000  Uiso   1.00
O236   O     0.03560   0.41278   0.46059   0.00000  Uiso   1.00
O237   O     0.24795   0.33962   0.25386   0.00000  Uiso   1.00
O238   O     0.08931   0.66128   0.27780   0.00000  Uiso   1.00
O239   O     0.20358   0.42048   0.24701   0.00000  Uiso   1.00
O240   O     0.22613   0.57054   0.24518   0.00000  Uiso   1.00
O241   O     0.10720   0.42946   0.25481   0.00000  Uiso   1.00
O242   O     0.11847   0.50450   0.31997   0.00000  Uiso   1.00
O243   O     0.21486   0.49550   0.18002   0.00000  Uiso   1.00
O244   O     0.21485   0.49552   0.31217   0.00000  Uiso   1.00
O245   O     0.11848   0.50448   0.18782   0.00000  Uiso   1.00
O246   O     0.29950   0.58537   0.03967   0.00000  Uiso   1.00
Zn247  Zn    0.10231   0.50600   0.25521   0.00000  Uiso   1.00
Zn248  Zn    0.23102   0.49400   0.24479   0.00000  Uiso   1.00
C249   C     0.51538   0.59803   0.25224   0.00000  Uiso   1.00
C250   C     0.54590   0.52641   0.40466   0.00000  Uiso   1.00
C251   C     0.49831   0.50211   0.11583   0.00000  Uiso   1.00
C252   C     0.50148   0.49860   0.38413   0.00000  Uiso   1.00
C253   C     0.54317   0.52967   0.09106   0.00000  Uiso   1.00
C254   C     0.45640   0.47141   0.40891   0.00000  Uiso   1.00
C255   C     0.54348   0.53079   0.04456   0.00000  Uiso   1.00
C256   C     0.45477   0.47216   0.45547   0.00000  Uiso   1.00
C257   C     0.49841   0.50262   0.02337   0.00000  Uiso   1.00
C258   C     0.49912   0.50132   0.47668   0.00000  Uiso   1.00
C259   C     0.45311   0.47498   0.04893   0.00000  Uiso   1.00
C260   C     0.48504   0.40199   0.25446   0.00000  Uiso   1.00
C261   C     0.54471   0.52853   0.45110   0.00000  Uiso   1.00
C262   C     0.58781   0.55923   0.01898   0.00000  Uiso   1.00
C263   C     0.40969   0.44475   0.48112   0.00000  Uiso   1.00
C264   C     0.62734   0.63944   0.03693   0.00000  Uiso   1.00
C265   C     0.65117   0.43911   0.46004   0.00000  Uiso   1.00
C266   C     0.60191   0.34543   0.29708   0.00000  Uiso   1.00
C267   C     0.41803   0.65831   0.32518   0.00000  Uiso   1.00
C268   C     0.58844   0.55728   0.47213   0.00000  Uiso   1.00
C269   C     0.40941   0.44617   0.02788   0.00000  Uiso   1.00
C270   C     0.52451   0.65228   0.25865   0.00000  Uiso   1.00
C271   C     0.47792   0.34828   0.26440   0.00000  Uiso   1.00
C272   C     0.50056   0.49957   0.33649   0.00000  Uiso   1.00
C273   C     0.49942   0.50045   0.16349   0.00000  Uiso   1.00
C274   C     0.45301   0.47560   0.09531   0.00000  Uiso   1.00
H275   H     0.41880   0.45423   0.11545   0.00000  Uiso   1.00
H276   H     0.58443   0.65053   0.05177   0.00000  Uiso   1.00
H277   H     0.63479   0.65297   0.00164   0.00000  Uiso   1.00
H278   H     0.61862   0.41370   0.44322   0.00000  Uiso   1.00
H279   H     0.65885   0.47555   0.44037   0.00000  Uiso   1.00
H280   H     0.63263   0.44761   0.49470   0.00000  Uiso   1.00
H281   H     0.60540   0.64013   0.31244   0.00000  Uiso   1.00
H282   H     0.57421   0.36992   0.31973   0.00000  Uiso   1.00
H283   H     0.64560   0.36560   0.29378   0.00000  Uiso   1.00
H284   H     0.42156   0.36453   0.34089   0.00000  Uiso   1.00
H285   H     0.45095   0.63372   0.33760   0.00000  Uiso   1.00
H286   H     0.58031   0.54744   0.38446   0.00000  Uiso   1.00
H287   H     0.37501   0.63979   0.33618   0.00000  Uiso   1.00
H288   H     0.57733   0.55046   0.10833   0.00000  Uiso   1.00
H289   H     0.42276   0.44989   0.39163   0.00000  Uiso   1.00
H290   H     0.62368   0.57747   0.45224   0.00000  Uiso   1.00
H291   H     0.37546   0.42409   0.04763   0.00000  Uiso   1.00
H292   H     0.33799   0.46077   0.21621   0.00000  Uiso   1.00
H293   H     0.66202   0.53921   0.28381   0.00000  Uiso   1.00
H294   H     0.66078   0.66003   0.05658   0.00000  Uiso   1.00
N295   N     0.65011   0.48598   0.23783   0.00000  Uiso   1.00
N296   N     0.34989   0.51402   0.26217   0.00000  Uiso   1.00
O297   O     0.46308   0.57952   0.25298   0.00000  Uiso   1.00
O298   O     0.36893   0.41278   0.46059   0.00000  Uiso   1.00
O299   O     0.58128   0.33962   0.25386   0.00000  Uiso   1.00
O300   O     0.42265   0.66128   0.27780   0.00000  Uiso   1.00
O301   O     0.53692   0.42048   0.24701   0.00000  Uiso   1.00
O302   O     0.55946   0.57054   0.24518   0.00000  Uiso   1.00
O303   O     0.44054   0.42946   0.25481   0.00000  Uiso   1.00
O304   O     0.45181   0.50450   0.31997   0.00000  Uiso   1.00
O305   O     0.54819   0.49550   0.18002   0.00000  Uiso   1.00
O306   O     0.54819   0.49552   0.31217   0.00000  Uiso   1.00
O307   O     0.45181   0.50448   0.18782   0.00000  Uiso   1.00
O308   O     0.63284   0.58537   0.03967   0.00000  Uiso   1.00
Zn309  Zn    0.43565   0.50600   0.25521   0.00000  Uiso   1.00
Zn310  Zn    0.56435   0.49400   0.24479   0.00000  Uiso   1.00
C311   C     0.84871   0.59803   0.25224   0.00000  Uiso   1.00
C312   C     0.87923   0.52641   0.40466   0.00000  Uiso   1.00
C313   C     0.83165   0.50211   0.11583   0.00000  Uiso   1.00
C314   C     0.83481   0.49860   0.38413   0.00000  Uiso   1.00
C315   C     0.87650   0.52967   0.09106   0.00000  Uiso   1.00
C316   C     0.78973   0.47141   0.40891   0.00000  Uiso   1.00
C317   C     0.87681   0.53079   0.04456   0.00000  Uiso   1.00
C318   C     0.78811   0.47216   0.45547   0.00000  Uiso   1.00
C319   C     0.83175   0.50262   0.02337   0.00000  Uiso   1.00
C320   C     0.83245   0.50132   0.47668   0.00000  Uiso   1.00
C321   C     0.78645   0.47498   0.04893   0.00000  Uiso   1.00
C322   C     0.81838   0.40199   0.25446   0.00000  Uiso   1.00
C323   C     0.87804   0.52853   0.45110   0.00000  Uiso   1.00
C324   C     0.92115   0.55923   0.01898   0.00000  Uiso   1.00
C325   C     0.74303   0.44475   0.48112   0.00000  Uiso   1.00
C326   C     0.96068   0.63944   0.03693   0.00000  Uiso   1.00
C327   C     0.98450   0.43911   0.46004   0.00000  Uiso   1.00
C328   C     0.93524   0.34543   0.29708   0.00000  Uiso   1.00
C329   C     0.75136   0.65831   0.32518   0.00000  Uiso   1.00
C330   C     0.92177   0.55728   0.47213   0.00000  Uiso   1.00
C331   C     0.74274   0.44617   0.02788   0.00000  Uiso   1.00
C332   C     0.85784   0.65228   0.25865   0.00000  Uiso   1.00
C333   C     0.81126   0.34828   0.26440   0.00000  Uiso   1.00
C334   C     0.83390   0.49957   0.33649   0.00000  Uiso   1.00
C335   C     0.83275   0.50045   0.16349   0.00000  Uiso   1.00
C336   C     0.78634   0.47560   0.09531   0.00000  Uiso   1.00
H337   H     0.75213   0.45423   0.11545   0.00000  Uiso   1.00
H338   H     0.91776   0.65053   0.05177   0.00000  Uiso   1.00
H339   H     0.96813   0.65297   0.00164   0.00000  Uiso   1.00
H340   H     0.95195   0.41370   0.44322   0.00000  Uiso   1.00
H341   H     0.99218   0.47555   0.44037   0.00000  Uiso   1.00
H342   H     0.96596   0.44761   0.49470   0.00000  Uiso   1.00
H343   H     0.93874   0.64013   0.31244   0.00000  Uiso   1.00
H344   H     0.90755   0.36992   0.31973   0.00000  Uiso   1.00
H345   H     0.97894   0.36560   0.29378   0.00000  Uiso   1.00
H346   H     0.75489   0.36453   0.34089   0.00000  Uiso   1.00
H347   H     0.78428   0.63372   0.33760   0.00000  Uiso   1.00
H348   H     0.91365   0.54744   0.38446   0.00000  Uiso   1.00
H349   H     0.70834   0.63979   0.33618   0.00000  Uiso   1.00
H350   H     0.91066   0.55046   0.10833   0.00000  Uiso   1.00
H351   H     0.75609   0.44989   0.39163   0.00000  Uiso   1.00
H352   H     0.95702   0.57747   0.45224   0.00000  Uiso   1.00
H353   H     0.70880   0.42409   0.04763   0.00000  Uiso   1.00
H354   H     0.67132   0.46077   0.21621   0.00000  Uiso   1.00
H355   H     0.99535   0.53921   0.28381   0.00000  Uiso   1.00
H356   H     0.99411   0.66003   0.05658   0.00000  Uiso   1.00
N357   N     0.98344   0.48598   0.23783   0.00000  Uiso   1.00
N358   N     0.68322   0.51402   0.26217   0.00000  Uiso   1.00
O359   O     0.79642   0.57952   0.25298   0.00000  Uiso   1.00
O360   O     0.70227   0.41278   0.46059   0.00000  Uiso   1.00
O361   O     0.91461   0.33962   0.25386   0.00000  Uiso   1.00
O362   O     0.75598   0.66128   0.27780   0.00000  Uiso   1.00
O363   O     0.87025   0.42048   0.24701   0.00000  Uiso   1.00
O364   O     0.89280   0.57054   0.24518   0.00000  Uiso   1.00
O365   O     0.77387   0.42946   0.25481   0.00000  Uiso   1.00
O366   O     0.78514   0.50450   0.31997   0.00000  Uiso   1.00
O367   O     0.88153   0.49550   0.18002   0.00000  Uiso   1.00
O368   O     0.88152   0.49552   0.31217   0.00000  Uiso   1.00
O369   O     0.78515   0.50448   0.18782   0.00000  Uiso   1.00
O370   O     0.96617   0.58537   0.03967   0.00000  Uiso   1.00
Zn371  Zn    0.76898   0.50600   0.25521   0.00000  Uiso   1.00
Zn372  Zn    0.89769   0.49400   0.24479   0.00000  Uiso   1.00
C373   C     0.18204   0.93137   0.25224   0.00000  Uiso   1.00
C374   C     0.21257   0.85974   0.40466   0.00000  Uiso   1.00
C375   C     0.16498   0.83544   0.11583   0.00000  Uiso   1.00
C376   C     0.16815   0.83193   0.38413   0.00000  Uiso   1.00
C377   C     0.20984   0.86301   0.09106   0.00000  Uiso   1.00
C378   C     0.12307   0.80474   0.40891   0.00000  Uiso   1.00
C379   C     0.21014   0.86412   0.04456   0.00000  Uiso   1.00
C380   C     0.12144   0.80550   0.45547   0.00000  Uiso   1.00
C381   C     0.16508   0.83595   0.02337   0.00000  Uiso   1.00
C382   C     0.16579   0.83465   0.47668   0.00000  Uiso   1.00
C383   C     0.11978   0.80831   0.04893   0.00000  Uiso   1.00
C384   C     0.15171   0.73532   0.25446   0.00000  Uiso   1.00
C385   C     0.21137   0.86186   0.45110   0.00000  Uiso   1.00
C386   C     0.25448   0.89256   0.01898   0.00000  Uiso   1.00
C387   C     0.07636   0.77808   0.48112   0.00000  Uiso   1.00
C388   C     0.29401   0.97277   0.03693   0.00000  Uiso   1.00
C389   C     0.31784   0.77244   0.46004   0.00000  Uiso   1.00
C390   C     0.26857   0.67876   0.29708   0.00000  Uiso   1.00
C391   C     0.08470   0.99165   0.32518   0.00000  Uiso   1.00
C392   C     0.25511   0.89062   0.47213   0.00000  Uiso   1.00
C393   C     0.07608   0.77950   0.02788   0.00000  Uiso   1.00
C394   C     0.19117   0.98562   0.25865   0.00000  Uiso   1.00
C395   C     0.14459   0.68162   0.26440   0.00000  Uiso   1.00
C396   C     0.16723   0.83291   0.33649   0.00000  Uiso   1.00
C397   C     0.16609   0.83378   0.16349   0.00000  Uiso   1.00
C398   C     0.11968   0.80893   0.09531   0.00000  Uiso   1.00
H399   H     0.08546   0.78756   0.11545   0.00000  Uiso   1.00
H400   H     0.25109   0.98387   0.05177   0.00000  Uiso   1.00
H401   H     0.30146   0.98630   0.00164   0.00000  Uiso   1.00
H402   H     0.28529   0.74703   0.44322   0.00000  Uiso   1.00
H403   H     0.32552   0.80888   0.44037   0.00000  Uiso   1.00
H404   H     0.29930   0.78094   0.49470   0.00000  Uiso   1.00
H405   H     0.27207   0.97347   0.31244   0.00000  Uiso   1.00
H406   H     0.24088   0.70325   0.31973   0.00000  Uiso   1.00
H407   H     0.31227   0.69894   0.29378   0.00000  Uiso   1.00
H408   H     0.08823   0.69786   0.34089   0.00000  Uiso   1.00
H409   H     0.11761   0.96706   0.33760   0.00000  Uiso   1.00
H410   H     0.24698   0.88078   0.38446   0.00000  Uiso   1.00
H411   H     0.04167   0.97312   0.33618   0.00000  Uiso   1.00
H412   H     0.24400   0.88379   0.10833   0.00000  Uiso   1.00
H413   H     0.08943   0.78322   0.39163   0.00000  Uiso   1.00
H414   H     0.29035   0.91081   0.45224   0.00000  Uiso   1.00
H415   H     0.04213   0.75743   0.04763   0.00000  Uiso   1.00
H416   H     0.00465   0.79411   0.21621   0.00000  Uiso   1.00
H417   H     0.32868   0.87254   0.28381   0.00000  Uiso   1.00
H418   H     0.32745   0.99336   0.05658   0.00000  Uiso   1.00
N419   N     0.31678   0.81932   0.23783   0.00000  Uiso   1.00
N420   N     0.01656   0.84735   0.26217   0.00000  Uiso   1.00
O421   O     0.12975   0.91286   0.25298   0.00000  Uiso   1.00
O422   O     0.03560   0.74612   0.46059   0.00000  Uiso   1.00
O423   O     0.24795   0.67296   0.25386   0.00000  Uiso   1.00
O424   O     0.08931   0.99462   0.27780   0.00000  Uiso   1.00
O425   O     0.20358   0.75381   0.24701   0.00000  Uiso   1.00
O426   O     0.22613   0.90387   0.24518   0.00000  Uiso   1.00
O427   O     0.10720   0.76279   0.25481   0.00000  Uiso   1.00
O428   O     0.11847   0.83784   0.31997   0.00000  Uiso   1.00
O429   O     0.21486   0.82883   0.18002   0.00000  Uiso   1.00
O430   O     0.21485   0.82885   0.31217   0.00000  Uiso   1.00
O431   O     0.11848   0.83781   0.18782   0.00000  Uiso   1.00
O432   O     0.29950   0.91870   0.03967   0.00000  Uiso   1.00
Zn433  Zn    0.10231   0.83933   0.25521   0.00000  Uiso   1.00
Zn434  Zn    0.23102   0.82734   0.24479   0.00000  Uiso   1.00
C435   C     0.51538   0.93137   0.25224   0.00000  Uiso   1.00
C436   C     0.54590   0.85974   0.40466   0.00000  Uiso   1.00
C437   C     0.49831   0.83544   0.11583   0.00000  Uiso   1.00
C438   C     0.50148   0.83193   0.38413   0.00000  Uiso   1.00
C439   C     0.54317   0.86301   0.09106   0.00000  Uiso   1.00
C440   C     0.45640   0.80474   0.40891   0.00000  Uiso   1.00
C441   C     0.54348   0.86412   0.04456   0.00000  Uiso   1.00
C442   C     0.45477   0.80550   0.45547   0.00000  Uiso   1.00
C443   C     0.49841   0.83595   0.02337   0.00000  Uiso   1.00
C444   C     0.49912   0.83465   0.47668   0.00000  Uiso   1.00
C445   C     0.45311   0.80831   0.04893   0.00000  Uiso   1.00
C446   C     0.48504   0.73532   0.25446   0.00000  Uiso   1.00
C447   C     0.54471   0.86186   0.45110   0.00000  Uiso   1.00
C448   C     0.58781   0.89256   0.01898   0.00000  Uiso   1.00
C449   C     0.40969   0.77808   0.48112   0.00000  Uiso   1.00
C450   C     0.62734   0.97277   0.03693   0.00000  Uiso   1.00
C451   C     0.65117   0.77244   0.46004   0.00000  Uiso   1.00
C452   C     0.60191   0.67876   0.29708   0.00000  Uiso   1.00
C453   C     0.41803   0.99165   0.32518   0.00000  Uiso   1.00
C454   C     0.58844   0.89062   0.47213   0.00000  Uiso   1.00
C455   C     0.40941   0.77950   0.02788   0.00000  Uiso   1.00
C456   C     0.52451   0.98562   0.25865   0.00000  Uiso   1.00
C457   C     0.47792   0.68162   0.26440   0.00000  Uiso   1.00
C458   C     0.50056   0.83291   0.33649   0.00000  Uiso   1.00
C459   C     0.49942   0.83378   0.16349   0.00000  Uiso   1.00
C460   C     0.45301   0.80893   0.09531   0.00000  Uiso   1.00
H461   H     0.41880   0.78756   0.11545   0.00000  Uiso   1.00
H462   H     0.58443   0.98387   0.05177   0.00000  Uiso   1.00
H463   H     0.63479   0.98630   0.00164   0.00000  Uiso   1.00
H464   H     0.61862   0.74703   0.44322   0.00000  Uiso   1.00
H465   H     0.65885   0.80888   0.44037   0.00000  Uiso   1.00
H466   H     0.63263   0.78094   0.49470   0.00000  Uiso   1.00
H467   H     0.60540   0.97347   0.31244   0.00000  Uiso   1.00
H468   H     0.57421   0.70325   0.31973   0.00000  Uiso   1.00
H469   H     0.64560   0.69894   0.29378   0.00000  Uiso   1.00
H470   H     0.42156   0.69786   0.34089   0.00000  Uiso   1.00
H471   H     0.45095   0.96706   0.33760   0.00000  Uiso   1.00
H472   H     0.58031   0.88078   0.38446   0.00000  Uiso   1.00
H473   H     0.37501   0.97312   0.33618   0.00000  Uiso   1.00
H474   H     0.57733   0.88379   0.10833   0.00000  Uiso   1.00
H475   H     0.42276   0.78322   0.39163   0.00000  Uiso   1.00
H476   H     0.62368   0.91081   0.45224   0.00000  Uiso   1.00
H477   H     0.37546   0.75743   0.04763   0.00000  Uiso   1.00
H478   H     0.33799   0.79411   0.21621   0.00000  Uiso   1.00
H479   H     0.66202   0.87254   0.28381   0.00000  Uiso   1.00
H480   H     0.66078   0.99336   0.05658   0.00000  Uiso   1.00
N481   N     0.65011   0.81932   0.23783   0.00000  Uiso   1.00
N482   N     0.34989   0.84735   0.26217   0.00000  Uiso   1.00
O483   O     0.46308   0.91286   0.25298   0.00000  Uiso   1.00
O484   O     0.36893   0.74612   0.46059   0.00000  Uiso   1.00
O485   O     0.58128   0.67296   0.25386   0.00000  Uiso   1.00
O486   O     0.42265   0.99462   0.27780   0.00000  Uiso   1.00
O487   O     0.53692   0.75381   0.24701   0.00000  Uiso   1.00
O488   O     0.55946   0.90387   0.24518   0.00000  Uiso   1.00
O489   O     0.44054   0.76279   0.25481   0.00000  Uiso   1.00
O490   O     0.45181   0.83784   0.31997   0.00000  Uiso   1.00
O491   O     0.54819   0.82883   0.18002   0.00000  Uiso   1.00
O492   O     0.54819   0.82885   0.31217   0.00000  Uiso   1.00
O493   O     0.45181   0.83781   0.18782   0.00000  Uiso   1.00
O494   O     0.63284   0.91870   0.03967   0.00000  Uiso   1.00
Zn495  Zn    0.43565   0.83933   0.25521   0.00000  Uiso   1.00
Zn496  Zn    0.56435   0.82734   0.24479   0.00000  Uiso   1.00
C497   C     0.84871   0.93137   0.25224   0.00000  Uiso   1.00
C498   C     0.87923   0.85974   0.40466   0.00000  Uiso   1.00
C499   C     0.83165   0.83544   0.11583   0.00000  Uiso   1.00
C500   C     0.83481   0.83193   0.38413   0.00000  Uiso   1.00
C501   C     0.87650   0.86301   0.09106   0.00000  Uiso   1.00
C502   C     0.78973   0.80474   0.40891   0.00000  Uiso   1.00
C503   C     0.87681   0.86412   0.04456   0.00000  Uiso   1.00
C504   C     0.78811   0.80550   0.45547   0.00000  Uiso   1.00
C505   C     0.83175   0.83595   0.02337   0.00000  Uiso   1.00
C506   C     0.83245   0.83465   0.47668   0.00000  Uiso   1.00
C507   C     0.78645   0.80831   0.04893   0.00000  Uiso   1.00
C508   C     0.81838   0.73532   0.25446   0.00000  Uiso   1.00
C509   C     0.87804   0.86186   0.45110   0.00000  Uiso   1.00
C510   C     0.92115   0.89256   0.01898   0.00000  Uiso   1.00
C511   C     0.74303   0.77808   0.48112   0.00000  Uiso   1.00
C512   C     0.96068   0.97277   0.03693   0.00000  Uiso   1.00
C513   C     0.98450   0.77244   0.46004   0.00000  Uiso   1.00
C514   C     0.93524   0.67876   0.29708   0.00000  Uiso   1.00
C515   C     0.75136   0.99165   0.32518   0.00000  Uiso   1.00
C516   C     0.92177   0.89062   0.47213   0.00000  Uiso   1.00
C517   C     0.74274   0.77950   0.02788   0.00000  Uiso   1.00
C518   C     0.85784   0.98562   0.25865   0.00000  Uiso   1.00
C519   C     0.81126   0.68162   0.26440   0.00000  Uiso   1.00
C520   C     0.83390   0.83291   0.33649   0.00000  Uiso   1.00
C521   C     0.83275   0.83378   0.16349   0.00000  Uiso   1.00
C522   C     0.78634   0.80893   0.09531   0.00000  Uiso   1.00
H523   H     0.75213   0.78756   0.11545   0.00000  Uiso   1.00
H524   H     0.91776   0.98387   0.05177   0.00000  Uiso   1.00
H525   H     0.96813   0.98630   0.00164   0.00000  Uiso   1.00
H526   H     0.95195   0.74703   0.44322   0.00000  Uiso   1.00
H527   H     0.99218   0.80888   0.44037   0.00000  Uiso   1.00
H528   H     0.96596   0.78094   0.49470   0.00000  Uiso   1.00
H529   H     0.93874   0.97347   0.31244   0.00000  Uiso   1.00
H530   H     0.90755   0.70325   0.31973   0.00000  Uiso   1.00
H531   H     0.97894   0.69894   0.29378   0.00000  Uiso   1.00
H532   H     0.75489   0.69786   0.34089   0.00000  Uiso   1.00
H533   H     0.78428   0.96706   0.33760   0.00000  Uiso   1.00
H534   H     0.91365   0.88078   0.38446   0.00000  Uiso   1.00
H535   H     0.70834   0.97312   0.33618   0.00000  Uiso   1.00
H536   H     0.91066   0.88379   0.10833   0.00000  Uiso   1.00
H537   H     0.75609   0.78322   0.39163   0.00000  Uiso   1.00
H538   H     0.95702   0.91081   0.45224   0.00000  Uiso   1.00
H539   H     0.70880   0.75743   0.04763   0.00000  Uiso   1.00
H540   H     0.67132   0.79411   0.21621   0.00000  Uiso   1.00
H541   H     0.99535   0.87254   0.28381   0.00000  Uiso   1.00
H542   H     0.99411   0.99336   0.05658   0.00000  Uiso   1.00
N543   N     0.98344   0.81932   0.23783   0.00000  Uiso   1.00
N544   N     0.68322   0.84735   0.26217   0.00000  Uiso   1.00
O545   O     0.79642   0.91286   0.25298   0.00000  Uiso   1.00
O546   O     0.70227   0.74612   0.46059   0.00000  Uiso   1.00
O547   O     0.91461   0.67296   0.25386   0.00000  Uiso   1.00
O548   O     0.75598   0.99462   0.27780   0.00000  Uiso   1.00
O549   O     0.87025   0.75381   0.24701   0.00000  Uiso   1.00
O550   O     0.89280   0.90387   0.24518   0.00000  Uiso   1.00
O551   O     0.77387   0.76279   0.25481   0.00000  Uiso   1.00
O552   O     0.78514   0.83784   0.31997   0.00000  Uiso   1.00
O553   O     0.88153   0.82883   0.18002   0.00000  Uiso   1.00
O554   O     0.88152   0.82885   0.31217   0.00000  Uiso   1.00
O555   O     0.78515   0.83781   0.18782   0.00000  Uiso   1.00
O556   O     0.96617   0.91870   0.03967   0.00000  Uiso   1.00
Zn557  Zn    0.76898   0.83933   0.25521   0.00000  Uiso   1.00
Zn558  Zn    0.89769   0.82734   0.24479   0.00000  Uiso   1.00
C559   C     0.18204   0.26470   0.75224   0.00000  Uiso   1.00
C560   C     0.21257   0.19307   0.90466   0.00000  Uiso   1.00
C561   C     0.16498   0.16878   0.61583   0.00000  Uiso   1.00
C562   C     0.16815   0.16526   0.88413   0.00000  Uiso   1.00
C563   C     0.20984   0.19634   0.59106   0.00000  Uiso   1.00
C564   C     0.12307   0.13808   0.90891   0.00000  Uiso   1.00
C565   C     0.21014   0.19746   0.54456   0.00000  Uiso   1.00
C566   C     0.12144   0.13883   0.95547   0.00000  Uiso   1.00
C567   C     0.16508   0.16928   0.52337   0.00000  Uiso   1.00
C568   C     0.16579   0.16799   0.97668   0.00000  Uiso   1.00
C569   C     0.11978   0.14164   0.54893   0.00000  Uiso   1.00
C570   C     0.15171   0.06865   0.75446   0.00000  Uiso   1.00
C571   C     0.21137   0.19520   0.95110   0.00000  Uiso   1.00
C572   C     0.25448   0.22590   0.51898   0.00000  Uiso   1.00
C573   C     0.07636   0.11141   0.98112   0.00000  Uiso   1.00
C574   C     0.29401   0.30611   0.53693   0.00000  Uiso   1.00
C575   C     0.31784   0.10577   0.96004   0.00000  Uiso   1.00
C576   C     0.26857   0.01209   0.79708   0.00000  Uiso   1.00
C577   C     0.08470   0.32498   0.82518   0.00000  Uiso   1.00
C578   C     0.25511   0.22395   0.97213   0.00000  Uiso   1.00
C579   C     0.07608   0.11283   0.52788   0.00000  Uiso   1.00
C580   C     0.19117   0.31895   0.75865   0.00000  Uiso   1.00
C581   C     0.14459   0.01495   0.76440   0.00000  Uiso   1.00
C582   C     0.16723   0.16624   0.83649   0.00000  Uiso   1.00
C583   C     0.16609   0.16711   0.66349   0.00000  Uiso   1.00
C584   C     0.11968   0.14226   0.59531   0.00000  Uiso   1.00
H585   H     0.08546   0.12089   0.61545   0.00000  Uiso   1.00
H586   H     0.25109   0.31720   0.55177   0.00000  Uiso   1.00
H587   H     0.30146   0.31963   0.50164   0.00000  Uiso   1.00
H588   H     0.28529   0.08036   0.94322   0.00000  Uiso   1.00
H589   H     0.32552   0.14222   0.94037   0.00000  Uiso   1.00
H590   H     0.29930   0.11428   0.99470   0.00000  Uiso   1.00
H591   H     0.27207   0.30680   0.81244   0.00000  Uiso   1.00
H592   H     0.24088   0.03658   0.81973   0.00000  Uiso   1.00
H593   H     0.31227   0.03227   0.79378   0.00000  Uiso   1.00
H594   H     0.08823   0.03120   0.84089   0.00000  Uiso   1.00
H595   H     0.11761   0.30039   0.83760   0.00000  Uiso   1.00
H596   H     0.24698   0.21411   0.88446   0.00000  Uiso   1.00
H597   H     0.04167   0.30646   0.83618   0.00000  Uiso   1.00
H598   H     0.24400   0.21712   0.60833   0.00000  Uiso   1.00
H599   H     0.08943   0.11655   0.89163   0.00000  Uiso   1.00
H600   H     0.29035   0.24414   0.95224   0.00000  Uiso   1.00
H601   H     0.04213   0.09076   0.54763   0.00000  Uiso   1.00
H602   H     0.00465   0.12744   0.71621   0.00000  Uiso   1.00
H603   H     0.32868   0.20588   0.78381   0.00000  Uiso   1.00
H604   H     0.32745   0.32670   0.55658   0.00000  Uiso   1.00
N605   N     0.31678   0.15265   0.73783   0.00000  Uiso   1.00
N606   N     0.01656   0.18068   0.76217   0.00000  Uiso   1.00
O607   O     0.12975   0.24619   0.75298   0.00000  Uiso   1.00
O608   O     0.03560   0.07945   0.96059   0.00000  Uiso   1.00
O609   O     0.24795   0.00629   0.75386   0.00000  Uiso   1.00
O610   O     0.08931   0.32795   0.77780   0.00000  Uiso   1.00
O611   O     0.20358   0.08714   0.74701   0.00000  Uiso   1.00
O612   O     0.22613   0.23721   0.74518   0.00000  Uiso   1.00
O613   O     0.10720   0.09613   0.75481   0.00000  Uiso   1.00
O614   O     0.11847   0.17117   0.81997   0.00000  Uiso   1.00
O615   O     0.21486   0.16216   0.68002   0.00000  Uiso   1.00
O616   O     0.21485   0.16219   0.81217   0.00000  Uiso   1.00
O617   O     0.11848   0.17115   0.68782   0.00000  Uiso   1.00
O618   O     0.29950   0.25203   0.53967   0.00000  Uiso   1.00
Zn619  Zn    0.10231   0.17266   0.75521   0.00000  Uiso   1.00
Zn620  Zn    0.23102   0.16067   0.74479   0.00000  Uiso   1.00
C621   C     0.51538   0.26470   0.75224   0.00000  Uiso   1.00
C622   C     0.54590   0.19307   0.90466   0.00000  Uiso   1.00
C623   C     0.49831   0.16878   0.61583   0.00000  Uiso   1.00
C624   C     0.50148   0.16526   0.88413   0.00000  Uiso   1.00
C625   C     0.54317   0.19634   0.59106   0.00000  Uiso   1.00
C626   C     0.45640   0.13808   0.90891   0.00000  Uiso   1.00
C627   C     0.54348   0.19746   0.54456   0.00000  Uiso   1.00
C628   C     0.45477   0.13883   0.95547   0.00000  Uiso   1.00
C629   C     0.49841   0.16928   0.52337   0.00000  Uiso   1.00
C630   C     0.49912   0.16799   0.97668   0.00000  Uiso   1.00
C631   C     0.45311   0.14164   0.54893   0.00000  Uiso   1.00
C632   C     0.48504   0.06865   0.75446   0.00000  Uiso   1.00
C633   C     0.54471   0.19520   0.95110   0.00000  Uiso   1.00
C634   C     0.58781   0.22590   0.51898   0.00000  Uiso   1.00
C635   C     0.40969   0.11141   0.98112   0.00000  Uiso   1.00
C636   C     0.62734   0.30611   0.53693   0.00000  Uiso   1.00
C637   C     0.65117   0.10577   0.96004   0.00000  Uiso   1.00
C638   C     0.60191   0.01209   0.79708   0.00000  Uiso   1.00
C639   C     0.41803   0.32498   0.82518   0.00000  Uiso   1.00
C640   C     0.58844   0.22395   0.97213   0.00000  Uiso   1.00
C641   C     0.40941   0.11283   0.52788   0.00000  Uiso   1.00
C642   C     0.52451   0.31895   0.75865   0.00000  Uiso   1.00
C643   C     0.47792   0.01495   0.76440   0.00000  Uiso   1.00
C644   C     0.50056   0.16624   0.83649   0.00000  Uiso   1.00
C645   C     0.49942   0.16711   0.66349   0.00000  Uiso   1.00
C646   C     0.45301   0.14226   0.59531   0.00000  Uiso   1.00
H647   H     0.41880   0.12089   0.61545   0.00000  Uiso   1.00
H648   H     0.58443   0.31720   0.55177   0.00000  Uiso   1.00
H649   H     0.63479   0.31963   0.50164   0.00000  Uiso   1.00
H650   H     0.61862   0.08036   0.94322   0.00000  Uiso   1.00
H651   H     0.65885   0.14222   0.94037   0.00000  Uiso   1.00
H652   H     0.63263   0.11428   0.99470   0.00000  Uiso   1.00
H653   H     0.60540   0.30680   0.81244   0.00000  Uiso   1.00
H654   H     0.57421   0.03658   0.81973   0.00000  Uiso   1.00
H655   H     0.64560   0.03227   0.79378   0.00000  Uiso   1.00
H656   H     0.42156   0.03120   0.84089   0.00000  Uiso   1.00
H657   H     0.45095   0.30039   0.83760   0.00000  Uiso   1.00
H658   H     0.58031   0.21411   0.88446   0.00000  Uiso   1.00
H659   H     0.37501   0.30646   0.83618   0.00000  Uiso   1.00
H660   H     0.57733   0.21712   0.60833   0.00000  Uiso   1.00
H661   H     0.42276   0.11655   0.89163   0.00000  Uiso   1.00
H662   H     0.62368   0.24414   0.95224   0.00000  Uiso   1.00
H663   H     0.37546   0.09076   0.54763   0.00000  Uiso   1.00
H664   H     0.33799   0.12744   0.71621   0.00000  Uiso   1.00
H665   H     0.66202   0.20588   0.78381   0.00000  Uiso   1.00
H666   H     0.66078   0.32670   0.55658   0.00000  Uiso   1.00
N667   N     0.65011   0.15265   0.73783   0.00000  Uiso   1.00
N668   N     0.34989   0.18068   0.76217   0.00000  Uiso   1.00
O669   O     0.46308   0.24619   0.75298   0.00000  Uiso   1.00
O670   O     0.36893   0.07945   0.96059   0.00000  Uiso   1.00
O671   O     0.58128   0.00629   0.75386   0.00000  Uiso   1.00
O672   O     0.42265   0.32795   0.77780   0.00000  Uiso   1.00
O673   O     0.53692   0.08714   0.74701   0.00000  Uiso   1.00
O674   O     0.55946   0.23721   0.74518   0.00000  Uiso   1.00
O675   O     0.44054   0.09613   0.75481   0.00000  Uiso   1.00
O676   O     0.45181   0.17117   0.81997   0.00000  Uiso   1.00
O677   O     0.54819   0.16216   0.68002   0.00000  Uiso   1.00
O678   O     0.54819   0.16219   0.81217   0.00000  Uiso   1.00
O679   O     0.45181   0.17115   0.68782   0.00000  Uiso   1.00
O680   O     0.63284   0.25203   0.53967   0.00000  Uiso   1.00
Zn681  Zn    0.43565   0.17266   0.75521   0.00000  Uiso   1.00
Zn682  Zn    0.56435   0.16067   0.74479   0.00000  Uiso   1.00
C683   C     0.84871   0.26470   0.75224   0.00000  Uiso   1.00
C684   C     0.87923   0.19307   0.90466   0.00000  Uiso   1.00
C685   C     0.83165   0.16878   0.61583   0.00000  Uiso   1.00
C686   C     0.83481   0.16526   0.88413   0.00000  Uiso   1.00
C687   C     0.87650   0.19634   0.59106   0.00000  Uiso   1.00
C688   C     0.78973   0.13808   0.90891   0.00000  Uiso   1.00
C689   C     0.87681   0.19746   0.54456   0.00000  Uiso   1.00
C690   C     0.78811   0.13883   0.95547   0.00000  Uiso   1.00
C691   C     0.83175   0.16928   0.52337   0.00000  Uiso   1.00
C692   C     0.83245   0.16799   0.97668   0.00000  Uiso   1.00
C693   C     0.78645   0.14164   0.54893   0.00000  Uiso   1.00
C694   C     0.81838   0.06865   0.75446   0.00000  Uiso   1.00
C695   C     0.87804   0.19520   0.95110   0.00000  Uiso   1.00
C696   C     0.92115   0.22590   0.51898   0.00000  Uiso   1.00
C697   C     0.74303   0.11141   0.98112   0.00000  Uiso   1.00
C698   C     0.96068   0.30611   0.53693   0.00000  Uiso   1.00
C699   C     0.98450   0.10577   0.96004   0.00000  Uiso   1.00
C700   C     0.93524   0.01209   0.79708   0.00000  Uiso   1.00
C701   C     0.75136   0.32498   0.82518   0.00000  Uiso   1.00
C702   C     0.92177   0.22395   0.97213   0.00000  Uiso   1.00
C703   C     0.74274   0.11283   0.52788   0.00000  Uiso   1.00
C704   C     0.85784   0.31895   0.75865   0.00000  Uiso   1.00
C705   C     0.81126   0.01495   0.76440   0.00000  Uiso   1.00
C706   C     0.83390   0.16624   0.83649   0.00000  Uiso   1.00
C707   C     0.83275   0.16711   0.66349   0.00000  Uiso   1.00
C708   C     0.78634   0.14226   0.59531   0.00000  Uiso   1.00
H709   H     0.75213   0.12089   0.61545   0.00000  Uiso   1.00
H710   H     0.91776   0.31720   0.55177   0.00000  Uiso   1.00
H711   H     0.96813   0.31963   0.50164   0.00000  Uiso   1.00
H712   H     0.95195   0.08036   0.94322   0.00000  Uiso   1.00
H713   H     0.99218   0.14222   0.94037   0.00000  Uiso   1.00
H714   H     0.96596   0.11428   0.99470   0.00000  Uiso   1.00
H715   H     0.93874   0.30680   0.81244   0.00000  Uiso   1.00
H716   H     0.90755   0.03658   0.81973   0.00000  Uiso   1.00
H717   H     0.97894   0.03227   0.79378   0.00000  Uiso   1.00
H718   H     0.75489   0.03120   0.84089   0.00000  Uiso   1.00
H719   H     0.78428   0.30039   0.83760   0.00000  Uiso   1.00
H720   H     0.91365   0.21411   0.88446   0.00000  Uiso   1.00
H721   H     0.70834   0.30646   0.83618   0.00000  Uiso   1.00
H722   H     0.91066   0.21712   0.60833   0.00000  Uiso   1.00
H723   H     0.75609   0.11655   0.89163   0.00000  Uiso   1.00
H724   H     0.95702   0.24414   0.95224   0.00000  Uiso   1.00
H725   H     0.70880   0.09076   0.54763   0.00000  Uiso   1.00
H726   H     0.67132   0.12744   0.71621   0.00000  Uiso   1.00
H727   H     0.99535   0.20588   0.78381   0.00000  Uiso   1.00
H728   H     0.99411   0.32670   0.55658   0.00000  Uiso   1.00
N729   N     0.98344   0.15265   0.73783   0.00000  Uiso   1.00
N730   N     0.68322   0.18068   0.76217   0.00000  Uiso   1.00
O731   O     0.79642   0.24619   0.75298   0.00000  Uiso   1.00
O732   O     0.70227   0.07945   0.96059   0.00000  Uiso   1.00
O733   O     0.91461   0.00629   0.75386   0.00000  Uiso   1.00
O734   O     0.75598   0.32795   0.77780   0.00000  Uiso   1.00
O735   O     0.87025   0.08714   0.74701   0.00000  Uiso   1.00
O736   O     0.89280   0.23721   0.74518   0.00000  Uiso   1.00
O737   O     0.77387   0.09613   0.75481   0.00000  Uiso   1.00
O738   O     0.78514   0.17117   0.81997   0.00000  Uiso   1.00
O739   O     0.88153   0.16216   0.68002   0.00000  Uiso   1.00
O740   O     0.88152   0.16219   0.81217   0.00000  Uiso   1.00
O741   O     0.78515   0.17115   0.68782   0.00000  Uiso   1.00
O742   O     0.96617   0.25203   0.53967   0.00000  Uiso   1.00
Zn743  Zn    0.76898   0.17266   0.75521   0.00000  Uiso   1.00
Zn744  Zn    0.89769   0.16067   0.74479   0.00000  Uiso   1.00
C745   C     0.18204   0.59803   0.75224   0.00000  Uiso   1.00
C746   C     0.21257   0.52641   0.90466   0.00000  Uiso   1.00
C747   C     0.16498   0.50211   0.61583   0.00000  Uiso   1.00
C748   C     0.16815   0.49860   0.88413   0.00000  Uiso   1.00
C749   C     0.20984   0.52967   0.59106   0.00000  Uiso   1.00
C750   C     0.12307   0.47141   0.90891   0.00000  Uiso   1.00
C751   C     0.21014   0.53079   0.54456   0.00000  Uiso   1.00
C752   C     0.12144   0.47216   0.95547   0.00000  Uiso   1.00
C753   C     0.16508   0.50262   0.52337   0.00000  Uiso   1.00
C754   C     0.16579   0.50132   0.97668   0.00000  Uiso   1.00
C755   C     0.11978   0.47498   0.54893   0.00000  Uiso   1.00
C756   C     0.15171   0.40199   0.75446   0.00000  Uiso   1.00
C757   C     0.21137   0.52853   0.95110   0.00000  Uiso   1.00
C758   C     0.25448   0.55923   0.51898   0.00000  Uiso   1.00
C759   C     0.07636   0.44475   0.98112   0.00000  Uiso   1.00
C760   C     0.29401   0.63944   0.53693   0.00000  Uiso   1.00
C761   C     0.31784   0.43911   0.96004   0.00000  Uiso   1.00
C762   C     0.26857   0.34543   0.79708   0.00000  Uiso   1.00
C763   C     0.08470   0.65831   0.82518   0.00000  Uiso   1.00
C764   C     0.25511   0.55728   0.97213   0.00000  Uiso   1.00
C765   C     0.07608   0.44617   0.52788   0.00000  Uiso   1.00
C766   C     0.19117   0.65228   0.75865   0.00000  Uiso   1.00
C767   C     0.14459   0.34828   0.76440   0.00000  Uiso   1.00
C768   C     0.16723   0.49957   0.83649   0.00000  Uiso   1.00
C769   C     0.16609   0.50045   0.66349   0.00000  Uiso   1.00
C770   C     0.11968   0.47560   0.59531   0.00000  Uiso   1.00
H771   H     0.08546   0.45423   0.61545   0.00000  Uiso   1.00
H772   H     0.25109   0.65053   0.55177   0.00000  Uiso   1.00
H773   H     0.30146   0.65297   0.50164   0.00000  Uiso   1.00
H774   H     0.28529   0.41370   0.94322   0.00000  Uiso   1.00
H775   H     0.32552   0.47555   0.94037   0.00000  Uiso   1.00
H776   H     0.29930   0.44761   0.99470   0.00000  Uiso   1.00
H777   H     0.27207   0.64013   0.81244   0.00000  Uiso   1.00
H778   H     0.24088   0.36992   0.81973   0.00000  Uiso   1.00
H779   H     0.31227   0.36560   0.79378   0.00000  Uiso   1.00
H780   H     0.08823   0.36453   0.84089   0.00000  Uiso   1.00
H781   H     0.11761   0.63372   0.83760   0.00000  Uiso   1.00
H782   H     0.24698   0.54744   0.88446   0.00000  Uiso   1.00
H783   H     0.04167   0.63979   0.83618   0.00000  Uiso   1.00
H784   H     0.24400   0.55046   0.60833   0.00000  Uiso   1.00
H785   H     0.08943   0.44989   0.89163   0.00000  Uiso   1.00
H786   H     0.29035   0.57747   0.95224   0.00000  Uiso   1.00
H787   H     0.04213   0.42409   0.54763   0.00000  Uiso   1.00
H788   H     0.00465   0.46077   0.71621   0.00000  Uiso   1.00
H789   H     0.32868   0.53921   0.78381   0.00000  Uiso   1.00
H790   H     0.32745   0.66003   0.55658   0.00000  Uiso   1.00
N791   N     0.31678   0.48598   0.73783   0.00000  Uiso   1.00
N792   N     0.01656   0.51402   0.76217   0.00000  Uiso   1.00
O793   O     0.12975   0.57952   0.75298   0.00000  Uiso   1.00
O794   O     0.03560   0.41278   0.96059   0.00000  Uiso   1.00
O795   O     0.24795   0.33962   0.75386   0.00000  Uiso   1.00
O796   O     0.08931   0.66128   0.77780   0.00000  Uiso   1.00
O797   O     0.20358   0.42048   0.74701   0.00000  Uiso   1.00
O798   O     0.22613   0.57054   0.74518   0.00000  Uiso   1.00
O799   O     0.10720   0.42946   0.75481   0.00000  Uiso   1.00
O800   O     0.11847   0.50450   0.81997   0.00000  Uiso   1.00
O801   O     0.21486   0.49550   0.68002   0.00000  Uiso   1.00
O802   O     0.21485   0.49552   0.81217   0.00000  Uiso   1.00
O803   O     0.11848   0.50448   0.68782   0.00000  Uiso   1.00
O804   O     0.29950   0.58537   0.53967   0.00000  Uiso   1.00
Zn805  Zn    0.10231   0.50600   0.75521   0.00000  Uiso   1.00
Zn806  Zn    0.23102   0.49400   0.74479   0.00000  Uiso   1.00
C807   C     0.51538   0.59803   0.75224   0.00000  Uiso   1.00
C808   C     0.54590   0.52641   0.90466   0.00000  Uiso   1.00
C809   C     0.49831   0.50211   0.61583   0.00000  Uiso   1.00
C810   C     0.50148   0.49860   0.88413   0.00000  Uiso   1.00
C811   C     0.54317   0.52967   0.59106   0.00000  Uiso   1.00
C812   C     0.45640   0.47141   0.90891   0.00000  Uiso   1.00
C813   C     0.54348   0.53079   0.54456   0.00000  Uiso   1.00
C814   C     0.45477   0.47216   0.95547   0.00000  Uiso   1.00
C815   C     0.49841   0.50262   0.52337   0.00000  Uiso   1.00
C816   C     0.49912   0.50132   0.97668   0.00000  Uiso   1.00
C817   C     0.45311   0.47498   0.54893   0.00000  Uiso   1.00
C818   C     0.48504   0.40199   0.75446   0.00000  Uiso   1.00
C819   C     0.54471   0.52853   0.95110   0.00000  Uiso   1.00
C820   C     0.58781   0.55923   0.51898   0.00000  Uiso   1.00
C821   C     0.40969   0.44475   0.98112   0.00000  Uiso   1.00
C822   C     0.62734   0.63944   0.53693   0.00000  Uiso   1.00
C823   C     0.65117   0.43911   0.96004   0.00000  Uiso   1.00
C824   C     0.60191   0.34543   0.79708   0.00000  Uiso   1.00
C825   C     0.41803   0.65831   0.82518   0.00000  Uiso   1.00
C826   C     0.58844   0.55728   0.97213   0.00000  Uiso   1.00
C827   C     0.40941   0.44617   0.52788   0.00000  Uiso   1.00
C828   C     0.52451   0.65228   0.75865   0.00000  Uiso   1.00
C829   C     0.47792   0.34828   0.76440   0.00000  Uiso   1.00
C830   C     0.50056   0.49957   0.83649   0.00000  Uiso   1.00
C831   C     0.49942   0.50045   0.66349   0.00000  Uiso   1.00
C832   C     0.45301   0.47560   0.59531   0.00000  Uiso   1.00
H833   H     0.41880   0.45423   0.61545   0.00000  Uiso   1.00
H834   H     0.58443   0.65053   0.55177   0.00000  Uiso   1.00
H835   H     0.63479   0.65297   0.50164   0.00000  Uiso   1.00
H836   H     0.61862   0.41370   0.94322   0.00000  Uiso   1.00
H837   H     0.65885   0.47555   0.94037   0.00000  Uiso   1.00
H838   H     0.63263   0.44761   0.99470   0.00000  Uiso   1.00
H839   H     0.60540   0.64013   0.81244   0.00000  Uiso   1.00
H840   H     0.57421   0.36992   0.81973   0.00000  Uiso   1.00
H841   H     0.64560   0.36560   0.79378   0.00000  Uiso   1.00
H842   H     0.42156   0.36453   0.84089   0.00000  Uiso   1.00
H843   H     0.45095   0.63372   0.83760   0.00000  Uiso   1.00
H844   H     0.58031   0.54744   0.88446   0.00000  Uiso   1.00
H845   H     0.37501   0.63979   0.83618   0.00000  Uiso   1.00
H846   H     0.57733   0.55046   0.60833   0.00000  Uiso   1.00
H847   H     0.42276   0.44989   0.89163   0.00000  Uiso   1.00
H848   H     0.62368   0.57747   0.95224   0.00000  Uiso   1.00
H849   H     0.37546   0.42409   0.54763   0.00000  Uiso   1.00
H850   H     0.33799   0.46077   0.71621   0.00000  Uiso   1.00
H851   H     0.66202   0.53921   0.78381   0.00000  Uiso   1.00
H852   H     0.66078   0.66003   0.55658   0.00000  Uiso   1.00
N853   N     0.65011   0.48598   0.73783   0.00000  Uiso   1.00
N854   N     0.34989   0.51402   0.76217   0.00000  Uiso   1.00
O855   O     0.46308   0.57952   0.75298   0.00000  Uiso   1.00
O856   O     0.36893   0.41278   0.96059   0.00000  Uiso   1.00
O857   O     0.58128   0.33962   0.75386   0.00000  Uiso   1.00
O858   O     0.42265   0.66128   0.77780   0.00000  Uiso   1.00
O859   O     0.53692   0.42048   0.74701   0.00000  Uiso   1.00
O860   O     0.55946   0.57054   0.74518   0.00000  Uiso   1.00
O861   O     0.44054   0.42946   0.75481   0.00000  Uiso   1.00
O862   O     0.45181   0.50450   0.81997   0.00000  Uiso   1.00
O863   O     0.54819   0.49550   0.68002   0.00000  Uiso   1.00
O864   O     0.54819   0.49552   0.81217   0.00000  Uiso   1.00
O865   O     0.45181   0.50448   0.68782   0.00000  Uiso   1.00
O866   O     0.63284   0.58537   0.53967   0.00000  Uiso   1.00
Zn867  Zn    0.43565   0.50600   0.75521   0.00000  Uiso   1.00
Zn868  Zn    0.56435   0.49400   0.74479   0.00000  Uiso   1.00
C869   C     0.84871   0.59803   0.75224   0.00000  Uiso   1.00
C870   C     0.87923   0.52641   0.90466   0.00000  Uiso   1.00
C871   C     0.83165   0.50211   0.61583   0.00000  Uiso   1.00
C872   C     0.83481   0.49860   0.88413   0.00000  Uiso   1.00
C873   C     0.87650   0.52967   0.59106   0.00000  Uiso   1.00
C874   C     0.78973   0.47141   0.90891   0.00000  Uiso   1.00
C875   C     0.87681   0.53079   0.54456   0.00000  Uiso   1.00
C876   C     0.78811   0.47216   0.95547   0.00000  Uiso   1.00
C877   C     0.83175   0.50262   0.52337   0.00000  Uiso   1.00
C878   C     0.83245   0.50132   0.97668   0.00000  Uiso   1.00
C879   C     0.78645   0.47498   0.54893   0.00000  Uiso   1.00
C880   C     0.81838   0.40199   0.75446   0.00000  Uiso   1.00
C881   C     0.87804   0.52853   0.95110   0.00000  Uiso   1.00
C882   C     0.92115   0.55923   0.51898   0.00000  Uiso   1.00
C883   C     0.74303   0.44475   0.98112   0.00000  Uiso   1.00
C884   C     0.96068   0.63944   0.53693   0.00000  Uiso   1.00
C885   C     0.98450   0.43911   0.96004   0.00000  Uiso   1.00
C886   C     0.93524   0.34543   0.79708   0.00000  Uiso   1.00
C887   C     0.75136   0.65831   0.82518   0.00000  Uiso   1.00
C888   C     0.92177   0.55728   0.97213   0.00000  Uiso   1.00
C889   C     0.74274   0.44617   0.52788   0.00000  Uiso   1.00
C890   C     0.85784   0.65228   0.75865   0.00000  Uiso   1.00
C891   C     0.81126   0.34828   0.76440   0.00000  Uiso   1.00
C892   C     0.83390   0.49957   0.83649   0.00000  Uiso   1.00
C893   C     0.83275   0.50045   0.66349   0.00000  Uiso   1.00
C894   C     0.78634   0.47560   0.59531   0.00000  Uiso   1.00
H895   H     0.75213   0.45423   0.61545   0.00000  Uiso   1.00
H896   H     0.91776   0.65053   0.55177   0.00000  Uiso   1.00
H897   H     0.96813   0.65297   0.50164   0.00000  Uiso   1.00
H898   H     0.95195   0.41370   0.94322   0.00000  Uiso   1.00
H899   H     0.99218   0.47555   0.94037   0.00000  Uiso   1.00
H900   H     0.96596   0.44761   0.99470   0.00000  Uiso   1.00
H901   H     0.93874   0.64013   0.81244   0.00000  Uiso   1.00
H902   H     0.90755   0.36992   0.81973   0.00000  Uiso   1.00
H903   H     0.97894   0.36560   0.79378   0.00000  Uiso   1.00
H904   H     0.75489   0.36453   0.84089   0.00000  Uiso   1.00
H905   H     0.78428   0.63372   0.83760   0.00000  Uiso   1.00
H906   H     0.91365   0.54744   0.88446   0.00000  Uiso   1.00
H907   H     0.70834   0.63979   0.83618   0.00000  Uiso   1.00
H908   H     0.91066   0.55046   0.60833   0.00000  Uiso   1.00
H909   H     0.75609   0.44989   0.89163   0.00000  Uiso   1.00
H910   H     0.95702   0.57747   0.95224   0.00000  Uiso   1.00
H911   H     0.70880   0.42409   0.54763   0.00000  Uiso   1.00
H912   H     0.67132   0.46077   0.71621   0.00000  Uiso   1.00
H913   H     0.99535   0.53921   0.78381   0.00000  Uiso   1.00
H914   H     0.99411   0.66003   0.55658   0.00000  Uiso   1.00
N915   N     0.98344   0.48598   0.73783   0.00000  Uiso   1.00
N916   N     0.68322   0.51402   0.76217   0.00000  Uiso   1.00
O917   O     0.79642   0.57952   0.75298   0.00000  Uiso   1.00
O918   O     0.70227   0.41278   0.96059   0.00000  Uiso   1.00
O919   O     0.91461   0.33962   0.75386   0.00000  Uiso   1.00
O920   O     0.75598   0.66128   0.77780   0.00000  Uiso   1.00
O921   O     0.87025   0.42048   0.74701   0.00000  Uiso   1.00
O922   O     0.89280   0.57054   0.74518   0.00000  Uiso   1.00
O923   O     0.77387   0.42946   0.75481   0.00000  Uiso   1.00
O924   O     0.78514   0.50450   0.81997   0.00000  Uiso   1.00
O925   O     0.88153   0.49550   0.68002   0.00000  Uiso   1.00
O926   O     0.88152   0.49552   0.81217   0.00000  Uiso   1.00
O927   O     0.78515   0.50448   0.68782   0.00000  Uiso   1.00
O928   O     0.96617   0.58537   0.53967   0.00000  Uiso   1.00
Zn929  Zn    0.76898   0.50600   0.75521   0.00000  Uiso   1.00
Zn930  Zn    0.89769   0.49400   0.74479   0.00000  Uiso   1.00
C931   C     0.18204   0.93137   0.75224   0.00000  Uiso   1.00
C932   C     0.21257   0.85974   0.90466   0.00000  Uiso   1.00
C933   C     0.16498   0.83544   0.61583   0.00000  Uiso   1.00
C934   C     0.16815   0.83193   0.88413   0.00000  Uiso   1.00
C935   C     0.20984   0.86301   0.59106   0.00000  Uiso   1.00
C936   C     0.12307   0.80474   0.90891   0.00000  Uiso   1.00
C937   C     0.21014   0.86412   0.54456   0.00000  Uiso   1.00
C938   C     0.12144   0.80550   0.95547   0.00000  Uiso   1.00
C939   C     0.16508   0.83595   0.52337   0.00000  Uiso   1.00
C940   C     0.16579   0.83465   0.97668   0.00000  Uiso   1.00
C941   C     0.11978   0.80831   0.54893   0.00000  Uiso   1.00
C942   C     0.15171   0.73532   0.75446   0.00000  Uiso   1.00
C943   C     0.21137   0.86186   0.95110   0.00000  Uiso   1.00
C944   C     0.25448   0.89256   0.51898   0.00000  Uiso   1.00
C945   C     0.07636   0.77808   0.98112   0.00000  Uiso   1.00
C946   C     0.29401   0.97277   0.53693   0.00000  Uiso   1.00
C947   C     0.31784   0.77244   0.96004   0.00000  Uiso   1.00
C948   C     0.26857   0.67876   0.79708   0.00000  Uiso   1.00
C949   C     0.08470   0.99165   0.82518   0.00000  Uiso   1.00
C950   C     0.25511   0.89062   0.97213   0.00000  Uiso   1.00
C951   C     0.07608   0.77950   0.52788   0.00000  Uiso   1.00
C952   C     0.19117   0.98562   0.75865   0.00000  Uiso   1.00
C953   C     0.14459   0.68162   0.76440   0.00000  Uiso   1.00
C954   C     0.16723   0.83291   0.83649   0.00000  Uiso   1.00
C955   C     0.16609   0.83378   0.66349   0.00000  Uiso   1.00
C956   C     0.11968   0.80893   0.59531   0.00000  Uiso   1.00
H957   H     0.08546   0.78756   0.61545   0.00000  Uiso   1.00
H958   H     0.25109   0.98387   0.55177   0.00000  Uiso   1.00
H959   H     0.30146   0.98630   0.50164   0.00000  Uiso   1.00
H960   H     0.28529   0.74703   0.94322   0.00000  Uiso   1.00
H961   H     0.32552   0.80888   0.94037   0.00000  Uiso   1.00
H962   H     0.29930   0.78094   0.99470   0.00000  Uiso   1.00
H963   H     0.27207   0.97347   0.81244   0.00000  Uiso   1.00
H964   H     0.24088   0.70325   0.81973   0.00000  Uiso   1.00
H965   H     0.31227   0.69894   0.79378   0.00000  Uiso   1.00
H966   H     0.08823   0.69786   0.84089   0.00000  Uiso   1.00
H967   H     0.11761   0.96706   0.83760   0.00000  Uiso   1.00
H968   H     0.24698   0.88078   0.88446   0.00000  Uiso   1.00
H969   H     0.04167   0.97312   0.83618   0.00000  Uiso   1.00
H970   H     0.24400   0.88379   0.60833   0.00000  Uiso   1.00
H971   H     0.08943   0.78322   0.89163   0.00000  Uiso   1.00
H972   H     0.29035   0.91081   0.95224   0.00000  Uiso   1.00
H973   H     0.04213   0.75743   0.54763   0.00000  Uiso   1.00
H974   H     0.00465   0.79411   0.71621   0.00000  Uiso   1.00
H975   H     0.32868   0.87254   0.78381   0.00000  Uiso   1.00
H976   H     0.32745   0.99336   0.55658   0.00000  Uiso   1.00
N977   N     0.31678   0.81932   0.73783   0.00000  Uiso   1.00
N978   N     0.01656   0.84735   0.76217   0.00000  Uiso   1.00
O979   O     0.12975   0.91286   0.75298   0.00000  Uiso   1.00
O980   O     0.03560   0.74612   0.96059   0.00000  Uiso   1.00
O981   O     0.24795   0.67296   0.75386   0.00000  Uiso   1.00
O982   O     0.08931   0.99462   0.77780   0.00000  Uiso   1.00
O983   O     0.20358   0.75381   0.74701   0.00000  Uiso   1.00
O984   O     0.22613   0.90387   0.74518   0.00000  Uiso   1.00
O985   O     0.10720   0.76279   0.75481   0.00000  Uiso   1.00
O986   O     0.11847   0.83784   0.81997   0.00000  Uiso   1.00
O987   O     0.21486   0.82883   0.68002   0.00000  Uiso   1.00
O988   O     0.21485   0.82885   0.81217   0.00000  Uiso   1.00
O989   O     0.11848   0.83781   0.68782   0.00000  Uiso   1.00
O990   O     0.29950   0.91870   0.53967   0.00000  Uiso   1.00
Zn991  Zn    0.10231   0.83933   0.75521   0.00000  Uiso   1.00
Zn992  Zn    0.23102   0.82734   0.74479   0.00000  Uiso   1.00
C993   C     0.51538   0.93137   0.75224   0.00000  Uiso   1.00
C994   C     0.54590   0.85974   0.90466   0.00000  Uiso   1.00
C995   C     0.49831   0.83544   0.61583   0.00000  Uiso   1.00
C996   C     0.50148   0.83193   0.88413   0.00000  Uiso   1.00
C997   C     0.54317   0.86301   0.59106   0.00000  Uiso   1.00
C998   C     0.45640   0.80474   0.90891   0.00000  Uiso   1.00
C999   C     0.54348   0.86412   0.54456   0.00000  Uiso   1.00
C1000  C     0.45477   0.80550   0.95547   0.00000  Uiso   1.00
C1001  C     0.49841   0.83595   0.52337   0.00000  Uiso   1.00
C1002  C     0.49912   0.83465   0.97668   0.00000  Uiso   1.00
C1003  C     0.45311   0.80831   0.54893   0.00000  Uiso   1.00
C1004  C     0.48504   0.73532   0.75446   0.00000  Uiso   1.00
C1005  C     0.54471   0.86186   0.95110   0.00000  Uiso   1.00
C1006  C     0.58781   0.89256   0.51898   0.00000  Uiso   1.00
C1007  C     0.40969   0.77808   0.98112   0.00000  Uiso   1.00
C1008  C     0.62734   0.97277   0.53693   0.00000  Uiso   1.00
C1009  C     0.65117   0.77244   0.96004   0.00000  Uiso   1.00
C1010  C     0.60191   0.67876   0.79708   0.00000  Uiso   1.00
C1011  C     0.41803   0.99165   0.82518   0.00000  Uiso   1.00
C1012  C     0.58844   0.89062   0.97213   0.00000  Uiso   1.00
C1013  C     0.40941   0.77950   0.52788   0.00000  Uiso   1.00
C1014  C     0.52451   0.98562   0.75865   0.00000  Uiso   1.00
C1015  C     0.47792   0.68162   0.76440   0.00000  Uiso   1.00
C1016  C     0.50056   0.83291   0.83649   0.00000  Uiso   1.00
C1017  C     0.49942   0.83378   0.66349   0.00000  Uiso   1.00
C1018  C     0.45301   0.80893   0.59531   0.00000  Uiso   1.00
H1019  H     0.41880   0.78756   0.61545   0.00000  Uiso   1.00
H1020  H     0.58443   0.98387   0.55177   0.00000  Uiso   1.00
H1021  H     0.63479   0.98630   0.50164   0.00000  Uiso   1.00
H1022  H     0.61862   0.74703   0.94322   0.00000  Uiso   1.00
H1023  H     0.65885   0.80888   0.94037   0.00000  Uiso   1.00
H1024  H     0.63263   0.78094   0.99470   0.00000  Uiso   1.00
H1025  H     0.60540   0.97347   0.81244   0.00000  Uiso   1.00
H1026  H     0.57421   0.70325   0.81973   0.00000  Uiso   1.00
H1027  H     0.64560   0.69894   0.79378   0.00000  Uiso   1.00
H1028  H     0.42156   0.69786   0.84089   0.00000  Uiso   1.00
H1029  H     0.45095   0.96706   0.83760   0.00000  Uiso   1.00
H1030  H     0.58031   0.88078   0.88446   0.00000  Uiso   1.00
H1031  H     0.37501   0.97312   0.83618   0.00000  Uiso   1.00
H1032  H     0.57733   0.88379   0.60833   0.00000  Uiso   1.00
H1033  H     0.42276   0.78322   0.89163   0.00000  Uiso   1.00
H1034  H     0.62368   0.91081   0.95224   0.00000  Uiso   1.00
H1035  H     0.37546   0.75743   0.54763   0.00000  Uiso   1.00
H1036  H     0.33799   0.79411   0.71621   0.00000  Uiso   1.00
H1037  H     0.66202   0.87254   0.78381   0.00000  Uiso   1.00
H1038  H     0.66078   0.99336   0.55658   0.00000  Uiso   1.00
N1039  N     0.65011   0.81932   0.73783   0.00000  Uiso   1.00
N1040  N     0.34989   0.84735   0.76217   0.00000  Uiso   1.00
O1041  O     0.46308   0.91286   0.75298   0.00000  Uiso   1.00
O1042  O     0.36893   0.74612   0.96059   0.00000  Uiso   1.00
O1043  O     0.58128   0.67296   0.75386   0.00000  Uiso   1.00
O1044  O     0.42265   0.99462   0.77780   0.00000  Uiso   1.00
O1045  O     0.53692   0.75381   0.74701   0.00000  Uiso   1.00
O1046  O     0.55946   0.90387   0.74518   0.00000  Uiso   1.00
O1047  O     0.44054   0.76279   0.75481   0.00000  Uiso   1.00
O1048  O     0.45181   0.83784   0.81997   0.00000  Uiso   1.00
O1049  O     0.54819   0.82883   0.68002   0.00000  Uiso   1.00
O1050  O     0.54819   0.82885   0.81217   0.00000  Uiso   1.00
O1051  O     0.45181   0.83781   0.68782   0.00000  Uiso   1.00
O1052  O     0.63284   0.91870   0.53967   0.00000  Uiso   1.00
Zn1053 Zn    0.43565   0.83933   0.75521   0.00000  Uiso   1.00
Zn1054 Zn    0.56435   0.82734   0.74479   0.00000  Uiso   1.00
C1055  C     0.84871   0.93137   0.75224   0.00000  Uiso   1.00
C1056  C     0.87923   0.85974   0.90466   0.00000  Uiso   1.00
C1057  C     0.83165   0.83544   0.61583   0.00000  Uiso   1.00
C1058  C     0.83481   0.83193   0.88413   0.00000  Uiso   1.00
C1059  C     0.87650   0.86301   0.59106   0.00000  Uiso   1.00
C1060  C     0.78973   0.80474   0.90891   0.00000  Uiso   1.00
C1061  C     0.87681   0.86412   0.54456   0.00000  Uiso   1.00
C1062  C     0.78811   0.80550   0.95547   0.00000  Uiso   1.00
C1063  C     0.83175   0.83595   0.52337   0.00000  Uiso   1.00
C1064  C     0.83245   0.83465   0.97668   0.00000  Uiso   1.00
C1065  C     0.78645   0.80831   0.54893   0.00000  Uiso   1.00
C1066  C     0.81838   0.73532   0.75446   0.00000  Uiso   1.00
C1067  C     0.87804   0.86186   0.95110   0.00000  Uiso   1.00
C1068  C     0.92115   0.89256   0.51898   0.00000  Uiso   1.00
C1069  C     0.74303   0.77808   0.98112   0.00000  Uiso   1.00
C1070  C     0.96068   0.97277   0.53693   0.00000  Uiso   1.00
C1071  C     0.98450   0.77244   0.96004   0.00000  Uiso   1.00
C1072  C     0.93524   0.67876   0.79708   0.00000  Uiso   1.00
C1073  C     0.75136   0.99165   0.82518   0.00000  Uiso   1.00
C1074  C     0.92177   0.89062   0.97213   0.00000  Uiso   1.00
C1075  C     0.74274   0.77950   0.52788   0.00000  Uiso   1.00
C1076  C     0.85784   0.98562   0.75865   0.00000  Uiso   1.00
C1077  C     0.81126   0.68162   0.76440   0.00000  Uiso   1.00
C1078  C     0.83390   0.83291   0.83649   0.00000  Uiso   1.00
C1079  C     0.83275   0.83378   0.66349   0.00000  Uiso   1.00
C1080  C     0.78634   0.80893   0.59531   0.00000  Uiso   1.00
H1081  H     0.75213   0.78756   0.61545   0.00000  Uiso   1.00
H1082  H     0.91776   0.98387   0.55177   0.00000  Uiso   1.00
H1083  H     0.96813   0.98630   0.50164   0.00000  Uiso   1.00
H1084  H     0.95195   0.74703   0.94322   0.00000  Uiso   1.00
H1085  H     0.99218   0.80888   0.94037   0.00000  Uiso   1.00
H1086  H     0.96596   0.78094   0.99470   0.00000  Uiso   1.00
H1087  H     0.93874   0.97347   0.81244   0.00000  Uiso   1.00
H1088  H     0.90755   0.70325   0.81973   0.00000  Uiso   1.00
H1089  H     0.97894   0.69894   0.79378   0.00000  Uiso   1.00
H1090  H     0.75489   0.69786   0.84089   0.00000  Uiso   1.00
H1091  H     0.78428   0.96706   0.83760   0.00000  Uiso   1.00
H1092  H     0.91365   0.88078   0.88446   0.00000  Uiso   1.00
H1093  H     0.70834   0.97312   0.83618   0.00000  Uiso   1.00
H1094  H     0.91066   0.88379   0.60833   0.00000  Uiso   1.00
H1095  H     0.75609   0.78322   0.89163   0.00000  Uiso   1.00
H1096  H     0.95702   0.91081   0.95224   0.00000  Uiso   1.00
H1097  H     0.70880   0.75743   0.54763   0.00000  Uiso   1.00
H1098  H     0.67132   0.79411   0.71621   0.00000  Uiso   1.00
H1099  H     0.99535   0.87254   0.78381   0.00000  Uiso   1.00
H1100  H     0.99411   0.99336   0.55658   0.00000  Uiso   1.00
N1101  N     0.98344   0.81932   0.73783   0.00000  Uiso   1.00
N1102  N     0.68322   0.84735   0.76217   0.00000  Uiso   1.00
O1103  O     0.79642   0.91286   0.75298   0.00000  Uiso   1.00
O1104  O     0.70227   0.74612   0.96059   0.00000  Uiso   1.00
O1105  O     0.91461   0.67296   0.75386   0.00000  Uiso   1.00
O1106  O     0.75598   0.99462   0.77780   0.00000  Uiso   1.00
O1107  O     0.87025   0.75381   0.74701   0.00000  Uiso   1.00
O1108  O     0.89280   0.90387   0.74518   0.00000  Uiso   1.00
O1109  O     0.77387   0.76279   0.75481   0.00000  Uiso   1.00
O1110  O     0.78514   0.83784   0.81997   0.00000  Uiso   1.00
O1111  O     0.88153   0.82883   0.68002   0.00000  Uiso   1.00
O1112  O     0.88152   0.82885   0.81217   0.00000  Uiso   1.00
O1113  O     0.78515   0.83781   0.68782   0.00000  Uiso   1.00
O1114  O     0.96617   0.91870   0.53967   0.00000  Uiso   1.00
Zn1115 Zn    0.76898   0.83933   0.75521   0.00000  Uiso   1.00
Zn1116 Zn    0.89769   0.82734   0.74479   0.00000  Uiso   1.00
loop_
_geom_bond_atom_site_label_1
_geom_bond_atom_site_label_2
_geom_bond_distance
_geom_bond_site_symmetry_2
_ccdc_geom_bond_type
C1     O54     1.287   .     A
C1     C22     1.410   .     S
C1     O49     1.275   .     A
C2     C4      1.391   .     A
C2     H38     1.086   .     S
C2     C13     1.383   .     A
C3     C26     1.391   .     A
C3     C25     1.425   .     S
C3     C5      1.393   .     A
C4     C24     1.423   .     S
C4     C6      1.393   .     A
C5     C7      1.387   .     A
C5     H40     1.085   .     S
C6     C8      1.386   .     A
C6     H41     1.085   .     S
C7     C9      1.416   .     A
C7     C14     1.408   .     A
C8     C15     1.408   .     A
C8     C10     1.415   .     A
C9     C11     1.413   .     A
C9     C568    1.391   1_554 S
C10    C13     1.413   .     A
C10    C567    1.391   .     S
C11    C26     1.383   .     A
C11    C21     1.398   .     A
C12    C23     1.415   .     S
C12    O55     1.292   .     A
C12    O53     1.272   .     A
C13    C20     1.398   .     A
C14    O60     1.385   .     S
C14    C578    1.396   1_554 S
C15    O50     1.383   .     S
C15    C579    1.394   .     S
C16    H28     1.114   .     S
C16    H46     1.109   .     S
C16    O60     1.411   .     S
C16    H29     1.112   .     S
C17    H30     1.109   .     S
C17    H31     1.113   .     S
C17    H32     1.113   .     S
C17    O112    1.409   .     S
C18    H35     1.108   .     S
C18    O51     1.411   .     S
C18    H34     1.114   .     S
C18    H405    1.113   1_545 S
C19    H39     1.109   .     S
C19    H37     1.114   .     S
C19    O52     1.412   .     S
C19    H222    1.113   .     S
C20    H42     1.084   .     S
C20    C572    1.396   .     S
C21    H43     1.084   .     S
C21    C573    1.394   1_554 S
C22    C209    1.361   .     S
C22    O237    1.388   .     S
C23    C394    1.361   1_545 S
C23    O424    1.388   1_545 S
C24    O56     1.285   .     A
C24    O58     1.287   .     A
C25    O59     1.287   .     A
C25    O57     1.286   .     A
C26    H27     1.086   .     S
H33    C204    1.113   .     S
H36    C391    1.113   1_545 S
H44    N171    1.029   1_455 S
H45    N110    1.029   .     S
N47    Zn62    2.014   .     S
N47    H106    1.029   .     S
N47    N110    1.277   .     S
N48    Zn61    2.014   .     S
N48    N171    1.277   1_455 S
N48    H169    1.029   1_455 S
O49    Zn61    1.957   .     S
O50    C141    1.409   1_455 S
O51    C394    1.388   1_545 S
O52    C209    1.388   .     S
O53    Zn62    1.957   .     S
O54    Zn62    1.981   .     S
O55    Zn61    1.981   .     S
O56    Zn61    1.997   .     S
O57    Zn62    1.997   .     S
O58    Zn62    2.016   .     S
O59    Zn61    2.016   .     S
C63    O116    1.287   .     A
C63    C84     1.410   .     S
C63    O111    1.275   .     A
C64    C66     1.391   .     A
C64    H100    1.086   .     S
C64    C75     1.383   .     A
C65    C88     1.391   .     A
C65    C87     1.425   .     S
C65    C67     1.393   .     A
C66    C86     1.423   .     S
C66    C68     1.393   .     A
C67    C69     1.387   .     A
C67    H102    1.085   .     S
C68    C70     1.386   .     A
C68    H103    1.085   .     S
C69    C71     1.416   .     A
C69    C76     1.408   .     A
C70    C77     1.408   .     A
C70    C72     1.415   .     A
C71    C73     1.413   .     A
C71    C630    1.391   1_554 S
C72    C75     1.413   .     A
C72    C629    1.391   .     S
C73    C88     1.383   .     A
C73    C83     1.398   .     A
C74    C85     1.415   .     S
C74    O117    1.292   .     A
C74    O115    1.272   .     A
C75    C82     1.398   .     A
C76    O122    1.385   .     S
C76    C640    1.396   1_554 S
C77    O112    1.383   .     S
C77    C641    1.394   .     S
C78    H90     1.114   .     S
C78    H108    1.109   .     S
C78    O122    1.411   .     S
C78    H91     1.112   .     S
C79    H92     1.109   .     S
C79    H93     1.113   .     S
C79    H94     1.113   .     S
C79    O174    1.409   .     S
C80    H97     1.108   .     S
C80    O113    1.411   .     S
C80    H96     1.114   .     S
C80    H467    1.113   1_545 S
C81    H101    1.109   .     S
C81    H99     1.114   .     S
C81    O114    1.412   .     S
C81    H284    1.113   .     S
C82    H104    1.084   .     S
C82    C634    1.396   .     S
C83    H105    1.084   .     S
C83    C635    1.394   1_554 S
C84    C271    1.361   .     S
C84    O299    1.388   .     S
C85    C456    1.361   1_545 S
C85    O486    1.388   1_545 S
C86    O118    1.285   .     A
C86    O120    1.287   .     A
C87    O121    1.287   .     A
C87    O119    1.286   .     A
C88    H89     1.086   .     S
H95    C266    1.113   .     S
H98    C453    1.113   1_545 S
H107   N172    1.029   .     S
N109   Zn124   2.014   .     S
N109   H168    1.029   .     S
N109   N172    1.277   .     S
N110   Zn123   2.014   .     S
O111   Zn123   1.957   .     S
O113   C456    1.388   1_545 S
O114   C271    1.388   .     S
O115   Zn124   1.957   .     S
O116   Zn124   1.981   .     S
O117   Zn123   1.981   .     S
O118   Zn123   1.997   .     S
O119   Zn124   1.997   .     S
O120   Zn124   2.016   .     S
O121   Zn123   2.016   .     S
C125   O178    1.287   .     A
C125   C146    1.410   .     S
C125   O173    1.275   .     A
C126   C128    1.391   .     A
C126   H162    1.086   .     S
C126   C137    1.383   .     A
C127   C150    1.391   .     A
C127   C149    1.425   .     S
C127   C129    1.393   .     A
C128   C148    1.423   .     S
C128   C130    1.393   .     A
C129   C131    1.387   .     A
C129   H164    1.085   .     S
C130   C132    1.386   .     A
C130   H165    1.085   .     S
C131   C133    1.416   .     A
C131   C138    1.408   .     A
C132   C139    1.408   .     A
C132   C134    1.415   .     A
C133   C135    1.413   .     A
C133   C692    1.391   1_554 S
C134   C137    1.413   .     A
C134   C691    1.391   .     S
C135   C150    1.383   .     A
C135   C145    1.398   .     A
C136   C147    1.415   .     S
C136   O179    1.292   .     A
C136   O177    1.272   .     A
C137   C144    1.398   .     A
C138   O184    1.385   .     S
C138   C702    1.396   1_554 S
C139   O174    1.383   .     S
C139   C703    1.394   .     S
C140   H152    1.114   .     S
C140   H170    1.109   .     S
C140   O184    1.411   .     S
C140   H153    1.112   .     S
C141   H154    1.109   .     S
C141   H155    1.113   .     S
C141   H156    1.113   .     S
C141   O50     1.409   1_655 S
C142   H159    1.108   .     S
C142   O175    1.411   .     S
C142   H158    1.114   .     S
C142   H529    1.113   1_545 S
C143   H163    1.109   .     S
C143   H161    1.114   .     S
C143   O176    1.412   .     S
C143   H346    1.113   .     S
C144   H166    1.084   .     S
C144   C696    1.396   .     S
C145   H167    1.084   .     S
C145   C697    1.394   1_554 S
C146   C333    1.361   .     S
C146   O361    1.388   .     S
C147   C518    1.361   1_545 S
C147   O548    1.388   1_545 S
C148   O180    1.285   .     A
C148   O182    1.287   .     A
C149   O183    1.287   .     A
C149   O181    1.286   .     A
C150   H151    1.086   .     S
H157   C328    1.113   .     S
H160   C515    1.113   1_545 S
H169   N48     1.029   1_655 S
N171   Zn186   2.014   .     S
N171   H44     1.029   1_655 S
N171   N48     1.277   1_655 S
N172   Zn185   2.014   .     S
O173   Zn185   1.957   .     S
O175   C518    1.388   1_545 S
O176   C333    1.388   .     S
O177   Zn186   1.957   .     S
O178   Zn186   1.981   .     S
O179   Zn185   1.981   .     S
O180   Zn185   1.997   .     S
O181   Zn186   1.997   .     S
O182   Zn186   2.016   .     S
O183   Zn185   2.016   .     S
C187   O240    1.287   .     A
C187   C208    1.410   .     S
C187   O235    1.275   .     A
C188   C190    1.391   .     A
C188   H224    1.086   .     S
C188   C199    1.383   .     A
C189   C212    1.391   .     A
C189   C211    1.425   .     S
C189   C191    1.393   .     A
C190   C210    1.423   .     S
C190   C192    1.393   .     A
C191   C193    1.387   .     A
C191   H226    1.085   .     S
C192   C194    1.386   .     A
C192   H227    1.085   .     S
C193   C195    1.416   .     A
C193   C200    1.408   .     A
C194   C201    1.408   .     A
C194   C196    1.415   .     A
C195   C197    1.413   .     A
C195   C754    1.391   1_554 S
C196   C199    1.413   .     A
C196   C753    1.391   .     S
C197   C212    1.383   .     A
C197   C207    1.398   .     A
C198   C209    1.415   .     S
C198   O241    1.292   .     A
C198   O239    1.272   .     A
C199   C206    1.398   .     A
C200   O246    1.385   .     S
C200   C764    1.396   1_554 S
C201   O236    1.383   .     S
C201   C765    1.394   .     S
C202   H214    1.114   .     S
C202   H232    1.109   .     S
C202   O246    1.411   .     S
C202   H215    1.112   .     S
C203   H216    1.109   .     S
C203   H217    1.113   .     S
C203   H218    1.113   .     S
C203   O298    1.409   .     S
C204   H221    1.108   .     S
C204   O237    1.411   .     S
C204   H220    1.114   .     S
C205   H225    1.109   .     S
C205   H223    1.114   .     S
C205   O238    1.412   .     S
C205   H408    1.113   .     S
C206   H228    1.084   .     S
C206   C758    1.396   .     S
C207   H229    1.084   .     S
C207   C759    1.394   1_554 S
C208   C395    1.361   .     S
C208   O423    1.388   .     S
C210   O242    1.285   .     A
C210   O244    1.287   .     A
C211   O245    1.287   .     A
C211   O243    1.286   .     A
C212   H213    1.086   .     S
H219   C390    1.113   .     S
H230   N357    1.029   1_455 S
H231   N296    1.029   .     S
N233   Zn248   2.014   .     S
N233   H292    1.029   .     S
N233   N296    1.277   .     S
N234   Zn247   2.014   .     S
N234   N357    1.277   1_455 S
N234   H355    1.029   1_455 S
O235   Zn247   1.957   .     S
O236   C327    1.409   1_455 S
O238   C395    1.388   .     S
O239   Zn248   1.957   .     S
O240   Zn248   1.981   .     S
O241   Zn247   1.981   .     S
O242   Zn247   1.997   .     S
O243   Zn248   1.997   .     S
O244   Zn248   2.016   .     S
O245   Zn247   2.016   .     S
C249   O302    1.287   .     A
C249   C270    1.410   .     S
C249   O297    1.275   .     A
C250   C252    1.391   .     A
C250   H286    1.086   .     S
C250   C261    1.383   .     A
C251   C274    1.391   .     A
C251   C273    1.425   .     S
C251   C253    1.393   .     A
C252   C272    1.423   .     S
C252   C254    1.393   .     A
C253   C255    1.387   .     A
C253   H288    1.085   .     S
C254   C256    1.386   .     A
C254   H289    1.085   .     S
C255   C257    1.416   .     A
C255   C262    1.408   .     A
C256   C263    1.408   .     A
C256   C258    1.415   .     A
C257   C259    1.413   .     A
C257   C816    1.391   1_554 S
C258   C261    1.413   .     A
C258   C815    1.391   .     S
C259   C274    1.383   .     A
C259   C269    1.398   .     A
C260   C271    1.415   .     S
C260   O303    1.292   .     A
C260   O301    1.272   .     A
C261   C268    1.398   .     A
C262   O308    1.385   .     S
C262   C826    1.396   1_554 S
C263   O298    1.383   .     S
C263   C827    1.394   .     S
C264   H276    1.114   .     S
C264   H294    1.109   .     S
C264   O308    1.411   .     S
C264   H277    1.112   .     S
C265   H278    1.109   .     S
C265   H279    1.113   .     S
C265   H280    1.113   .     S
C265   O360    1.409   .     S
C266   H283    1.108   .     S
C266   O299    1.411   .     S
C266   H282    1.114   .     S
C267   H287    1.109   .     S
C267   H285    1.114   .     S
C267   O300    1.412   .     S
C267   H470    1.113   .     S
C268   H290    1.084   .     S
C268   C820    1.396   .     S
C269   H291    1.084   .     S
C269   C821    1.394   1_554 S
C270   C457    1.361   .     S
C270   O485    1.388   .     S
C272   O304    1.285   .     A
C272   O306    1.287   .     A
C273   O307    1.287   .     A
C273   O305    1.286   .     A
C274   H275    1.086   .     S
H281   C452    1.113   .     S
H293   N358    1.029   .     S
N295   Zn310   2.014   .     S
N295   H354    1.029   .     S
N295   N358    1.277   .     S
N296   Zn309   2.014   .     S
O297   Zn309   1.957   .     S
O300   C457    1.388   .     S
O301   Zn310   1.957   .     S
O302   Zn310   1.981   .     S
O303   Zn309   1.981   .     S
O304   Zn309   1.997   .     S
O305   Zn310   1.997   .     S
O306   Zn310   2.016   .     S
O307   Zn309   2.016   .     S
C311   O364    1.287   .     A
C311   C332    1.410   .     S
C311   O359    1.275   .     A
C312   C314    1.391   .     A
C312   H348    1.086   .     S
C312   C323    1.383   .     A
C313   C336    1.391   .     A
C313   C335    1.425   .     S
C313   C315    1.393   .     A
C314   C334    1.423   .     S
C314   C316    1.393   .     A
C315   C317    1.387   .     A
C315   H350    1.085   .     S
C316   C318    1.386   .     A
C316   H351    1.085   .     S
C317   C319    1.416   .     A
C317   C324    1.408   .     A
C318   C325    1.408   .     A
C318   C320    1.415   .     A
C319   C321    1.413   .     A
C319   C878    1.391   1_554 S
C320   C323    1.413   .     A
C320   C877    1.391   .     S
C321   C336    1.383   .     A
C321   C331    1.398   .     A
C322   C333    1.415   .     S
C322   O365    1.292   .     A
C322   O363    1.272   .     A
C323   C330    1.398   .     A
C324   O370    1.385   .     S
C324   C888    1.396   1_554 S
C325   O360    1.383   .     S
C325   C889    1.394   .     S
C326   H338    1.114   .     S
C326   H356    1.109   .     S
C326   O370    1.411   .     S
C326   H339    1.112   .     S
C327   H340    1.109   .     S
C327   H341    1.113   .     S
C327   H342    1.113   .     S
C327   O236    1.409   1_655 S
C328   H345    1.108   .     S
C328   O361    1.411   .     S
C328   H344    1.114   .     S
C329   H349    1.109   .     S
C329   H347    1.114   .     S
C329   O362    1.412   .     S
C329   H532    1.113   .     S
C330   H352    1.084   .     S
C330   C882    1.396   .     S
C331   H353    1.084   .     S
C331   C883    1.394   1_554 S
C332   C519    1.361   .     S
C332   O547    1.388   .     S
C334   O366    1.285   .     A
C334   O368    1.287   .     A
C335   O369    1.287   .     A
C335   O367    1.286   .     A
C336   H337    1.086   .     S
H343   C514    1.113   .     S
H355   N234    1.029   1_655 S
N357   Zn372   2.014   .     S
N357   H230    1.029   1_655 S
N357   N234    1.277   1_655 S
N358   Zn371   2.014   .     S
O359   Zn371   1.957   .     S
O362   C519    1.388   .     S
O363   Zn372   1.957   .     S
O364   Zn372   1.981   .     S
O365   Zn371   1.981   .     S
O366   Zn371   1.997   .     S
O367   Zn372   1.997   .     S
O368   Zn372   2.016   .     S
O369   Zn371   2.016   .     S
C373   O426    1.287   .     A
C373   C394    1.410   .     S
C373   O421    1.275   .     A
C374   C376    1.391   .     A
C374   H410    1.086   .     S
C374   C385    1.383   .     A
C375   C398    1.391   .     A
C375   C397    1.425   .     S
C375   C377    1.393   .     A
C376   C396    1.423   .     S
C376   C378    1.393   .     A
C377   C379    1.387   .     A
C377   H412    1.085   .     S
C378   C380    1.386   .     A
C378   H413    1.085   .     S
C379   C381    1.416   .     A
C379   C386    1.408   .     A
C380   C387    1.408   .     A
C380   C382    1.415   .     A
C381   C383    1.413   .     A
C381   C940    1.391   1_554 S
C382   C385    1.413   .     A
C382   C939    1.391   .     S
C383   C398    1.383   .     A
C383   C393    1.398   .     A
C384   C395    1.415   .     S
C384   O427    1.292   .     A
C384   O425    1.272   .     A
C385   C392    1.398   .     A
C386   O432    1.385   .     S
C386   C950    1.396   1_554 S
C387   O422    1.383   .     S
C387   C951    1.394   .     S
C388   H400    1.114   .     S
C388   H418    1.109   .     S
C388   O432    1.411   .     S
C388   H401    1.112   .     S
C389   H402    1.109   .     S
C389   H403    1.113   .     S
C389   H404    1.113   .     S
C389   O484    1.409   .     S
C390   H407    1.108   .     S
C390   O423    1.411   .     S
C390   H406    1.114   .     S
C391   H411    1.109   .     S
C391   H409    1.114   .     S
C391   O424    1.412   .     S
C391   H36     1.113   1_565 S
C392   H414    1.084   .     S
C392   C944    1.396   .     S
C393   H415    1.084   .     S
C393   C945    1.394   1_554 S
C394   C23     1.361   1_565 S
C394   O51     1.388   1_565 S
C396   O428    1.285   .     A
C396   O430    1.287   .     A
C397   O431    1.287   .     A
C397   O429    1.286   .     A
C398   H399    1.086   .     S
H405   C18     1.113   1_565 S
H416   N543    1.029   1_455 S
H417   N482    1.029   .     S
N419   Zn434   2.014   .     S
N419   H478    1.029   .     S
N419   N482    1.277   .     S
N420   Zn433   2.014   .     S
N420   N543    1.277   1_455 S
N420   H541    1.029   1_455 S
O421   Zn433   1.957   .     S
O422   C513    1.409   1_455 S
O424   C23     1.388   1_565 S
O425   Zn434   1.957   .     S
O426   Zn434   1.981   .     S
O427   Zn433   1.981   .     S
O428   Zn433   1.997   .     S
O429   Zn434   1.997   .     S
O430   Zn434   2.016   .     S
O431   Zn433   2.016   .     S
C435   O488    1.287   .     A
C435   C456    1.410   .     S
C435   O483    1.275   .     A
C436   C438    1.391   .     A
C436   H472    1.086   .     S
C436   C447    1.383   .     A
C437   C460    1.391   .     A
C437   C459    1.425   .     S
C437   C439    1.393   .     A
C438   C458    1.423   .     S
C438   C440    1.393   .     A
C439   C441    1.387   .     A
C439   H474    1.085   .     S
C440   C442    1.386   .     A
C440   H475    1.085   .     S
C441   C443    1.416   .     A
C441   C448    1.408   .     A
C442   C449    1.408   .     A
C442   C444    1.415   .     A
C443   C445    1.413   .     A
C443   C1002   1.391   1_554 S
C444   C447    1.413   .     A
C444   C1001   1.391   .     S
C445   C460    1.383   .     A
C445   C455    1.398   .     A
C446   C457    1.415   .     S
C446   O489    1.292   .     A
C446   O487    1.272   .     A
C447   C454    1.398   .     A
C448   O494    1.385   .     S
C448   C1012   1.396   1_554 S
C449   O484    1.383   .     S
C449   C1013   1.394   .     S
C450   H462    1.114   .     S
C450   H480    1.109   .     S
C450   O494    1.411   .     S
C450   H463    1.112   .     S
C451   H464    1.109   .     S
C451   H465    1.113   .     S
C451   H466    1.113   .     S
C451   O546    1.409   .     S
C452   H469    1.108   .     S
C452   O485    1.411   .     S
C452   H468    1.114   .     S
C453   H473    1.109   .     S
C453   H471    1.114   .     S
C453   O486    1.412   .     S
C453   H98     1.113   1_565 S
C454   H476    1.084   .     S
C454   C1006   1.396   .     S
C455   H477    1.084   .     S
C455   C1007   1.394   1_554 S
C456   C85     1.361   1_565 S
C456   O113    1.388   1_565 S
C458   O490    1.285   .     A
C458   O492    1.287   .     A
C459   O493    1.287   .     A
C459   O491    1.286   .     A
C460   H461    1.086   .     S
H467   C80     1.113   1_565 S
H479   N544    1.029   .     S
N481   Zn496   2.014   .     S
N481   H540    1.029   .     S
N481   N544    1.277   .     S
N482   Zn495   2.014   .     S
O483   Zn495   1.957   .     S
O486   C85     1.388   1_565 S
O487   Zn496   1.957   .     S
O488   Zn496   1.981   .     S
O489   Zn495   1.981   .     S
O490   Zn495   1.997   .     S
O491   Zn496   1.997   .     S
O492   Zn496   2.016   .     S
O493   Zn495   2.016   .     S
C497   O550    1.287   .     A
C497   C518    1.410   .     S
C497   O545    1.275   .     A
C498   C500    1.391   .     A
C498   H534    1.086   .     S
C498   C509    1.383   .     A
C499   C522    1.391   .     A
C499   C521    1.425   .     S
C499   C501    1.393   .     A
C500   C520    1.423   .     S
C500   C502    1.393   .     A
C501   C503    1.387   .     A
C501   H536    1.085   .     S
C502   C504    1.386   .     A
C502   H537    1.085   .     S
C503   C505    1.416   .     A
C503   C510    1.408   .     A
C504   C511    1.408   .     A
C504   C506    1.415   .     A
C505   C507    1.413   .     A
C505   C1064   1.391   1_554 S
C506   C509    1.413   .     A
C506   C1063   1.391   .     S
C507   C522    1.383   .     A
C507   C517    1.398   .     A
C508   C519    1.415   .     S
C508   O551    1.292   .     A
C508   O549    1.272   .     A
C509   C516    1.398   .     A
C510   O556    1.385   .     S
C510   C1074   1.396   1_554 S
C511   O546    1.383   .     S
C511   C1075   1.394   .     S
C512   H524    1.114   .     S
C512   H542    1.109   .     S
C512   O556    1.411   .     S
C512   H525    1.112   .     S
C513   H526    1.109   .     S
C513   H527    1.113   .     S
C513   H528    1.113   .     S
C513   O422    1.409   1_655 S
C514   H531    1.108   .     S
C514   O547    1.411   .     S
C514   H530    1.114   .     S
C515   H535    1.109   .     S
C515   H533    1.114   .     S
C515   O548    1.412   .     S
C515   H160    1.113   1_565 S
C516   H538    1.084   .     S
C516   C1068   1.396   .     S
C517   H539    1.084   .     S
C517   C1069   1.394   1_554 S
C518   C147    1.361   1_565 S
C518   O175    1.388   1_565 S
C520   O552    1.285   .     A
C520   O554    1.287   .     A
C521   O555    1.287   .     A
C521   O553    1.286   .     A
C522   H523    1.086   .     S
H529   C142    1.113   1_565 S
H541   N420    1.029   1_655 S
N543   Zn558   2.014   .     S
N543   H416    1.029   1_655 S
N543   N420    1.277   1_655 S
N544   Zn557   2.014   .     S
O545   Zn557   1.957   .     S
O548   C147    1.388   1_565 S
O549   Zn558   1.957   .     S
O550   Zn558   1.981   .     S
O551   Zn557   1.981   .     S
O552   Zn557   1.997   .     S
O553   Zn558   1.997   .     S
O554   Zn558   2.016   .     S
O555   Zn557   2.016   .     S
C559   O612    1.287   .     A
C559   C580    1.410   .     S
C559   O607    1.275   .     A
C560   C562    1.391   .     A
C560   H596    1.086   .     S
C560   C571    1.383   .     A
C561   C584    1.391   .     A
C561   C583    1.425   .     S
C561   C563    1.393   .     A
C562   C582    1.423   .     S
C562   C564    1.393   .     A
C563   C565    1.387   .     A
C563   H598    1.085   .     S
C564   C566    1.386   .     A
C564   H599    1.085   .     S
C565   C567    1.416   .     A
C565   C572    1.408   .     A
C566   C573    1.408   .     A
C566   C568    1.415   .     A
C567   C569    1.413   .     A
C568   C571    1.413   .     A
C568   C9      1.391   1_556 S
C569   C584    1.383   .     A
C569   C579    1.398   .     A
C570   C581    1.415   .     S
C570   O613    1.292   .     A
C570   O611    1.272   .     A
C571   C578    1.398   .     A
C572   O618    1.385   .     S
C573   O608    1.383   .     S
C573   C21     1.394   1_556 S
C574   H586    1.114   .     S
C574   H604    1.109   .     S
C574   O618    1.411   .     S
C574   H587    1.112   .     S
C575   H588    1.109   .     S
C575   H589    1.113   .     S
C575   H590    1.113   .     S
C575   O670    1.409   .     S
C576   H593    1.108   .     S
C576   O609    1.411   .     S
C576   H592    1.114   .     S
C576   H963    1.113   1_545 S
C577   H597    1.109   .     S
C577   H595    1.114   .     S
C577   O610    1.412   .     S
C577   H780    1.113   .     S
C578   H600    1.084   .     S
C578   C14     1.396   1_556 S
C579   H601    1.084   .     S
C580   C767    1.361   .     S
C580   O795    1.388   .     S
C581   C952    1.361   1_545 S
C581   O982    1.388   1_545 S
C582   O614    1.285   .     A
C582   O616    1.287   .     A
C583   O617    1.287   .     A
C583   O615    1.286   .     A
C584   H585    1.086   .     S
H591   C762    1.113   .     S
H594   C949    1.113   1_545 S
H602   N729    1.029   1_455 S
H603   N668    1.029   .     S
N605   Zn620   2.014   .     S
N605   H664    1.029   .     S
N605   N668    1.277   .     S
N606   Zn619   2.014   .     S
N606   N729    1.277   1_455 S
N606   H727    1.029   1_455 S
O607   Zn619   1.957   .     S
O608   C699    1.409   1_455 S
O609   C952    1.388   1_545 S
O610   C767    1.388   .     S
O611   Zn620   1.957   .     S
O612   Zn620   1.981   .     S
O613   Zn619   1.981   .     S
O614   Zn619   1.997   .     S
O615   Zn620   1.997   .     S
O616   Zn620   2.016   .     S
O617   Zn619   2.016   .     S
C621   O674    1.287   .     A
C621   C642    1.410   .     S
C621   O669    1.275   .     A
C622   C624    1.391   .     A
C622   H658    1.086   .     S
C622   C633    1.383   .     A
C623   C646    1.391   .     A
C623   C645    1.425   .     S
C623   C625    1.393   .     A
C624   C644    1.423   .     S
C624   C626    1.393   .     A
C625   C627    1.387   .     A
C625   H660    1.085   .     S
C626   C628    1.386   .     A
C626   H661    1.085   .     S
C627   C629    1.416   .     A
C627   C634    1.408   .     A
C628   C635    1.408   .     A
C628   C630    1.415   .     A
C629   C631    1.413   .     A
C630   C633    1.413   .     A
C630   C71     1.391   1_556 S
C631   C646    1.383   .     A
C631   C641    1.398   .     A
C632   C643    1.415   .     S
C632   O675    1.292   .     A
C632   O673    1.272   .     A
C633   C640    1.398   .     A
C634   O680    1.385   .     S
C635   O670    1.383   .     S
C635   C83     1.394   1_556 S
C636   H648    1.114   .     S
C636   H666    1.109   .     S
C636   O680    1.411   .     S
C636   H649    1.112   .     S
C637   H650    1.109   .     S
C637   H651    1.113   .     S
C637   H652    1.113   .     S
C637   O732    1.409   .     S
C638   H655    1.108   .     S
C638   O671    1.411   .     S
C638   H654    1.114   .     S
C638   H1025   1.113   1_545 S
C639   H659    1.109   .     S
C639   H657    1.114   .     S
C639   O672    1.412   .     S
C639   H842    1.113   .     S
C640   H662    1.084   .     S
C640   C76     1.396   1_556 S
C641   H663    1.084   .     S
C642   C829    1.361   .     S
C642   O857    1.388   .     S
C643   C1014   1.361   1_545 S
C643   O1044   1.388   1_545 S
C644   O676    1.285   .     A
C644   O678    1.287   .     A
C645   O679    1.287   .     A
C645   O677    1.286   .     A
C646   H647    1.086   .     S
H653   C824    1.113   .     S
H656   C1011   1.113   1_545 S
H665   N730    1.029   .     S
N667   Zn682   2.014   .     S
N667   H726    1.029   .     S
N667   N730    1.277   .     S
N668   Zn681   2.014   .     S
O669   Zn681   1.957   .     S
O671   C1014   1.388   1_545 S
O672   C829    1.388   .     S
O673   Zn682   1.957   .     S
O674   Zn682   1.981   .     S
O675   Zn681   1.981   .     S
O676   Zn681   1.997   .     S
O677   Zn682   1.997   .     S
O678   Zn682   2.016   .     S
O679   Zn681   2.016   .     S
C683   O736    1.287   .     A
C683   C704    1.410   .     S
C683   O731    1.275   .     A
C684   C686    1.391   .     A
C684   H720    1.086   .     S
C684   C695    1.383   .     A
C685   C708    1.391   .     A
C685   C707    1.425   .     S
C685   C687    1.393   .     A
C686   C706    1.423   .     S
C686   C688    1.393   .     A
C687   C689    1.387   .     A
C687   H722    1.085   .     S
C688   C690    1.386   .     A
C688   H723    1.085   .     S
C689   C691    1.416   .     A
C689   C696    1.408   .     A
C690   C697    1.408   .     A
C690   C692    1.415   .     A
C691   C693    1.413   .     A
C692   C695    1.413   .     A
C692   C133    1.391   1_556 S
C693   C708    1.383   .     A
C693   C703    1.398   .     A
C694   C705    1.415   .     S
C694   O737    1.292   .     A
C694   O735    1.272   .     A
C695   C702    1.398   .     A
C696   O742    1.385   .     S
C697   O732    1.383   .     S
C697   C145    1.394   1_556 S
C698   H710    1.114   .     S
C698   H728    1.109   .     S
C698   O742    1.411   .     S
C698   H711    1.112   .     S
C699   H712    1.109   .     S
C699   H713    1.113   .     S
C699   H714    1.113   .     S
C699   O608    1.409   1_655 S
C700   H717    1.108   .     S
C700   O733    1.411   .     S
C700   H716    1.114   .     S
C700   H1087   1.113   1_545 S
C701   H721    1.109   .     S
C701   H719    1.114   .     S
C701   O734    1.412   .     S
C701   H904    1.113   .     S
C702   H724    1.084   .     S
C702   C138    1.396   1_556 S
C703   H725    1.084   .     S
C704   C891    1.361   .     S
C704   O919    1.388   .     S
C705   C1076   1.361   1_545 S
C705   O1106   1.388   1_545 S
C706   O738    1.285   .     A
C706   O740    1.287   .     A
C707   O741    1.287   .     A
C707   O739    1.286   .     A
C708   H709    1.086   .     S
H715   C886    1.113   .     S
H718   C1073   1.113   1_545 S
H727   N606    1.029   1_655 S
N729   Zn744   2.014   .     S
N729   H602    1.029   1_655 S
N729   N606    1.277   1_655 S
N730   Zn743   2.014   .     S
O731   Zn743   1.957   .     S
O733   C1076   1.388   1_545 S
O734   C891    1.388   .     S
O735   Zn744   1.957   .     S
O736   Zn744   1.981   .     S
O737   Zn743   1.981   .     S
O738   Zn743   1.997   .     S
O739   Zn744   1.997   .     S
O740   Zn744   2.016   .     S
O741   Zn743   2.016   .     S
C745   O798    1.287   .     A
C745   C766    1.410   .     S
C745   O793    1.275   .     A
C746   C748    1.391   .     A
C746   H782    1.086   .     S
C746   C757    1.383   .     A
C747   C770    1.391   .     A
C747   C769    1.425   .     S
C747   C749    1.393   .     A
C748   C768    1.423   .     S
C748   C750    1.393   .     A
C749   C751    1.387   .     A
C749   H784    1.085   .     S
C750   C752    1.386   .     A
C750   H785    1.085   .     S
C751   C753    1.416   .     A
C751   C758    1.408   .     A
C752   C759    1.408   .     A
C752   C754    1.415   .     A
C753   C755    1.413   .     A
C754   C757    1.413   .     A
C754   C195    1.391   1_556 S
C755   C770    1.383   .     A
C755   C765    1.398   .     A
C756   C767    1.415   .     S
C756   O799    1.292   .     A
C756   O797    1.272   .     A
C757   C764    1.398   .     A
C758   O804    1.385   .     S
C759   O794    1.383   .     S
C759   C207    1.394   1_556 S
C760   H772    1.114   .     S
C760   H790    1.109   .     S
C760   O804    1.411   .     S
C760   H773    1.112   .     S
C761   H774    1.109   .     S
C761   H775    1.113   .     S
C761   H776    1.113   .     S
C761   O856    1.409   .     S
C762   H779    1.108   .     S
C762   O795    1.411   .     S
C762   H778    1.114   .     S
C763   H783    1.109   .     S
C763   H781    1.114   .     S
C763   O796    1.412   .     S
C763   H966    1.113   .     S
C764   H786    1.084   .     S
C764   C200    1.396   1_556 S
C765   H787    1.084   .     S
C766   C953    1.361   .     S
C766   O981    1.388   .     S
C768   O800    1.285   .     A
C768   O802    1.287   .     A
C769   O803    1.287   .     A
C769   O801    1.286   .     A
C770   H771    1.086   .     S
H777   C948    1.113   .     S
H788   N915    1.029   1_455 S
H789   N854    1.029   .     S
N791   Zn806   2.014   .     S
N791   H850    1.029   .     S
N791   N854    1.277   .     S
N792   Zn805   2.014   .     S
N792   N915    1.277   1_455 S
N792   H913    1.029   1_455 S
O793   Zn805   1.957   .     S
O794   C885    1.409   1_455 S
O796   C953    1.388   .     S
O797   Zn806   1.957   .     S
O798   Zn806   1.981   .     S
O799   Zn805   1.981   .     S
O800   Zn805   1.997   .     S
O801   Zn806   1.997   .     S
O802   Zn806   2.016   .     S
O803   Zn805   2.016   .     S
C807   O860    1.287   .     A
C807   C828    1.410   .     S
C807   O855    1.275   .     A
C808   C810    1.391   .     A
C808   H844    1.086   .     S
C808   C819    1.383   .     A
C809   C832    1.391   .     A
C809   C831    1.425   .     S
C809   C811    1.393   .     A
C810   C830    1.423   .     S
C810   C812    1.393   .     A
C811   C813    1.387   .     A
C811   H846    1.085   .     S
C812   C814    1.386   .     A
C812   H847    1.085   .     S
C813   C815    1.416   .     A
C813   C820    1.408   .     A
C814   C821    1.408   .     A
C814   C816    1.415   .     A
C815   C817    1.413   .     A
C816   C819    1.413   .     A
C816   C257    1.391   1_556 S
C817   C832    1.383   .     A
C817   C827    1.398   .     A
C818   C829    1.415   .     S
C818   O861    1.292   .     A
C818   O859    1.272   .     A
C819   C826    1.398   .     A
C820   O866    1.385   .     S
C821   O856    1.383   .     S
C821   C269    1.394   1_556 S
C822   H834    1.114   .     S
C822   H852    1.109   .     S
C822   O866    1.411   .     S
C822   H835    1.112   .     S
C823   H836    1.109   .     S
C823   H837    1.113   .     S
C823   H838    1.113   .     S
C823   O918    1.409   .     S
C824   H841    1.108   .     S
C824   O857    1.411   .     S
C824   H840    1.114   .     S
C825   H845    1.109   .     S
C825   H843    1.114   .     S
C825   O858    1.412   .     S
C825   H1028   1.113   .     S
C826   H848    1.084   .     S
C826   C262    1.396   1_556 S
C827   H849    1.084   .     S
C828   C1015   1.361   .     S
C828   O1043   1.388   .     S
C830   O862    1.285   .     A
C830   O864    1.287   .     A
C831   O865    1.287   .     A
C831   O863    1.286   .     A
C832   H833    1.086   .     S
H839   C1010   1.113   .     S
H851   N916    1.029   .     S
N853   Zn868   2.014   .     S
N853   H912    1.029   .     S
N853   N916    1.277   .     S
N854   Zn867   2.014   .     S
O855   Zn867   1.957   .     S
O858   C1015   1.388   .     S
O859   Zn868   1.957   .     S
O860   Zn868   1.981   .     S
O861   Zn867   1.981   .     S
O862   Zn867   1.997   .     S
O863   Zn868   1.997   .     S
O864   Zn868   2.016   .     S
O865   Zn867   2.016   .     S
C869   O922    1.287   .     A
C869   C890    1.410   .     S
C869   O917    1.275   .     A
C870   C872    1.391   .     A
C870   H906    1.086   .     S
C870   C881    1.383   .     A
C871   C894    1.391   .     A
C871   C893    1.425   .     S
C871   C873    1.393   .     A
C872   C892    1.423   .     S
C872   C874    1.393   .     A
C873   C875    1.387   .     A
C873   H908    1.085   .     S
C874   C876    1.386   .     A
C874   H909    1.085   .     S
C875   C877    1.416   .     A
C875   C882    1.408   .     A
C876   C883    1.408   .     A
C876   C878    1.415   .     A
C877   C879    1.413   .     A
C878   C881    1.413   .     A
C878   C319    1.391   1_556 S
C879   C894    1.383   .     A
C879   C889    1.398   .     A
C880   C891    1.415   .     S
C880   O923    1.292   .     A
C880   O921    1.272   .     A
C881   C888    1.398   .     A
C882   O928    1.385   .     S
C883   O918    1.383   .     S
C883   C331    1.394   1_556 S
C884   H896    1.114   .     S
C884   H914    1.109   .     S
C884   O928    1.411   .     S
C884   H897    1.112   .     S
C885   H898    1.109   .     S
C885   H899    1.113   .     S
C885   H900    1.113   .     S
C885   O794    1.409   1_655 S
C886   H903    1.108   .     S
C886   O919    1.411   .     S
C886   H902    1.114   .     S
C887   H907    1.109   .     S
C887   H905    1.114   .     S
C887   O920    1.412   .     S
C887   H1090   1.113   .     S
C888   H910    1.084   .     S
C888   C324    1.396   1_556 S
C889   H911    1.084   .     S
C890   C1077   1.361   .     S
C890   O1105   1.388   .     S
C892   O924    1.285   .     A
C892   O926    1.287   .     A
C893   O927    1.287   .     A
C893   O925    1.286   .     A
C894   H895    1.086   .     S
H901   C1072   1.113   .     S
H913   N792    1.029   1_655 S
N915   Zn930   2.014   .     S
N915   H788    1.029   1_655 S
N915   N792    1.277   1_655 S
N916   Zn929   2.014   .     S
O917   Zn929   1.957   .     S
O920   C1077   1.388   .     S
O921   Zn930   1.957   .     S
O922   Zn930   1.981   .     S
O923   Zn929   1.981   .     S
O924   Zn929   1.997   .     S
O925   Zn930   1.997   .     S
O926   Zn930   2.016   .     S
O927   Zn929   2.016   .     S
C931   O984    1.287   .     A
C931   C952    1.410   .     S
C931   O979    1.275   .     A
C932   C934    1.391   .     A
C932   H968    1.086   .     S
C932   C943    1.383   .     A
C933   C956    1.391   .     A
C933   C955    1.425   .     S
C933   C935    1.393   .     A
C934   C954    1.423   .     S
C934   C936    1.393   .     A
C935   C937    1.387   .     A
C935   H970    1.085   .     S
C936   C938    1.386   .     A
C936   H971    1.085   .     S
C937   C939    1.416   .     A
C937   C944    1.408   .     A
C938   C945    1.408   .     A
C938   C940    1.415   .     A
C939   C941    1.413   .     A
C940   C943    1.413   .     A
C940   C381    1.391   1_556 S
C941   C956    1.383   .     A
C941   C951    1.398   .     A
C942   C953    1.415   .     S
C942   O985    1.292   .     A
C942   O983    1.272   .     A
C943   C950    1.398   .     A
C944   O990    1.385   .     S
C945   O980    1.383   .     S
C945   C393    1.394   1_556 S
C946   H958    1.114   .     S
C946   H976    1.109   .     S
C946   O990    1.411   .     S
C946   H959    1.112   .     S
C947   H960    1.109   .     S
C947   H961    1.113   .     S
C947   H962    1.113   .     S
C947   O1042   1.409   .     S
C948   H965    1.108   .     S
C948   O981    1.411   .     S
C948   H964    1.114   .     S
C949   H969    1.109   .     S
C949   H967    1.114   .     S
C949   O982    1.412   .     S
C949   H594    1.113   1_565 S
C950   H972    1.084   .     S
C950   C386    1.396   1_556 S
C951   H973    1.084   .     S
C952   C581    1.361   1_565 S
C952   O609    1.388   1_565 S
C954   O986    1.285   .     A
C954   O988    1.287   .     A
C955   O989    1.287   .     A
C955   O987    1.286   .     A
C956   H957    1.086   .     S
H963   C576    1.113   1_565 S
H974   N1101   1.029   1_455 S
H975   N1040   1.029   .     S
N977   Zn992   2.014   .     S
N977   H1036   1.029   .     S
N977   N1040   1.277   .     S
N978   Zn991   2.014   .     S
N978   N1101   1.277   1_455 S
N978   H1099   1.029   1_455 S
O979   Zn991   1.957   .     S
O980   C1071   1.409   1_455 S
O982   C581    1.388   1_565 S
O983   Zn992   1.957   .     S
O984   Zn992   1.981   .     S
O985   Zn991   1.981   .     S
O986   Zn991   1.997   .     S
O987   Zn992   1.997   .     S
O988   Zn992   2.016   .     S
O989   Zn991   2.016   .     S
C993   O1046   1.287   .     A
C993   C1014   1.410   .     S
C993   O1041   1.275   .     A
C994   C996    1.391   .     A
C994   H1030   1.086   .     S
C994   C1005   1.383   .     A
C995   C1018   1.391   .     A
C995   C1017   1.425   .     S
C995   C997    1.393   .     A
C996   C1016   1.423   .     S
C996   C998    1.393   .     A
C997   C999    1.387   .     A
C997   H1032   1.085   .     S
C998   C1000   1.386   .     A
C998   H1033   1.085   .     S
C999   C1001   1.416   .     A
C999   C1006   1.408   .     A
C1000  C1007   1.408   .     A
C1000  C1002   1.415   .     A
C1001  C1003   1.413   .     A
C1002  C1005   1.413   .     A
C1002  C443    1.391   1_556 S
C1003  C1018   1.383   .     A
C1003  C1013   1.398   .     A
C1004  C1015   1.415   .     S
C1004  O1047   1.292   .     A
C1004  O1045   1.272   .     A
C1005  C1012   1.398   .     A
C1006  O1052   1.385   .     S
C1007  O1042   1.383   .     S
C1007  C455    1.394   1_556 S
C1008  H1020   1.114   .     S
C1008  H1038   1.109   .     S
C1008  O1052   1.411   .     S
C1008  H1021   1.112   .     S
C1009  H1022   1.109   .     S
C1009  H1023   1.113   .     S
C1009  H1024   1.113   .     S
C1009  O1104   1.409   .     S
C1010  H1027   1.108   .     S
C1010  O1043   1.411   .     S
C1010  H1026   1.114   .     S
C1011  H1031   1.109   .     S
C1011  H1029   1.114   .     S
C1011  O1044   1.412   .     S
C1011  H656    1.113   1_565 S
C1012  H1034   1.084   .     S
C1012  C448    1.396   1_556 S
C1013  H1035   1.084   .     S
C1014  C643    1.361   1_565 S
C1014  O671    1.388   1_565 S
C1016  O1048   1.285   .     A
C1016  O1050   1.287   .     A
C1017  O1051   1.287   .     A
C1017  O1049   1.286   .     A
C1018  H1019   1.086   .     S
H1025  C638    1.113   1_565 S
H1037  N1102   1.029   .     S
N1039  Zn1054  2.014   .     S
N1039  H1098   1.029   .     S
N1039  N1102   1.277   .     S
N1040  Zn1053  2.014   .     S
O1041  Zn1053  1.957   .     S
O1044  C643    1.388   1_565 S
O1045  Zn1054  1.957   .     S
O1046  Zn1054  1.981   .     S
O1047  Zn1053  1.981   .     S
O1048  Zn1053  1.997   .     S
O1049  Zn1054  1.997   .     S
O1050  Zn1054  2.016   .     S
O1051  Zn1053  2.016   .     S
C1055  O1108   1.287   .     A
C1055  C1076   1.410   .     S
C1055  O1103   1.275   .     A
C1056  C1058   1.391   .     A
C1056  H1092   1.086   .     S
C1056  C1067   1.383   .     A
C1057  C1080   1.391   .     A
C1057  C1079   1.425   .     S
C1057  C1059   1.393   .     A
C1058  C1078   1.423   .     S
C1058  C1060   1.393   .     A
C1059  C1061   1.387   .     A
C1059  H1094   1.085   .     S
C1060  C1062   1.386   .     A
C1060  H1095   1.085   .     S
C1061  C1063   1.416   .     A
C1061  C1068   1.408   .     A
C1062  C1069   1.408   .     A
C1062  C1064   1.415   .     A
C1063  C1065   1.413   .     A
C1064  C1067   1.413   .     A
C1064  C505    1.391   1_556 S
C1065  C1080   1.383   .     A
C1065  C1075   1.398   .     A
C1066  C1077   1.415   .     S
C1066  O1109   1.292   .     A
C1066  O1107   1.272   .     A
C1067  C1074   1.398   .     A
C1068  O1114   1.385   .     S
C1069  O1104   1.383   .     S
C1069  C517    1.394   1_556 S
C1070  H1082   1.114   .     S
C1070  H1100   1.109   .     S
C1070  O1114   1.411   .     S
C1070  H1083   1.112   .     S
C1071  H1084   1.109   .     S
C1071  H1085   1.113   .     S
C1071  H1086   1.113   .     S
C1071  O980    1.409   1_655 S
C1072  H1089   1.108   .     S
C1072  O1105   1.411   .     S
C1072  H1088   1.114   .     S
C1073  H1093   1.109   .     S
C1073  H1091   1.114   .     S
C1073  O1106   1.412   .     S
C1073  H718    1.113   1_565 S
C1074  H1096   1.084   .     S
C1074  C510    1.396   1_556 S
C1075  H1097   1.084   .     S
C1076  C705    1.361   1_565 S
C1076  O733    1.388   1_565 S
C1078  O1110   1.285   .     A
C1078  O1112   1.287   .     A
C1079  O1113   1.287   .     A
C1079  O1111   1.286   .     A
C1080  H1081   1.086   .     S
H1087  C700    1.113   1_565 S
H1099  N978    1.029   1_655 S
N1101  Zn1116  2.014   .     S
N1101  H974    1.029   1_655 S
N1101  N978    1.277   1_655 S
N1102  Zn1115  2.014   .     S
O1103  Zn1115  1.957   .     S
O1106  C705    1.388   1_565 S
O1107  Zn1116  1.957   .     S
O1108  Zn1116  1.981   .     S
O1109  Zn1115  1.981   .     S
O1110  Zn1115  1.997   .     S
O1111  Zn1116  1.997   .     S
O1112  Zn1116  2.016   .     S
O1113  Zn1115  2.016   .     S
