data_str_m3_o1_o16_pcu_sym.44
_audit_creation_date              2020-01-03
_audit_creation_method            'Materials Studio'
_symmetry_space_group_name_H-M    'P1'
_symmetry_Int_Tables_number       1
_symmetry_cell_setting            triclinic
loop_
_symmetry_equiv_pos_as_xyz
  x,y,z
_cell_length_a                    29.5292
_cell_length_b                    32.1332
_cell_length_c                    26.4386
_cell_angle_alpha                 90.0648
_cell_angle_beta                  70.1160
_cell_angle_gamma                 89.9517
loop_
_atom_site_label
_atom_site_type_symbol
_atom_site_fract_x
_atom_site_fract_y
_atom_site_fract_z
_atom_site_U_iso_or_equiv
_atom_site_adp_type
_atom_site_occupancy
C1     C     0.16664   0.24670   0.25009   0.00000  Uiso   1.00
C2     C     0.12371   0.16506   0.41058   0.00000  Uiso   1.00
C3     C     0.20243   0.31200   0.26328   0.00000  Uiso   1.00
C4     C     0.14004   0.16813   0.35206   0.00000  Uiso   1.00
C5     C     0.20247   0.02131   0.26319   0.00000  Uiso   1.00
C6     C     0.16666   0.04248   0.25006   0.00000  Uiso   1.00
C7     C     0.13078   0.02133   0.23704   0.00000  Uiso   1.00
C8     C     0.13074   0.31203   0.23713   0.00000  Uiso   1.00
C9     C     0.16659   0.29085   0.25020   0.00000  Uiso   1.00
C10    C     0.31871   0.13880   0.21934   0.00000  Uiso   1.00
C11    C     0.03335   0.13882   0.21932   0.00000  Uiso   1.00
C12    C     0.15214   0.15401   0.48590   0.00000  Uiso   1.00
C13    C     0.01463   0.19454   0.28064   0.00000  Uiso   1.00
C14    C     0.30005   0.19460   0.28052   0.00000  Uiso   1.00
C15    C     0.16666   0.08663   0.25000   0.00000  Uiso   1.00
C16    C     0.19332   0.16644   0.14807   0.00000  Uiso   1.00
C17    C     0.26356   0.19518   0.00627   0.00000  Uiso   1.00
C18    C     0.20988   0.16785   0.08987   0.00000  Uiso   1.00
C19    C     0.08211   0.14219   0.43663   0.00000  Uiso   1.00
C20    C     0.07748   0.12186   0.48434   0.00000  Uiso   1.00
C21    C     0.11440   0.12388   0.00633   0.00000  Uiso   1.00
C22    C     0.11548   0.08878   0.04396   0.00000  Uiso   1.00
C23    C     0.15609   0.17487   0.43754   0.00000  Uiso   1.00
C24    C     0.18645   0.16420   0.01074   0.00000  Uiso   1.00
C25    C     0.22824   0.18765   0.48283   0.00000  Uiso   1.00
C26    C     0.23155   0.20710   0.43488   0.00000  Uiso   1.00
C27    C     0.19398   0.20350   0.41505   0.00000  Uiso   1.00
C28    C     0.17693   0.15703   0.06504   0.00000  Uiso   1.00
C29    C     0.25466   0.18460   0.05984   0.00000  Uiso   1.00
H30    H     0.28062   0.19297   0.07880   0.00000  Uiso   1.00
H31    H     0.29633   0.21177   0.48450   0.00000  Uiso   1.00
H32    H     0.14160   0.14685   0.08977   0.00000  Uiso   1.00
H33    H     0.05623   0.13554   0.41688   0.00000  Uiso   1.00
H34    H     0.04760   0.10060   0.00073   0.00000  Uiso   1.00
H35    H     0.19540   0.22270   0.38093   0.00000  Uiso   1.00
H36    H     0.23006   0.29571   0.27391   0.00000  Uiso   1.00
H37    H     0.15224   0.08308   0.04486   0.00000  Uiso   1.00
H38    H     0.08979   0.09517   0.08498   0.00000  Uiso   1.00
H39    H     0.10454   0.05913   0.02974   0.00000  Uiso   1.00
H40    H     0.23015   0.03758   0.27373   0.00000  Uiso   1.00
H41    H     0.10313   0.03761   0.22642   0.00000  Uiso   1.00
H42    H     0.10306   0.29576   0.22658   0.00000  Uiso   1.00
H43    H     0.30805   0.11654   0.19479   0.00000  Uiso   1.00
H44    H     0.05901   0.11658   0.19475   0.00000  Uiso   1.00
H45    H     0.02530   0.21683   0.30516   0.00000  Uiso   1.00
H46    H     0.27454   0.21707   0.30473   0.00000  Uiso   1.00
H47    H     0.26149   0.22747   0.41474   0.00000  Uiso   1.00
N48    N     0.04760   0.16668   0.25002   0.00000  Uiso   1.00
N49    N     0.28573   0.16665   0.25001   0.00000  Uiso   1.00
O50    O     0.12846   0.22775   0.25001   0.00000  Uiso   1.00
O51    O     0.20490   0.22774   0.25001   0.00000  Uiso   1.00
O52    O     0.10947   0.16666   0.32681   0.00000  Uiso   1.00
O53    O     0.18591   0.16665   0.32681   0.00000  Uiso   1.00
O54    O     0.12843   0.10559   0.25000   0.00000  Uiso   1.00
O55    O     0.20488   0.10558   0.25000   0.00000  Uiso   1.00
O56    O     0.14742   0.16668   0.17319   0.00000  Uiso   1.00
O57    O     0.22387   0.16667   0.17319   0.00000  Uiso   1.00
Zn58   Zn    0.11562   0.16667   0.25000   0.00000  Uiso   1.00
Zn59   Zn    0.21771   0.16666   0.25000   0.00000  Uiso   1.00
C60    C     0.49997   0.24670   0.25009   0.00000  Uiso   1.00
C61    C     0.45705   0.16506   0.41058   0.00000  Uiso   1.00
C62    C     0.53576   0.31200   0.26328   0.00000  Uiso   1.00
C63    C     0.47338   0.16813   0.35206   0.00000  Uiso   1.00
C64    C     0.53581   0.02131   0.26319   0.00000  Uiso   1.00
C65    C     0.49999   0.04248   0.25006   0.00000  Uiso   1.00
C66    C     0.46411   0.02133   0.23704   0.00000  Uiso   1.00
C67    C     0.46407   0.31203   0.23713   0.00000  Uiso   1.00
C68    C     0.49992   0.29085   0.25020   0.00000  Uiso   1.00
C69    C     0.65205   0.13880   0.21934   0.00000  Uiso   1.00
C70    C     0.36668   0.13882   0.21932   0.00000  Uiso   1.00
C71    C     0.48547   0.15401   0.48590   0.00000  Uiso   1.00
C72    C     0.34796   0.19454   0.28064   0.00000  Uiso   1.00
C73    C     0.63338   0.19460   0.28052   0.00000  Uiso   1.00
C74    C     0.50000   0.08663   0.25000   0.00000  Uiso   1.00
C75    C     0.52665   0.16644   0.14807   0.00000  Uiso   1.00
C76    C     0.59690   0.19518   0.00627   0.00000  Uiso   1.00
C77    C     0.54321   0.16785   0.08987   0.00000  Uiso   1.00
C78    C     0.41544   0.14219   0.43663   0.00000  Uiso   1.00
C79    C     0.41081   0.12186   0.48434   0.00000  Uiso   1.00
C80    C     0.44773   0.12388   0.00633   0.00000  Uiso   1.00
C81    C     0.44881   0.08878   0.04396   0.00000  Uiso   1.00
C82    C     0.48942   0.17487   0.43754   0.00000  Uiso   1.00
C83    C     0.51978   0.16420   0.01074   0.00000  Uiso   1.00
C84    C     0.56158   0.18765   0.48283   0.00000  Uiso   1.00
C85    C     0.56488   0.20710   0.43488   0.00000  Uiso   1.00
C86    C     0.52731   0.20350   0.41505   0.00000  Uiso   1.00
C87    C     0.51027   0.15703   0.06504   0.00000  Uiso   1.00
C88    C     0.58799   0.18460   0.05984   0.00000  Uiso   1.00
H89    H     0.61395   0.19297   0.07880   0.00000  Uiso   1.00
H90    H     0.62967   0.21177   0.48450   0.00000  Uiso   1.00
H91    H     0.47493   0.14685   0.08977   0.00000  Uiso   1.00
H92    H     0.38956   0.13554   0.41688   0.00000  Uiso   1.00
H93    H     0.38093   0.10060   0.00073   0.00000  Uiso   1.00
H94    H     0.52873   0.22270   0.38093   0.00000  Uiso   1.00
H95    H     0.56340   0.29571   0.27391   0.00000  Uiso   1.00
H96    H     0.48558   0.08308   0.04486   0.00000  Uiso   1.00
H97    H     0.42313   0.09517   0.08498   0.00000  Uiso   1.00
H98    H     0.43788   0.05913   0.02974   0.00000  Uiso   1.00
H99    H     0.56349   0.03758   0.27373   0.00000  Uiso   1.00
H100   H     0.43647   0.03761   0.22642   0.00000  Uiso   1.00
H101   H     0.43639   0.29576   0.22658   0.00000  Uiso   1.00
H102   H     0.64138   0.11654   0.19479   0.00000  Uiso   1.00
H103   H     0.39234   0.11658   0.19475   0.00000  Uiso   1.00
H104   H     0.35863   0.21683   0.30516   0.00000  Uiso   1.00
H105   H     0.60787   0.21707   0.30473   0.00000  Uiso   1.00
H106   H     0.59482   0.22747   0.41474   0.00000  Uiso   1.00
N107   N     0.38093   0.16668   0.25002   0.00000  Uiso   1.00
N108   N     0.61906   0.16665   0.25001   0.00000  Uiso   1.00
O109   O     0.46179   0.22775   0.25001   0.00000  Uiso   1.00
O110   O     0.53823   0.22774   0.25001   0.00000  Uiso   1.00
O111   O     0.44280   0.16666   0.32681   0.00000  Uiso   1.00
O112   O     0.51924   0.16665   0.32681   0.00000  Uiso   1.00
O113   O     0.46177   0.10559   0.25000   0.00000  Uiso   1.00
O114   O     0.53821   0.10558   0.25000   0.00000  Uiso   1.00
O115   O     0.48076   0.16668   0.17319   0.00000  Uiso   1.00
O116   O     0.55720   0.16667   0.17319   0.00000  Uiso   1.00
Zn117  Zn    0.44896   0.16667   0.25000   0.00000  Uiso   1.00
Zn118  Zn    0.55104   0.16666   0.25000   0.00000  Uiso   1.00
C119   C     0.83331   0.24670   0.25009   0.00000  Uiso   1.00
C120   C     0.79038   0.16506   0.41058   0.00000  Uiso   1.00
C121   C     0.86909   0.31200   0.26328   0.00000  Uiso   1.00
C122   C     0.80671   0.16813   0.35206   0.00000  Uiso   1.00
C123   C     0.86914   0.02131   0.26319   0.00000  Uiso   1.00
C124   C     0.83332   0.04248   0.25006   0.00000  Uiso   1.00
C125   C     0.79745   0.02133   0.23704   0.00000  Uiso   1.00
C126   C     0.79740   0.31203   0.23713   0.00000  Uiso   1.00
C127   C     0.83325   0.29085   0.25020   0.00000  Uiso   1.00
C128   C     0.98538   0.13880   0.21934   0.00000  Uiso   1.00
C129   C     0.70001   0.13882   0.21932   0.00000  Uiso   1.00
C130   C     0.81881   0.15401   0.48590   0.00000  Uiso   1.00
C131   C     0.68129   0.19454   0.28064   0.00000  Uiso   1.00
C132   C     0.96672   0.19460   0.28052   0.00000  Uiso   1.00
C133   C     0.83333   0.08663   0.25000   0.00000  Uiso   1.00
C134   C     0.85998   0.16644   0.14807   0.00000  Uiso   1.00
C135   C     0.93023   0.19518   0.00627   0.00000  Uiso   1.00
C136   C     0.87655   0.16785   0.08987   0.00000  Uiso   1.00
C137   C     0.74878   0.14219   0.43663   0.00000  Uiso   1.00
C138   C     0.74414   0.12186   0.48434   0.00000  Uiso   1.00
C139   C     0.78107   0.12388   0.00633   0.00000  Uiso   1.00
C140   C     0.78214   0.08878   0.04396   0.00000  Uiso   1.00
C141   C     0.82276   0.17487   0.43754   0.00000  Uiso   1.00
C142   C     0.85311   0.16420   0.01074   0.00000  Uiso   1.00
C143   C     0.89491   0.18765   0.48283   0.00000  Uiso   1.00
C144   C     0.89821   0.20710   0.43488   0.00000  Uiso   1.00
C145   C     0.86065   0.20350   0.41505   0.00000  Uiso   1.00
C146   C     0.84360   0.15703   0.06504   0.00000  Uiso   1.00
C147   C     0.92132   0.18460   0.05984   0.00000  Uiso   1.00
H148   H     0.94729   0.19297   0.07880   0.00000  Uiso   1.00
H149   H     0.96300   0.21177   0.48450   0.00000  Uiso   1.00
H150   H     0.80827   0.14685   0.08977   0.00000  Uiso   1.00
H151   H     0.72289   0.13554   0.41688   0.00000  Uiso   1.00
H152   H     0.71426   0.10060   0.00073   0.00000  Uiso   1.00
H153   H     0.86206   0.22270   0.38093   0.00000  Uiso   1.00
H154   H     0.89673   0.29571   0.27391   0.00000  Uiso   1.00
H155   H     0.81891   0.08308   0.04486   0.00000  Uiso   1.00
H156   H     0.75646   0.09517   0.08498   0.00000  Uiso   1.00
H157   H     0.77121   0.05913   0.02974   0.00000  Uiso   1.00
H158   H     0.89682   0.03758   0.27373   0.00000  Uiso   1.00
H159   H     0.76980   0.03761   0.22642   0.00000  Uiso   1.00
H160   H     0.76972   0.29576   0.22658   0.00000  Uiso   1.00
H161   H     0.97471   0.11654   0.19479   0.00000  Uiso   1.00
H162   H     0.72568   0.11658   0.19475   0.00000  Uiso   1.00
H163   H     0.69196   0.21683   0.30516   0.00000  Uiso   1.00
H164   H     0.94121   0.21707   0.30473   0.00000  Uiso   1.00
H165   H     0.92815   0.22747   0.41474   0.00000  Uiso   1.00
N166   N     0.71426   0.16668   0.25002   0.00000  Uiso   1.00
N167   N     0.95239   0.16665   0.25001   0.00000  Uiso   1.00
O168   O     0.79512   0.22775   0.25001   0.00000  Uiso   1.00
O169   O     0.87157   0.22774   0.25001   0.00000  Uiso   1.00
O170   O     0.77613   0.16666   0.32681   0.00000  Uiso   1.00
O171   O     0.85258   0.16665   0.32681   0.00000  Uiso   1.00
O172   O     0.79510   0.10559   0.25000   0.00000  Uiso   1.00
O173   O     0.87154   0.10558   0.25000   0.00000  Uiso   1.00
O174   O     0.81409   0.16668   0.17319   0.00000  Uiso   1.00
O175   O     0.89053   0.16667   0.17319   0.00000  Uiso   1.00
Zn176  Zn    0.78229   0.16667   0.25000   0.00000  Uiso   1.00
Zn177  Zn    0.88438   0.16666   0.25000   0.00000  Uiso   1.00
C178   C     0.16664   0.58004   0.25009   0.00000  Uiso   1.00
C179   C     0.12371   0.49839   0.41058   0.00000  Uiso   1.00
C180   C     0.20243   0.64533   0.26328   0.00000  Uiso   1.00
C181   C     0.14004   0.50146   0.35206   0.00000  Uiso   1.00
C182   C     0.20247   0.35464   0.26319   0.00000  Uiso   1.00
C183   C     0.16666   0.37582   0.25006   0.00000  Uiso   1.00
C184   C     0.13078   0.35466   0.23704   0.00000  Uiso   1.00
C185   C     0.13074   0.64536   0.23713   0.00000  Uiso   1.00
C186   C     0.16659   0.62418   0.25020   0.00000  Uiso   1.00
C187   C     0.31871   0.47213   0.21934   0.00000  Uiso   1.00
C188   C     0.03335   0.47216   0.21932   0.00000  Uiso   1.00
C189   C     0.15214   0.48735   0.48590   0.00000  Uiso   1.00
C190   C     0.01463   0.52788   0.28064   0.00000  Uiso   1.00
C191   C     0.30005   0.52793   0.28052   0.00000  Uiso   1.00
C192   C     0.16666   0.41996   0.25000   0.00000  Uiso   1.00
C193   C     0.19332   0.49977   0.14807   0.00000  Uiso   1.00
C194   C     0.26356   0.52851   0.00627   0.00000  Uiso   1.00
C195   C     0.20988   0.50119   0.08987   0.00000  Uiso   1.00
C196   C     0.08211   0.47552   0.43663   0.00000  Uiso   1.00
C197   C     0.07748   0.45520   0.48434   0.00000  Uiso   1.00
C198   C     0.11440   0.45721   0.00633   0.00000  Uiso   1.00
C199   C     0.11548   0.42211   0.04396   0.00000  Uiso   1.00
C200   C     0.15609   0.50820   0.43754   0.00000  Uiso   1.00
C201   C     0.18645   0.49753   0.01074   0.00000  Uiso   1.00
C202   C     0.22824   0.52099   0.48283   0.00000  Uiso   1.00
C203   C     0.23155   0.54043   0.43488   0.00000  Uiso   1.00
C204   C     0.19398   0.53683   0.41505   0.00000  Uiso   1.00
C205   C     0.17693   0.49036   0.06504   0.00000  Uiso   1.00
C206   C     0.25466   0.51793   0.05984   0.00000  Uiso   1.00
H207   H     0.28062   0.52631   0.07880   0.00000  Uiso   1.00
H208   H     0.29633   0.54511   0.48450   0.00000  Uiso   1.00
H209   H     0.14160   0.48018   0.08977   0.00000  Uiso   1.00
H210   H     0.05623   0.46887   0.41688   0.00000  Uiso   1.00
H211   H     0.04760   0.43393   0.00073   0.00000  Uiso   1.00
H212   H     0.19540   0.55603   0.38093   0.00000  Uiso   1.00
H213   H     0.23006   0.62904   0.27391   0.00000  Uiso   1.00
H214   H     0.15224   0.41642   0.04486   0.00000  Uiso   1.00
H215   H     0.08979   0.42850   0.08498   0.00000  Uiso   1.00
H216   H     0.10454   0.39246   0.02974   0.00000  Uiso   1.00
H217   H     0.23015   0.37091   0.27373   0.00000  Uiso   1.00
H218   H     0.10313   0.37095   0.22642   0.00000  Uiso   1.00
H219   H     0.10306   0.62910   0.22658   0.00000  Uiso   1.00
H220   H     0.30805   0.44987   0.19479   0.00000  Uiso   1.00
H221   H     0.05901   0.44991   0.19475   0.00000  Uiso   1.00
H222   H     0.02530   0.55016   0.30516   0.00000  Uiso   1.00
H223   H     0.27454   0.55040   0.30473   0.00000  Uiso   1.00
H224   H     0.26149   0.56081   0.41474   0.00000  Uiso   1.00
N225   N     0.04760   0.50001   0.25002   0.00000  Uiso   1.00
N226   N     0.28573   0.49998   0.25001   0.00000  Uiso   1.00
O227   O     0.12846   0.56108   0.25001   0.00000  Uiso   1.00
O228   O     0.20490   0.56107   0.25001   0.00000  Uiso   1.00
O229   O     0.10947   0.50000   0.32681   0.00000  Uiso   1.00
O230   O     0.18591   0.49999   0.32681   0.00000  Uiso   1.00
O231   O     0.12843   0.43893   0.25000   0.00000  Uiso   1.00
O232   O     0.20488   0.43892   0.25000   0.00000  Uiso   1.00
O233   O     0.14742   0.50001   0.17319   0.00000  Uiso   1.00
O234   O     0.22387   0.50000   0.17319   0.00000  Uiso   1.00
Zn235  Zn    0.11562   0.50001   0.25000   0.00000  Uiso   1.00
Zn236  Zn    0.21771   0.49999   0.25000   0.00000  Uiso   1.00
C237   C     0.49997   0.58004   0.25009   0.00000  Uiso   1.00
C238   C     0.45705   0.49839   0.41058   0.00000  Uiso   1.00
C239   C     0.53576   0.64533   0.26328   0.00000  Uiso   1.00
C240   C     0.47338   0.50146   0.35206   0.00000  Uiso   1.00
C241   C     0.53581   0.35464   0.26319   0.00000  Uiso   1.00
C242   C     0.49999   0.37582   0.25006   0.00000  Uiso   1.00
C243   C     0.46411   0.35466   0.23704   0.00000  Uiso   1.00
C244   C     0.46407   0.64536   0.23713   0.00000  Uiso   1.00
C245   C     0.49992   0.62418   0.25020   0.00000  Uiso   1.00
C246   C     0.65205   0.47213   0.21934   0.00000  Uiso   1.00
C247   C     0.36668   0.47216   0.21932   0.00000  Uiso   1.00
C248   C     0.48547   0.48735   0.48590   0.00000  Uiso   1.00
C249   C     0.34796   0.52788   0.28064   0.00000  Uiso   1.00
C250   C     0.63338   0.52793   0.28052   0.00000  Uiso   1.00
C251   C     0.50000   0.41996   0.25000   0.00000  Uiso   1.00
C252   C     0.52665   0.49977   0.14807   0.00000  Uiso   1.00
C253   C     0.59690   0.52851   0.00627   0.00000  Uiso   1.00
C254   C     0.54321   0.50119   0.08987   0.00000  Uiso   1.00
C255   C     0.41544   0.47552   0.43663   0.00000  Uiso   1.00
C256   C     0.41081   0.45520   0.48434   0.00000  Uiso   1.00
C257   C     0.44773   0.45721   0.00633   0.00000  Uiso   1.00
C258   C     0.44881   0.42211   0.04396   0.00000  Uiso   1.00
C259   C     0.48942   0.50820   0.43754   0.00000  Uiso   1.00
C260   C     0.51978   0.49753   0.01074   0.00000  Uiso   1.00
C261   C     0.56158   0.52099   0.48283   0.00000  Uiso   1.00
C262   C     0.56488   0.54043   0.43488   0.00000  Uiso   1.00
C263   C     0.52731   0.53683   0.41505   0.00000  Uiso   1.00
C264   C     0.51027   0.49036   0.06504   0.00000  Uiso   1.00
C265   C     0.58799   0.51793   0.05984   0.00000  Uiso   1.00
H266   H     0.61395   0.52631   0.07880   0.00000  Uiso   1.00
H267   H     0.62967   0.54511   0.48450   0.00000  Uiso   1.00
H268   H     0.47493   0.48018   0.08977   0.00000  Uiso   1.00
H269   H     0.38956   0.46887   0.41688   0.00000  Uiso   1.00
H270   H     0.38093   0.43393   0.00073   0.00000  Uiso   1.00
H271   H     0.52873   0.55603   0.38093   0.00000  Uiso   1.00
H272   H     0.56340   0.62904   0.27391   0.00000  Uiso   1.00
H273   H     0.48558   0.41642   0.04486   0.00000  Uiso   1.00
H274   H     0.42313   0.42850   0.08498   0.00000  Uiso   1.00
H275   H     0.43788   0.39246   0.02974   0.00000  Uiso   1.00
H276   H     0.56349   0.37091   0.27373   0.00000  Uiso   1.00
H277   H     0.43647   0.37095   0.22642   0.00000  Uiso   1.00
H278   H     0.43639   0.62910   0.22658   0.00000  Uiso   1.00
H279   H     0.64138   0.44987   0.19479   0.00000  Uiso   1.00
H280   H     0.39234   0.44991   0.19475   0.00000  Uiso   1.00
H281   H     0.35863   0.55016   0.30516   0.00000  Uiso   1.00
H282   H     0.60787   0.55040   0.30473   0.00000  Uiso   1.00
H283   H     0.59482   0.56081   0.41474   0.00000  Uiso   1.00
N284   N     0.38093   0.50001   0.25002   0.00000  Uiso   1.00
N285   N     0.61906   0.49998   0.25001   0.00000  Uiso   1.00
O286   O     0.46179   0.56108   0.25001   0.00000  Uiso   1.00
O287   O     0.53823   0.56107   0.25001   0.00000  Uiso   1.00
O288   O     0.44280   0.50000   0.32681   0.00000  Uiso   1.00
O289   O     0.51924   0.49999   0.32681   0.00000  Uiso   1.00
O290   O     0.46177   0.43893   0.25000   0.00000  Uiso   1.00
O291   O     0.53821   0.43892   0.25000   0.00000  Uiso   1.00
O292   O     0.48076   0.50001   0.17319   0.00000  Uiso   1.00
O293   O     0.55720   0.50000   0.17319   0.00000  Uiso   1.00
Zn294  Zn    0.44896   0.50001   0.25000   0.00000  Uiso   1.00
Zn295  Zn    0.55104   0.49999   0.25000   0.00000  Uiso   1.00
C296   C     0.83331   0.58004   0.25009   0.00000  Uiso   1.00
C297   C     0.79038   0.49839   0.41058   0.00000  Uiso   1.00
C298   C     0.86909   0.64533   0.26328   0.00000  Uiso   1.00
C299   C     0.80671   0.50146   0.35206   0.00000  Uiso   1.00
C300   C     0.86914   0.35464   0.26319   0.00000  Uiso   1.00
C301   C     0.83332   0.37582   0.25006   0.00000  Uiso   1.00
C302   C     0.79745   0.35466   0.23704   0.00000  Uiso   1.00
C303   C     0.79740   0.64536   0.23713   0.00000  Uiso   1.00
C304   C     0.83325   0.62418   0.25020   0.00000  Uiso   1.00
C305   C     0.98538   0.47213   0.21934   0.00000  Uiso   1.00
C306   C     0.70001   0.47216   0.21932   0.00000  Uiso   1.00
C307   C     0.81881   0.48735   0.48590   0.00000  Uiso   1.00
C308   C     0.68129   0.52788   0.28064   0.00000  Uiso   1.00
C309   C     0.96672   0.52793   0.28052   0.00000  Uiso   1.00
C310   C     0.83333   0.41996   0.25000   0.00000  Uiso   1.00
C311   C     0.85998   0.49977   0.14807   0.00000  Uiso   1.00
C312   C     0.93023   0.52851   0.00627   0.00000  Uiso   1.00
C313   C     0.87655   0.50119   0.08987   0.00000  Uiso   1.00
C314   C     0.74878   0.47552   0.43663   0.00000  Uiso   1.00
C315   C     0.74414   0.45520   0.48434   0.00000  Uiso   1.00
C316   C     0.78107   0.45721   0.00633   0.00000  Uiso   1.00
C317   C     0.78214   0.42211   0.04396   0.00000  Uiso   1.00
C318   C     0.82276   0.50820   0.43754   0.00000  Uiso   1.00
C319   C     0.85311   0.49753   0.01074   0.00000  Uiso   1.00
C320   C     0.89491   0.52099   0.48283   0.00000  Uiso   1.00
C321   C     0.89821   0.54043   0.43488   0.00000  Uiso   1.00
C322   C     0.86065   0.53683   0.41505   0.00000  Uiso   1.00
C323   C     0.84360   0.49036   0.06504   0.00000  Uiso   1.00
C324   C     0.92132   0.51793   0.05984   0.00000  Uiso   1.00
H325   H     0.94729   0.52631   0.07880   0.00000  Uiso   1.00
H326   H     0.96300   0.54511   0.48450   0.00000  Uiso   1.00
H327   H     0.80827   0.48018   0.08977   0.00000  Uiso   1.00
H328   H     0.72289   0.46887   0.41688   0.00000  Uiso   1.00
H329   H     0.71426   0.43393   0.00073   0.00000  Uiso   1.00
H330   H     0.86206   0.55603   0.38093   0.00000  Uiso   1.00
H331   H     0.89673   0.62904   0.27391   0.00000  Uiso   1.00
H332   H     0.81891   0.41642   0.04486   0.00000  Uiso   1.00
H333   H     0.75646   0.42850   0.08498   0.00000  Uiso   1.00
H334   H     0.77121   0.39246   0.02974   0.00000  Uiso   1.00
H335   H     0.89682   0.37091   0.27373   0.00000  Uiso   1.00
H336   H     0.76980   0.37095   0.22642   0.00000  Uiso   1.00
H337   H     0.76972   0.62910   0.22658   0.00000  Uiso   1.00
H338   H     0.97471   0.44987   0.19479   0.00000  Uiso   1.00
H339   H     0.72568   0.44991   0.19475   0.00000  Uiso   1.00
H340   H     0.69196   0.55016   0.30516   0.00000  Uiso   1.00
H341   H     0.94121   0.55040   0.30473   0.00000  Uiso   1.00
H342   H     0.92815   0.56081   0.41474   0.00000  Uiso   1.00
N343   N     0.71426   0.50001   0.25002   0.00000  Uiso   1.00
N344   N     0.95239   0.49998   0.25001   0.00000  Uiso   1.00
O345   O     0.79512   0.56108   0.25001   0.00000  Uiso   1.00
O346   O     0.87157   0.56107   0.25001   0.00000  Uiso   1.00
O347   O     0.77613   0.50000   0.32681   0.00000  Uiso   1.00
O348   O     0.85258   0.49999   0.32681   0.00000  Uiso   1.00
O349   O     0.79510   0.43893   0.25000   0.00000  Uiso   1.00
O350   O     0.87154   0.43892   0.25000   0.00000  Uiso   1.00
O351   O     0.81409   0.50001   0.17319   0.00000  Uiso   1.00
O352   O     0.89053   0.50000   0.17319   0.00000  Uiso   1.00
Zn353  Zn    0.78229   0.50001   0.25000   0.00000  Uiso   1.00
Zn354  Zn    0.88438   0.49999   0.25000   0.00000  Uiso   1.00
C355   C     0.16664   0.91337   0.25009   0.00000  Uiso   1.00
C356   C     0.12371   0.83172   0.41058   0.00000  Uiso   1.00
C357   C     0.20243   0.97866   0.26328   0.00000  Uiso   1.00
C358   C     0.14004   0.83479   0.35206   0.00000  Uiso   1.00
C359   C     0.20247   0.68797   0.26319   0.00000  Uiso   1.00
C360   C     0.16666   0.70915   0.25006   0.00000  Uiso   1.00
C361   C     0.13078   0.68800   0.23704   0.00000  Uiso   1.00
C362   C     0.13074   0.97869   0.23713   0.00000  Uiso   1.00
C363   C     0.16659   0.95751   0.25020   0.00000  Uiso   1.00
C364   C     0.31871   0.80546   0.21934   0.00000  Uiso   1.00
C365   C     0.03335   0.80549   0.21932   0.00000  Uiso   1.00
C366   C     0.15214   0.82068   0.48590   0.00000  Uiso   1.00
C367   C     0.01463   0.86121   0.28064   0.00000  Uiso   1.00
C368   C     0.30005   0.86127   0.28052   0.00000  Uiso   1.00
C369   C     0.16666   0.75330   0.25000   0.00000  Uiso   1.00
C370   C     0.19332   0.83310   0.14807   0.00000  Uiso   1.00
C371   C     0.26356   0.86184   0.00627   0.00000  Uiso   1.00
C372   C     0.20988   0.83452   0.08987   0.00000  Uiso   1.00
C373   C     0.08211   0.80885   0.43663   0.00000  Uiso   1.00
C374   C     0.07748   0.78853   0.48434   0.00000  Uiso   1.00
C375   C     0.11440   0.79055   0.00633   0.00000  Uiso   1.00
C376   C     0.11548   0.75544   0.04396   0.00000  Uiso   1.00
C377   C     0.15609   0.84154   0.43754   0.00000  Uiso   1.00
C378   C     0.18645   0.83086   0.01074   0.00000  Uiso   1.00
C379   C     0.22824   0.85432   0.48283   0.00000  Uiso   1.00
C380   C     0.23155   0.87377   0.43488   0.00000  Uiso   1.00
C381   C     0.19398   0.87017   0.41505   0.00000  Uiso   1.00
C382   C     0.17693   0.82369   0.06504   0.00000  Uiso   1.00
C383   C     0.25466   0.85127   0.05984   0.00000  Uiso   1.00
H384   H     0.28062   0.85964   0.07880   0.00000  Uiso   1.00
H385   H     0.29633   0.87844   0.48450   0.00000  Uiso   1.00
H386   H     0.14160   0.81351   0.08977   0.00000  Uiso   1.00
H387   H     0.05623   0.80220   0.41688   0.00000  Uiso   1.00
H388   H     0.04760   0.76726   0.00073   0.00000  Uiso   1.00
H389   H     0.19540   0.88937   0.38093   0.00000  Uiso   1.00
H390   H     0.23006   0.96237   0.27391   0.00000  Uiso   1.00
H391   H     0.15224   0.74975   0.04486   0.00000  Uiso   1.00
H392   H     0.08979   0.76184   0.08498   0.00000  Uiso   1.00
H393   H     0.10454   0.72580   0.02974   0.00000  Uiso   1.00
H394   H     0.23015   0.70424   0.27373   0.00000  Uiso   1.00
H395   H     0.10313   0.70428   0.22642   0.00000  Uiso   1.00
H396   H     0.10306   0.96243   0.22658   0.00000  Uiso   1.00
H397   H     0.30805   0.78321   0.19479   0.00000  Uiso   1.00
H398   H     0.05901   0.78324   0.19475   0.00000  Uiso   1.00
H399   H     0.02530   0.88350   0.30516   0.00000  Uiso   1.00
H400   H     0.27454   0.88373   0.30473   0.00000  Uiso   1.00
H401   H     0.26149   0.89414   0.41474   0.00000  Uiso   1.00
N402   N     0.04760   0.83334   0.25002   0.00000  Uiso   1.00
N403   N     0.28573   0.83331   0.25001   0.00000  Uiso   1.00
O404   O     0.12846   0.89442   0.25001   0.00000  Uiso   1.00
O405   O     0.20490   0.89441   0.25001   0.00000  Uiso   1.00
O406   O     0.10947   0.83333   0.32681   0.00000  Uiso   1.00
O407   O     0.18591   0.83332   0.32681   0.00000  Uiso   1.00
O408   O     0.12843   0.77226   0.25000   0.00000  Uiso   1.00
O409   O     0.20488   0.77225   0.25000   0.00000  Uiso   1.00
O410   O     0.14742   0.83335   0.17319   0.00000  Uiso   1.00
O411   O     0.22387   0.83334   0.17319   0.00000  Uiso   1.00
Zn412  Zn    0.11562   0.83334   0.25000   0.00000  Uiso   1.00
Zn413  Zn    0.21771   0.83333   0.25000   0.00000  Uiso   1.00
C414   C     0.49997   0.91337   0.25009   0.00000  Uiso   1.00
C415   C     0.45705   0.83172   0.41058   0.00000  Uiso   1.00
C416   C     0.53576   0.97866   0.26328   0.00000  Uiso   1.00
C417   C     0.47338   0.83479   0.35206   0.00000  Uiso   1.00
C418   C     0.53581   0.68797   0.26319   0.00000  Uiso   1.00
C419   C     0.49999   0.70915   0.25006   0.00000  Uiso   1.00
C420   C     0.46411   0.68800   0.23704   0.00000  Uiso   1.00
C421   C     0.46407   0.97869   0.23713   0.00000  Uiso   1.00
C422   C     0.49992   0.95751   0.25020   0.00000  Uiso   1.00
C423   C     0.65205   0.80546   0.21934   0.00000  Uiso   1.00
C424   C     0.36668   0.80549   0.21932   0.00000  Uiso   1.00
C425   C     0.48547   0.82068   0.48590   0.00000  Uiso   1.00
C426   C     0.34796   0.86121   0.28064   0.00000  Uiso   1.00
C427   C     0.63338   0.86127   0.28052   0.00000  Uiso   1.00
C428   C     0.50000   0.75330   0.25000   0.00000  Uiso   1.00
C429   C     0.52665   0.83310   0.14807   0.00000  Uiso   1.00
C430   C     0.59690   0.86184   0.00627   0.00000  Uiso   1.00
C431   C     0.54321   0.83452   0.08987   0.00000  Uiso   1.00
C432   C     0.41544   0.80885   0.43663   0.00000  Uiso   1.00
C433   C     0.41081   0.78853   0.48434   0.00000  Uiso   1.00
C434   C     0.44773   0.79055   0.00633   0.00000  Uiso   1.00
C435   C     0.44881   0.75544   0.04396   0.00000  Uiso   1.00
C436   C     0.48942   0.84154   0.43754   0.00000  Uiso   1.00
C437   C     0.51978   0.83086   0.01074   0.00000  Uiso   1.00
C438   C     0.56158   0.85432   0.48283   0.00000  Uiso   1.00
C439   C     0.56488   0.87377   0.43488   0.00000  Uiso   1.00
C440   C     0.52731   0.87017   0.41505   0.00000  Uiso   1.00
C441   C     0.51027   0.82369   0.06504   0.00000  Uiso   1.00
C442   C     0.58799   0.85127   0.05984   0.00000  Uiso   1.00
H443   H     0.61395   0.85964   0.07880   0.00000  Uiso   1.00
H444   H     0.62967   0.87844   0.48450   0.00000  Uiso   1.00
H445   H     0.47493   0.81351   0.08977   0.00000  Uiso   1.00
H446   H     0.38956   0.80220   0.41688   0.00000  Uiso   1.00
H447   H     0.38093   0.76726   0.00073   0.00000  Uiso   1.00
H448   H     0.52873   0.88937   0.38093   0.00000  Uiso   1.00
H449   H     0.56340   0.96237   0.27391   0.00000  Uiso   1.00
H450   H     0.48558   0.74975   0.04486   0.00000  Uiso   1.00
H451   H     0.42313   0.76184   0.08498   0.00000  Uiso   1.00
H452   H     0.43788   0.72580   0.02974   0.00000  Uiso   1.00
H453   H     0.56349   0.70424   0.27373   0.00000  Uiso   1.00
H454   H     0.43647   0.70428   0.22642   0.00000  Uiso   1.00
H455   H     0.43639   0.96243   0.22658   0.00000  Uiso   1.00
H456   H     0.64138   0.78321   0.19479   0.00000  Uiso   1.00
H457   H     0.39234   0.78324   0.19475   0.00000  Uiso   1.00
H458   H     0.35863   0.88350   0.30516   0.00000  Uiso   1.00
H459   H     0.60787   0.88373   0.30473   0.00000  Uiso   1.00
H460   H     0.59482   0.89414   0.41474   0.00000  Uiso   1.00
N461   N     0.38093   0.83334   0.25002   0.00000  Uiso   1.00
N462   N     0.61906   0.83331   0.25001   0.00000  Uiso   1.00
O463   O     0.46179   0.89442   0.25001   0.00000  Uiso   1.00
O464   O     0.53823   0.89441   0.25001   0.00000  Uiso   1.00
O465   O     0.44280   0.83333   0.32681   0.00000  Uiso   1.00
O466   O     0.51924   0.83332   0.32681   0.00000  Uiso   1.00
O467   O     0.46177   0.77226   0.25000   0.00000  Uiso   1.00
O468   O     0.53821   0.77225   0.25000   0.00000  Uiso   1.00
O469   O     0.48076   0.83335   0.17319   0.00000  Uiso   1.00
O470   O     0.55720   0.83334   0.17319   0.00000  Uiso   1.00
Zn471  Zn    0.44896   0.83334   0.25000   0.00000  Uiso   1.00
Zn472  Zn    0.55104   0.83333   0.25000   0.00000  Uiso   1.00
C473   C     0.83331   0.91337   0.25009   0.00000  Uiso   1.00
C474   C     0.79038   0.83172   0.41058   0.00000  Uiso   1.00
C475   C     0.86909   0.97866   0.26328   0.00000  Uiso   1.00
C476   C     0.80671   0.83479   0.35206   0.00000  Uiso   1.00
C477   C     0.86914   0.68797   0.26319   0.00000  Uiso   1.00
C478   C     0.83332   0.70915   0.25006   0.00000  Uiso   1.00
C479   C     0.79745   0.68800   0.23704   0.00000  Uiso   1.00
C480   C     0.79740   0.97869   0.23713   0.00000  Uiso   1.00
C481   C     0.83325   0.95751   0.25020   0.00000  Uiso   1.00
C482   C     0.98538   0.80546   0.21934   0.00000  Uiso   1.00
C483   C     0.70001   0.80549   0.21932   0.00000  Uiso   1.00
C484   C     0.81881   0.82068   0.48590   0.00000  Uiso   1.00
C485   C     0.68129   0.86121   0.28064   0.00000  Uiso   1.00
C486   C     0.96672   0.86127   0.28052   0.00000  Uiso   1.00
C487   C     0.83333   0.75330   0.25000   0.00000  Uiso   1.00
C488   C     0.85998   0.83310   0.14807   0.00000  Uiso   1.00
C489   C     0.93023   0.86184   0.00627   0.00000  Uiso   1.00
C490   C     0.87655   0.83452   0.08987   0.00000  Uiso   1.00
C491   C     0.74878   0.80885   0.43663   0.00000  Uiso   1.00
C492   C     0.74414   0.78853   0.48434   0.00000  Uiso   1.00
C493   C     0.78107   0.79055   0.00633   0.00000  Uiso   1.00
C494   C     0.78214   0.75544   0.04396   0.00000  Uiso   1.00
C495   C     0.82276   0.84154   0.43754   0.00000  Uiso   1.00
C496   C     0.85311   0.83086   0.01074   0.00000  Uiso   1.00
C497   C     0.89491   0.85432   0.48283   0.00000  Uiso   1.00
C498   C     0.89821   0.87377   0.43488   0.00000  Uiso   1.00
C499   C     0.86065   0.87017   0.41505   0.00000  Uiso   1.00
C500   C     0.84360   0.82369   0.06504   0.00000  Uiso   1.00
C501   C     0.92132   0.85127   0.05984   0.00000  Uiso   1.00
H502   H     0.94729   0.85964   0.07880   0.00000  Uiso   1.00
H503   H     0.96300   0.87844   0.48450   0.00000  Uiso   1.00
H504   H     0.80827   0.81351   0.08977   0.00000  Uiso   1.00
H505   H     0.72289   0.80220   0.41688   0.00000  Uiso   1.00
H506   H     0.71426   0.76726   0.00073   0.00000  Uiso   1.00
H507   H     0.86206   0.88937   0.38093   0.00000  Uiso   1.00
H508   H     0.89673   0.96237   0.27391   0.00000  Uiso   1.00
H509   H     0.81891   0.74975   0.04486   0.00000  Uiso   1.00
H510   H     0.75646   0.76184   0.08498   0.00000  Uiso   1.00
H511   H     0.77121   0.72580   0.02974   0.00000  Uiso   1.00
H512   H     0.89682   0.70424   0.27373   0.00000  Uiso   1.00
H513   H     0.76980   0.70428   0.22642   0.00000  Uiso   1.00
H514   H     0.76972   0.96243   0.22658   0.00000  Uiso   1.00
H515   H     0.97471   0.78321   0.19479   0.00000  Uiso   1.00
H516   H     0.72568   0.78324   0.19475   0.00000  Uiso   1.00
H517   H     0.69196   0.88350   0.30516   0.00000  Uiso   1.00
H518   H     0.94121   0.88373   0.30473   0.00000  Uiso   1.00
H519   H     0.92815   0.89414   0.41474   0.00000  Uiso   1.00
N520   N     0.71426   0.83334   0.25002   0.00000  Uiso   1.00
N521   N     0.95239   0.83331   0.25001   0.00000  Uiso   1.00
O522   O     0.79512   0.89442   0.25001   0.00000  Uiso   1.00
O523   O     0.87157   0.89441   0.25001   0.00000  Uiso   1.00
O524   O     0.77613   0.83333   0.32681   0.00000  Uiso   1.00
O525   O     0.85258   0.83332   0.32681   0.00000  Uiso   1.00
O526   O     0.79510   0.77226   0.25000   0.00000  Uiso   1.00
O527   O     0.87154   0.77225   0.25000   0.00000  Uiso   1.00
O528   O     0.81409   0.83335   0.17319   0.00000  Uiso   1.00
O529   O     0.89053   0.83334   0.17319   0.00000  Uiso   1.00
Zn530  Zn    0.78229   0.83334   0.25000   0.00000  Uiso   1.00
Zn531  Zn    0.88438   0.83333   0.25000   0.00000  Uiso   1.00
C532   C     0.16664   0.24670   0.75009   0.00000  Uiso   1.00
C533   C     0.12371   0.16506   0.91058   0.00000  Uiso   1.00
C534   C     0.20243   0.31200   0.76328   0.00000  Uiso   1.00
C535   C     0.14004   0.16813   0.85206   0.00000  Uiso   1.00
C536   C     0.20247   0.02131   0.76319   0.00000  Uiso   1.00
C537   C     0.16666   0.04248   0.75006   0.00000  Uiso   1.00
C538   C     0.13078   0.02133   0.73704   0.00000  Uiso   1.00
C539   C     0.13074   0.31203   0.73713   0.00000  Uiso   1.00
C540   C     0.16659   0.29085   0.75020   0.00000  Uiso   1.00
C541   C     0.31871   0.13880   0.71934   0.00000  Uiso   1.00
C542   C     0.03335   0.13882   0.71932   0.00000  Uiso   1.00
C543   C     0.15214   0.15401   0.98590   0.00000  Uiso   1.00
C544   C     0.01463   0.19454   0.78064   0.00000  Uiso   1.00
C545   C     0.30005   0.19460   0.78052   0.00000  Uiso   1.00
C546   C     0.16666   0.08663   0.75000   0.00000  Uiso   1.00
C547   C     0.19332   0.16644   0.64807   0.00000  Uiso   1.00
C548   C     0.26356   0.19518   0.50627   0.00000  Uiso   1.00
C549   C     0.20988   0.16785   0.58987   0.00000  Uiso   1.00
C550   C     0.08211   0.14219   0.93663   0.00000  Uiso   1.00
C551   C     0.07748   0.12186   0.98434   0.00000  Uiso   1.00
C552   C     0.11440   0.12388   0.50633   0.00000  Uiso   1.00
C553   C     0.11548   0.08878   0.54396   0.00000  Uiso   1.00
C554   C     0.15609   0.17487   0.93754   0.00000  Uiso   1.00
C555   C     0.18645   0.16420   0.51074   0.00000  Uiso   1.00
C556   C     0.22824   0.18765   0.98283   0.00000  Uiso   1.00
C557   C     0.23155   0.20710   0.93488   0.00000  Uiso   1.00
C558   C     0.19398   0.20350   0.91505   0.00000  Uiso   1.00
C559   C     0.17693   0.15703   0.56504   0.00000  Uiso   1.00
C560   C     0.25466   0.18460   0.55984   0.00000  Uiso   1.00
H561   H     0.28062   0.19297   0.57880   0.00000  Uiso   1.00
H562   H     0.29633   0.21177   0.98450   0.00000  Uiso   1.00
H563   H     0.14160   0.14685   0.58977   0.00000  Uiso   1.00
H564   H     0.05623   0.13554   0.91688   0.00000  Uiso   1.00
H565   H     0.04760   0.10060   0.50073   0.00000  Uiso   1.00
H566   H     0.19540   0.22270   0.88093   0.00000  Uiso   1.00
H567   H     0.23006   0.29571   0.77391   0.00000  Uiso   1.00
H568   H     0.15224   0.08308   0.54486   0.00000  Uiso   1.00
H569   H     0.08979   0.09517   0.58498   0.00000  Uiso   1.00
H570   H     0.10454   0.05913   0.52974   0.00000  Uiso   1.00
H571   H     0.23015   0.03758   0.77373   0.00000  Uiso   1.00
H572   H     0.10313   0.03761   0.72642   0.00000  Uiso   1.00
H573   H     0.10306   0.29576   0.72658   0.00000  Uiso   1.00
H574   H     0.30805   0.11654   0.69479   0.00000  Uiso   1.00
H575   H     0.05901   0.11658   0.69475   0.00000  Uiso   1.00
H576   H     0.02530   0.21683   0.80516   0.00000  Uiso   1.00
H577   H     0.27454   0.21707   0.80473   0.00000  Uiso   1.00
H578   H     0.26149   0.22747   0.91474   0.00000  Uiso   1.00
N579   N     0.04760   0.16668   0.75002   0.00000  Uiso   1.00
N580   N     0.28573   0.16665   0.75001   0.00000  Uiso   1.00
O581   O     0.12846   0.22775   0.75001   0.00000  Uiso   1.00
O582   O     0.20490   0.22774   0.75001   0.00000  Uiso   1.00
O583   O     0.10947   0.16666   0.82681   0.00000  Uiso   1.00
O584   O     0.18591   0.16665   0.82681   0.00000  Uiso   1.00
O585   O     0.12843   0.10559   0.75000   0.00000  Uiso   1.00
O586   O     0.20488   0.10558   0.75000   0.00000  Uiso   1.00
O587   O     0.14742   0.16668   0.67319   0.00000  Uiso   1.00
O588   O     0.22387   0.16667   0.67319   0.00000  Uiso   1.00
Zn589  Zn    0.11562   0.16667   0.75000   0.00000  Uiso   1.00
Zn590  Zn    0.21771   0.16666   0.75000   0.00000  Uiso   1.00
C591   C     0.49997   0.24670   0.75009   0.00000  Uiso   1.00
C592   C     0.45705   0.16506   0.91058   0.00000  Uiso   1.00
C593   C     0.53576   0.31200   0.76328   0.00000  Uiso   1.00
C594   C     0.47338   0.16813   0.85206   0.00000  Uiso   1.00
C595   C     0.53581   0.02131   0.76319   0.00000  Uiso   1.00
C596   C     0.49999   0.04248   0.75006   0.00000  Uiso   1.00
C597   C     0.46411   0.02133   0.73704   0.00000  Uiso   1.00
C598   C     0.46407   0.31203   0.73713   0.00000  Uiso   1.00
C599   C     0.49992   0.29085   0.75020   0.00000  Uiso   1.00
C600   C     0.65205   0.13880   0.71934   0.00000  Uiso   1.00
C601   C     0.36668   0.13882   0.71932   0.00000  Uiso   1.00
C602   C     0.48547   0.15401   0.98590   0.00000  Uiso   1.00
C603   C     0.34796   0.19454   0.78064   0.00000  Uiso   1.00
C604   C     0.63338   0.19460   0.78052   0.00000  Uiso   1.00
C605   C     0.50000   0.08663   0.75000   0.00000  Uiso   1.00
C606   C     0.52665   0.16644   0.64807   0.00000  Uiso   1.00
C607   C     0.59690   0.19518   0.50627   0.00000  Uiso   1.00
C608   C     0.54321   0.16785   0.58987   0.00000  Uiso   1.00
C609   C     0.41544   0.14219   0.93663   0.00000  Uiso   1.00
C610   C     0.41081   0.12186   0.98434   0.00000  Uiso   1.00
C611   C     0.44773   0.12388   0.50633   0.00000  Uiso   1.00
C612   C     0.44881   0.08878   0.54396   0.00000  Uiso   1.00
C613   C     0.48942   0.17487   0.93754   0.00000  Uiso   1.00
C614   C     0.51978   0.16420   0.51074   0.00000  Uiso   1.00
C615   C     0.56158   0.18765   0.98283   0.00000  Uiso   1.00
C616   C     0.56488   0.20710   0.93488   0.00000  Uiso   1.00
C617   C     0.52731   0.20350   0.91505   0.00000  Uiso   1.00
C618   C     0.51027   0.15703   0.56504   0.00000  Uiso   1.00
C619   C     0.58799   0.18460   0.55984   0.00000  Uiso   1.00
H620   H     0.61395   0.19297   0.57880   0.00000  Uiso   1.00
H621   H     0.62967   0.21177   0.98450   0.00000  Uiso   1.00
H622   H     0.47493   0.14685   0.58977   0.00000  Uiso   1.00
H623   H     0.38956   0.13554   0.91688   0.00000  Uiso   1.00
H624   H     0.38093   0.10060   0.50073   0.00000  Uiso   1.00
H625   H     0.52873   0.22270   0.88093   0.00000  Uiso   1.00
H626   H     0.56340   0.29571   0.77391   0.00000  Uiso   1.00
H627   H     0.48558   0.08308   0.54486   0.00000  Uiso   1.00
H628   H     0.42313   0.09517   0.58498   0.00000  Uiso   1.00
H629   H     0.43788   0.05913   0.52974   0.00000  Uiso   1.00
H630   H     0.56349   0.03758   0.77373   0.00000  Uiso   1.00
H631   H     0.43647   0.03761   0.72642   0.00000  Uiso   1.00
H632   H     0.43639   0.29576   0.72658   0.00000  Uiso   1.00
H633   H     0.64138   0.11654   0.69479   0.00000  Uiso   1.00
H634   H     0.39234   0.11658   0.69475   0.00000  Uiso   1.00
H635   H     0.35863   0.21683   0.80516   0.00000  Uiso   1.00
H636   H     0.60787   0.21707   0.80473   0.00000  Uiso   1.00
H637   H     0.59482   0.22747   0.91474   0.00000  Uiso   1.00
N638   N     0.38093   0.16668   0.75002   0.00000  Uiso   1.00
N639   N     0.61906   0.16665   0.75001   0.00000  Uiso   1.00
O640   O     0.46179   0.22775   0.75001   0.00000  Uiso   1.00
O641   O     0.53823   0.22774   0.75001   0.00000  Uiso   1.00
O642   O     0.44280   0.16666   0.82681   0.00000  Uiso   1.00
O643   O     0.51924   0.16665   0.82681   0.00000  Uiso   1.00
O644   O     0.46177   0.10559   0.75000   0.00000  Uiso   1.00
O645   O     0.53821   0.10558   0.75000   0.00000  Uiso   1.00
O646   O     0.48076   0.16668   0.67319   0.00000  Uiso   1.00
O647   O     0.55720   0.16667   0.67319   0.00000  Uiso   1.00
Zn648  Zn    0.44896   0.16667   0.75000   0.00000  Uiso   1.00
Zn649  Zn    0.55104   0.16666   0.75000   0.00000  Uiso   1.00
C650   C     0.83331   0.24670   0.75009   0.00000  Uiso   1.00
C651   C     0.79038   0.16506   0.91058   0.00000  Uiso   1.00
C652   C     0.86909   0.31200   0.76328   0.00000  Uiso   1.00
C653   C     0.80671   0.16813   0.85206   0.00000  Uiso   1.00
C654   C     0.86914   0.02131   0.76319   0.00000  Uiso   1.00
C655   C     0.83332   0.04248   0.75006   0.00000  Uiso   1.00
C656   C     0.79745   0.02133   0.73704   0.00000  Uiso   1.00
C657   C     0.79740   0.31203   0.73713   0.00000  Uiso   1.00
C658   C     0.83325   0.29085   0.75020   0.00000  Uiso   1.00
C659   C     0.98538   0.13880   0.71934   0.00000  Uiso   1.00
C660   C     0.70001   0.13882   0.71932   0.00000  Uiso   1.00
C661   C     0.81881   0.15401   0.98590   0.00000  Uiso   1.00
C662   C     0.68129   0.19454   0.78064   0.00000  Uiso   1.00
C663   C     0.96672   0.19460   0.78052   0.00000  Uiso   1.00
C664   C     0.83333   0.08663   0.75000   0.00000  Uiso   1.00
C665   C     0.85998   0.16644   0.64807   0.00000  Uiso   1.00
C666   C     0.93023   0.19518   0.50627   0.00000  Uiso   1.00
C667   C     0.87655   0.16785   0.58987   0.00000  Uiso   1.00
C668   C     0.74878   0.14219   0.93663   0.00000  Uiso   1.00
C669   C     0.74414   0.12186   0.98434   0.00000  Uiso   1.00
C670   C     0.78107   0.12388   0.50633   0.00000  Uiso   1.00
C671   C     0.78214   0.08878   0.54396   0.00000  Uiso   1.00
C672   C     0.82276   0.17487   0.93754   0.00000  Uiso   1.00
C673   C     0.85311   0.16420   0.51074   0.00000  Uiso   1.00
C674   C     0.89491   0.18765   0.98283   0.00000  Uiso   1.00
C675   C     0.89821   0.20710   0.93488   0.00000  Uiso   1.00
C676   C     0.86065   0.20350   0.91505   0.00000  Uiso   1.00
C677   C     0.84360   0.15703   0.56504   0.00000  Uiso   1.00
C678   C     0.92132   0.18460   0.55984   0.00000  Uiso   1.00
H679   H     0.94729   0.19297   0.57880   0.00000  Uiso   1.00
H680   H     0.96300   0.21177   0.98450   0.00000  Uiso   1.00
H681   H     0.80827   0.14685   0.58977   0.00000  Uiso   1.00
H682   H     0.72289   0.13554   0.91688   0.00000  Uiso   1.00
H683   H     0.71426   0.10060   0.50073   0.00000  Uiso   1.00
H684   H     0.86206   0.22270   0.88093   0.00000  Uiso   1.00
H685   H     0.89673   0.29571   0.77391   0.00000  Uiso   1.00
H686   H     0.81891   0.08308   0.54486   0.00000  Uiso   1.00
H687   H     0.75646   0.09517   0.58498   0.00000  Uiso   1.00
H688   H     0.77121   0.05913   0.52974   0.00000  Uiso   1.00
H689   H     0.89682   0.03758   0.77373   0.00000  Uiso   1.00
H690   H     0.76980   0.03761   0.72642   0.00000  Uiso   1.00
H691   H     0.76972   0.29576   0.72658   0.00000  Uiso   1.00
H692   H     0.97471   0.11654   0.69479   0.00000  Uiso   1.00
H693   H     0.72568   0.11658   0.69475   0.00000  Uiso   1.00
H694   H     0.69196   0.21683   0.80516   0.00000  Uiso   1.00
H695   H     0.94121   0.21707   0.80473   0.00000  Uiso   1.00
H696   H     0.92815   0.22747   0.91474   0.00000  Uiso   1.00
N697   N     0.71426   0.16668   0.75002   0.00000  Uiso   1.00
N698   N     0.95239   0.16665   0.75001   0.00000  Uiso   1.00
O699   O     0.79512   0.22775   0.75001   0.00000  Uiso   1.00
O700   O     0.87157   0.22774   0.75001   0.00000  Uiso   1.00
O701   O     0.77613   0.16666   0.82681   0.00000  Uiso   1.00
O702   O     0.85258   0.16665   0.82681   0.00000  Uiso   1.00
O703   O     0.79510   0.10559   0.75000   0.00000  Uiso   1.00
O704   O     0.87154   0.10558   0.75000   0.00000  Uiso   1.00
O705   O     0.81409   0.16668   0.67319   0.00000  Uiso   1.00
O706   O     0.89053   0.16667   0.67319   0.00000  Uiso   1.00
Zn707  Zn    0.78229   0.16667   0.75000   0.00000  Uiso   1.00
Zn708  Zn    0.88438   0.16666   0.75000   0.00000  Uiso   1.00
C709   C     0.16664   0.58004   0.75009   0.00000  Uiso   1.00
C710   C     0.12371   0.49839   0.91058   0.00000  Uiso   1.00
C711   C     0.20243   0.64533   0.76328   0.00000  Uiso   1.00
C712   C     0.14004   0.50146   0.85206   0.00000  Uiso   1.00
C713   C     0.20247   0.35464   0.76319   0.00000  Uiso   1.00
C714   C     0.16666   0.37582   0.75006   0.00000  Uiso   1.00
C715   C     0.13078   0.35466   0.73704   0.00000  Uiso   1.00
C716   C     0.13074   0.64536   0.73713   0.00000  Uiso   1.00
C717   C     0.16659   0.62418   0.75020   0.00000  Uiso   1.00
C718   C     0.31871   0.47213   0.71934   0.00000  Uiso   1.00
C719   C     0.03335   0.47216   0.71932   0.00000  Uiso   1.00
C720   C     0.15214   0.48735   0.98590   0.00000  Uiso   1.00
C721   C     0.01463   0.52788   0.78064   0.00000  Uiso   1.00
C722   C     0.30005   0.52793   0.78052   0.00000  Uiso   1.00
C723   C     0.16666   0.41996   0.75000   0.00000  Uiso   1.00
C724   C     0.19332   0.49977   0.64807   0.00000  Uiso   1.00
C725   C     0.26356   0.52851   0.50627   0.00000  Uiso   1.00
C726   C     0.20988   0.50119   0.58987   0.00000  Uiso   1.00
C727   C     0.08211   0.47552   0.93663   0.00000  Uiso   1.00
C728   C     0.07748   0.45520   0.98434   0.00000  Uiso   1.00
C729   C     0.11440   0.45721   0.50633   0.00000  Uiso   1.00
C730   C     0.11548   0.42211   0.54396   0.00000  Uiso   1.00
C731   C     0.15609   0.50820   0.93754   0.00000  Uiso   1.00
C732   C     0.18645   0.49753   0.51074   0.00000  Uiso   1.00
C733   C     0.22824   0.52099   0.98283   0.00000  Uiso   1.00
C734   C     0.23155   0.54043   0.93488   0.00000  Uiso   1.00
C735   C     0.19398   0.53683   0.91505   0.00000  Uiso   1.00
C736   C     0.17693   0.49036   0.56504   0.00000  Uiso   1.00
C737   C     0.25466   0.51793   0.55984   0.00000  Uiso   1.00
H738   H     0.28062   0.52631   0.57880   0.00000  Uiso   1.00
H739   H     0.29633   0.54511   0.98450   0.00000  Uiso   1.00
H740   H     0.14160   0.48018   0.58977   0.00000  Uiso   1.00
H741   H     0.05623   0.46887   0.91688   0.00000  Uiso   1.00
H742   H     0.04760   0.43393   0.50073   0.00000  Uiso   1.00
H743   H     0.19540   0.55603   0.88093   0.00000  Uiso   1.00
H744   H     0.23006   0.62904   0.77391   0.00000  Uiso   1.00
H745   H     0.15224   0.41642   0.54486   0.00000  Uiso   1.00
H746   H     0.08979   0.42850   0.58498   0.00000  Uiso   1.00
H747   H     0.10454   0.39246   0.52974   0.00000  Uiso   1.00
H748   H     0.23015   0.37091   0.77373   0.00000  Uiso   1.00
H749   H     0.10313   0.37095   0.72642   0.00000  Uiso   1.00
H750   H     0.10306   0.62910   0.72658   0.00000  Uiso   1.00
H751   H     0.30805   0.44987   0.69479   0.00000  Uiso   1.00
H752   H     0.05901   0.44991   0.69475   0.00000  Uiso   1.00
H753   H     0.02530   0.55016   0.80516   0.00000  Uiso   1.00
H754   H     0.27454   0.55040   0.80473   0.00000  Uiso   1.00
H755   H     0.26149   0.56081   0.91474   0.00000  Uiso   1.00
N756   N     0.04760   0.50001   0.75002   0.00000  Uiso   1.00
N757   N     0.28573   0.49998   0.75001   0.00000  Uiso   1.00
O758   O     0.12846   0.56108   0.75001   0.00000  Uiso   1.00
O759   O     0.20490   0.56107   0.75001   0.00000  Uiso   1.00
O760   O     0.10947   0.50000   0.82681   0.00000  Uiso   1.00
O761   O     0.18591   0.49999   0.82681   0.00000  Uiso   1.00
O762   O     0.12843   0.43893   0.75000   0.00000  Uiso   1.00
O763   O     0.20488   0.43892   0.75000   0.00000  Uiso   1.00
O764   O     0.14742   0.50001   0.67319   0.00000  Uiso   1.00
O765   O     0.22387   0.50000   0.67319   0.00000  Uiso   1.00
Zn766  Zn    0.11562   0.50001   0.75000   0.00000  Uiso   1.00
Zn767  Zn    0.21771   0.49999   0.75000   0.00000  Uiso   1.00
C768   C     0.49997   0.58004   0.75009   0.00000  Uiso   1.00
C769   C     0.45705   0.49839   0.91058   0.00000  Uiso   1.00
C770   C     0.53576   0.64533   0.76328   0.00000  Uiso   1.00
C771   C     0.47338   0.50146   0.85206   0.00000  Uiso   1.00
C772   C     0.53581   0.35464   0.76319   0.00000  Uiso   1.00
C773   C     0.49999   0.37582   0.75006   0.00000  Uiso   1.00
C774   C     0.46411   0.35466   0.73704   0.00000  Uiso   1.00
C775   C     0.46407   0.64536   0.73713   0.00000  Uiso   1.00
C776   C     0.49992   0.62418   0.75020   0.00000  Uiso   1.00
C777   C     0.65205   0.47213   0.71934   0.00000  Uiso   1.00
C778   C     0.36668   0.47216   0.71932   0.00000  Uiso   1.00
C779   C     0.48547   0.48735   0.98590   0.00000  Uiso   1.00
C780   C     0.34796   0.52788   0.78064   0.00000  Uiso   1.00
C781   C     0.63338   0.52793   0.78052   0.00000  Uiso   1.00
C782   C     0.50000   0.41996   0.75000   0.00000  Uiso   1.00
C783   C     0.52665   0.49977   0.64807   0.00000  Uiso   1.00
C784   C     0.59690   0.52851   0.50627   0.00000  Uiso   1.00
C785   C     0.54321   0.50119   0.58987   0.00000  Uiso   1.00
C786   C     0.41544   0.47552   0.93663   0.00000  Uiso   1.00
C787   C     0.41081   0.45520   0.98434   0.00000  Uiso   1.00
C788   C     0.44773   0.45721   0.50633   0.00000  Uiso   1.00
C789   C     0.44881   0.42211   0.54396   0.00000  Uiso   1.00
C790   C     0.48942   0.50820   0.93754   0.00000  Uiso   1.00
C791   C     0.51978   0.49753   0.51074   0.00000  Uiso   1.00
C792   C     0.56158   0.52099   0.98283   0.00000  Uiso   1.00
C793   C     0.56488   0.54043   0.93488   0.00000  Uiso   1.00
C794   C     0.52731   0.53683   0.91505   0.00000  Uiso   1.00
C795   C     0.51027   0.49036   0.56504   0.00000  Uiso   1.00
C796   C     0.58799   0.51793   0.55984   0.00000  Uiso   1.00
H797   H     0.61395   0.52631   0.57880   0.00000  Uiso   1.00
H798   H     0.62967   0.54511   0.98450   0.00000  Uiso   1.00
H799   H     0.47493   0.48018   0.58977   0.00000  Uiso   1.00
H800   H     0.38956   0.46887   0.91688   0.00000  Uiso   1.00
H801   H     0.38093   0.43393   0.50073   0.00000  Uiso   1.00
H802   H     0.52873   0.55603   0.88093   0.00000  Uiso   1.00
H803   H     0.56340   0.62904   0.77391   0.00000  Uiso   1.00
H804   H     0.48558   0.41642   0.54486   0.00000  Uiso   1.00
H805   H     0.42313   0.42850   0.58498   0.00000  Uiso   1.00
H806   H     0.43788   0.39246   0.52974   0.00000  Uiso   1.00
H807   H     0.56349   0.37091   0.77373   0.00000  Uiso   1.00
H808   H     0.43647   0.37095   0.72642   0.00000  Uiso   1.00
H809   H     0.43639   0.62910   0.72658   0.00000  Uiso   1.00
H810   H     0.64138   0.44987   0.69479   0.00000  Uiso   1.00
H811   H     0.39234   0.44991   0.69475   0.00000  Uiso   1.00
H812   H     0.35863   0.55016   0.80516   0.00000  Uiso   1.00
H813   H     0.60787   0.55040   0.80473   0.00000  Uiso   1.00
H814   H     0.59482   0.56081   0.91474   0.00000  Uiso   1.00
N815   N     0.38093   0.50001   0.75002   0.00000  Uiso   1.00
N816   N     0.61906   0.49998   0.75001   0.00000  Uiso   1.00
O817   O     0.46179   0.56108   0.75001   0.00000  Uiso   1.00
O818   O     0.53823   0.56107   0.75001   0.00000  Uiso   1.00
O819   O     0.44280   0.50000   0.82681   0.00000  Uiso   1.00
O820   O     0.51924   0.49999   0.82681   0.00000  Uiso   1.00
O821   O     0.46177   0.43893   0.75000   0.00000  Uiso   1.00
O822   O     0.53821   0.43892   0.75000   0.00000  Uiso   1.00
O823   O     0.48076   0.50001   0.67319   0.00000  Uiso   1.00
O824   O     0.55720   0.50000   0.67319   0.00000  Uiso   1.00
Zn825  Zn    0.44896   0.50001   0.75000   0.00000  Uiso   1.00
Zn826  Zn    0.55104   0.49999   0.75000   0.00000  Uiso   1.00
C827   C     0.83331   0.58004   0.75009   0.00000  Uiso   1.00
C828   C     0.79038   0.49839   0.91058   0.00000  Uiso   1.00
C829   C     0.86909   0.64533   0.76328   0.00000  Uiso   1.00
C830   C     0.80671   0.50146   0.85206   0.00000  Uiso   1.00
C831   C     0.86914   0.35464   0.76319   0.00000  Uiso   1.00
C832   C     0.83332   0.37582   0.75006   0.00000  Uiso   1.00
C833   C     0.79745   0.35466   0.73704   0.00000  Uiso   1.00
C834   C     0.79740   0.64536   0.73713   0.00000  Uiso   1.00
C835   C     0.83325   0.62418   0.75020   0.00000  Uiso   1.00
C836   C     0.98538   0.47213   0.71934   0.00000  Uiso   1.00
C837   C     0.70001   0.47216   0.71932   0.00000  Uiso   1.00
C838   C     0.81881   0.48735   0.98590   0.00000  Uiso   1.00
C839   C     0.68129   0.52788   0.78064   0.00000  Uiso   1.00
C840   C     0.96672   0.52793   0.78052   0.00000  Uiso   1.00
C841   C     0.83333   0.41996   0.75000   0.00000  Uiso   1.00
C842   C     0.85998   0.49977   0.64807   0.00000  Uiso   1.00
C843   C     0.93023   0.52851   0.50627   0.00000  Uiso   1.00
C844   C     0.87655   0.50119   0.58987   0.00000  Uiso   1.00
C845   C     0.74878   0.47552   0.93663   0.00000  Uiso   1.00
C846   C     0.74414   0.45520   0.98434   0.00000  Uiso   1.00
C847   C     0.78107   0.45721   0.50633   0.00000  Uiso   1.00
C848   C     0.78214   0.42211   0.54396   0.00000  Uiso   1.00
C849   C     0.82276   0.50820   0.93754   0.00000  Uiso   1.00
C850   C     0.85311   0.49753   0.51074   0.00000  Uiso   1.00
C851   C     0.89491   0.52099   0.98283   0.00000  Uiso   1.00
C852   C     0.89821   0.54043   0.93488   0.00000  Uiso   1.00
C853   C     0.86065   0.53683   0.91505   0.00000  Uiso   1.00
C854   C     0.84360   0.49036   0.56504   0.00000  Uiso   1.00
C855   C     0.92132   0.51793   0.55984   0.00000  Uiso   1.00
H856   H     0.94729   0.52631   0.57880   0.00000  Uiso   1.00
H857   H     0.96300   0.54511   0.98450   0.00000  Uiso   1.00
H858   H     0.80827   0.48018   0.58977   0.00000  Uiso   1.00
H859   H     0.72289   0.46887   0.91688   0.00000  Uiso   1.00
H860   H     0.71426   0.43393   0.50073   0.00000  Uiso   1.00
H861   H     0.86206   0.55603   0.88093   0.00000  Uiso   1.00
H862   H     0.89673   0.62904   0.77391   0.00000  Uiso   1.00
H863   H     0.81891   0.41642   0.54486   0.00000  Uiso   1.00
H864   H     0.75646   0.42850   0.58498   0.00000  Uiso   1.00
H865   H     0.77121   0.39246   0.52974   0.00000  Uiso   1.00
H866   H     0.89682   0.37091   0.77373   0.00000  Uiso   1.00
H867   H     0.76980   0.37095   0.72642   0.00000  Uiso   1.00
H868   H     0.76972   0.62910   0.72658   0.00000  Uiso   1.00
H869   H     0.97471   0.44987   0.69479   0.00000  Uiso   1.00
H870   H     0.72568   0.44991   0.69475   0.00000  Uiso   1.00
H871   H     0.69196   0.55016   0.80516   0.00000  Uiso   1.00
H872   H     0.94121   0.55040   0.80473   0.00000  Uiso   1.00
H873   H     0.92815   0.56081   0.91474   0.00000  Uiso   1.00
N874   N     0.71426   0.50001   0.75002   0.00000  Uiso   1.00
N875   N     0.95239   0.49998   0.75001   0.00000  Uiso   1.00
O876   O     0.79512   0.56108   0.75001   0.00000  Uiso   1.00
O877   O     0.87157   0.56107   0.75001   0.00000  Uiso   1.00
O878   O     0.77613   0.50000   0.82681   0.00000  Uiso   1.00
O879   O     0.85258   0.49999   0.82681   0.00000  Uiso   1.00
O880   O     0.79510   0.43893   0.75000   0.00000  Uiso   1.00
O881   O     0.87154   0.43892   0.75000   0.00000  Uiso   1.00
O882   O     0.81409   0.50001   0.67319   0.00000  Uiso   1.00
O883   O     0.89053   0.50000   0.67319   0.00000  Uiso   1.00
Zn884  Zn    0.78229   0.50001   0.75000   0.00000  Uiso   1.00
Zn885  Zn    0.88438   0.49999   0.75000   0.00000  Uiso   1.00
C886   C     0.16664   0.91337   0.75009   0.00000  Uiso   1.00
C887   C     0.12371   0.83172   0.91058   0.00000  Uiso   1.00
C888   C     0.20243   0.97866   0.76328   0.00000  Uiso   1.00
C889   C     0.14004   0.83479   0.85206   0.00000  Uiso   1.00
C890   C     0.20247   0.68797   0.76319   0.00000  Uiso   1.00
C891   C     0.16666   0.70915   0.75006   0.00000  Uiso   1.00
C892   C     0.13078   0.68800   0.73704   0.00000  Uiso   1.00
C893   C     0.13074   0.97869   0.73713   0.00000  Uiso   1.00
C894   C     0.16659   0.95751   0.75020   0.00000  Uiso   1.00
C895   C     0.31871   0.80546   0.71934   0.00000  Uiso   1.00
C896   C     0.03335   0.80549   0.71932   0.00000  Uiso   1.00
C897   C     0.15214   0.82068   0.98590   0.00000  Uiso   1.00
C898   C     0.01463   0.86121   0.78064   0.00000  Uiso   1.00
C899   C     0.30005   0.86127   0.78052   0.00000  Uiso   1.00
C900   C     0.16666   0.75330   0.75000   0.00000  Uiso   1.00
C901   C     0.19332   0.83310   0.64807   0.00000  Uiso   1.00
C902   C     0.26356   0.86184   0.50627   0.00000  Uiso   1.00
C903   C     0.20988   0.83452   0.58987   0.00000  Uiso   1.00
C904   C     0.08211   0.80885   0.93663   0.00000  Uiso   1.00
C905   C     0.07748   0.78853   0.98434   0.00000  Uiso   1.00
C906   C     0.11440   0.79055   0.50633   0.00000  Uiso   1.00
C907   C     0.11548   0.75544   0.54396   0.00000  Uiso   1.00
C908   C     0.15609   0.84154   0.93754   0.00000  Uiso   1.00
C909   C     0.18645   0.83086   0.51074   0.00000  Uiso   1.00
C910   C     0.22824   0.85432   0.98283   0.00000  Uiso   1.00
C911   C     0.23155   0.87377   0.93488   0.00000  Uiso   1.00
C912   C     0.19398   0.87017   0.91505   0.00000  Uiso   1.00
C913   C     0.17693   0.82369   0.56504   0.00000  Uiso   1.00
C914   C     0.25466   0.85127   0.55984   0.00000  Uiso   1.00
H915   H     0.28062   0.85964   0.57880   0.00000  Uiso   1.00
H916   H     0.29633   0.87844   0.98450   0.00000  Uiso   1.00
H917   H     0.14160   0.81351   0.58977   0.00000  Uiso   1.00
H918   H     0.05623   0.80220   0.91688   0.00000  Uiso   1.00
H919   H     0.04760   0.76726   0.50073   0.00000  Uiso   1.00
H920   H     0.19540   0.88937   0.88093   0.00000  Uiso   1.00
H921   H     0.23006   0.96237   0.77391   0.00000  Uiso   1.00
H922   H     0.15224   0.74975   0.54486   0.00000  Uiso   1.00
H923   H     0.08979   0.76184   0.58498   0.00000  Uiso   1.00
H924   H     0.10454   0.72580   0.52974   0.00000  Uiso   1.00
H925   H     0.23015   0.70424   0.77373   0.00000  Uiso   1.00
H926   H     0.10313   0.70428   0.72642   0.00000  Uiso   1.00
H927   H     0.10306   0.96243   0.72658   0.00000  Uiso   1.00
H928   H     0.30805   0.78321   0.69479   0.00000  Uiso   1.00
H929   H     0.05901   0.78324   0.69475   0.00000  Uiso   1.00
H930   H     0.02530   0.88350   0.80516   0.00000  Uiso   1.00
H931   H     0.27454   0.88373   0.80473   0.00000  Uiso   1.00
H932   H     0.26149   0.89414   0.91474   0.00000  Uiso   1.00
N933   N     0.04760   0.83334   0.75002   0.00000  Uiso   1.00
N934   N     0.28573   0.83331   0.75001   0.00000  Uiso   1.00
O935   O     0.12846   0.89442   0.75001   0.00000  Uiso   1.00
O936   O     0.20490   0.89441   0.75001   0.00000  Uiso   1.00
O937   O     0.10947   0.83333   0.82681   0.00000  Uiso   1.00
O938   O     0.18591   0.83332   0.82681   0.00000  Uiso   1.00
O939   O     0.12843   0.77226   0.75000   0.00000  Uiso   1.00
O940   O     0.20488   0.77225   0.75000   0.00000  Uiso   1.00
O941   O     0.14742   0.83335   0.67319   0.00000  Uiso   1.00
O942   O     0.22387   0.83334   0.67319   0.00000  Uiso   1.00
Zn943  Zn    0.11562   0.83334   0.75000   0.00000  Uiso   1.00
Zn944  Zn    0.21771   0.83333   0.75000   0.00000  Uiso   1.00
C945   C     0.49997   0.91337   0.75009   0.00000  Uiso   1.00
C946   C     0.45705   0.83172   0.91058   0.00000  Uiso   1.00
C947   C     0.53576   0.97866   0.76328   0.00000  Uiso   1.00
C948   C     0.47338   0.83479   0.85206   0.00000  Uiso   1.00
C949   C     0.53581   0.68797   0.76319   0.00000  Uiso   1.00
C950   C     0.49999   0.70915   0.75006   0.00000  Uiso   1.00
C951   C     0.46411   0.68800   0.73704   0.00000  Uiso   1.00
C952   C     0.46407   0.97869   0.73713   0.00000  Uiso   1.00
C953   C     0.49992   0.95751   0.75020   0.00000  Uiso   1.00
C954   C     0.65205   0.80546   0.71934   0.00000  Uiso   1.00
C955   C     0.36668   0.80549   0.71932   0.00000  Uiso   1.00
C956   C     0.48547   0.82068   0.98590   0.00000  Uiso   1.00
C957   C     0.34796   0.86121   0.78064   0.00000  Uiso   1.00
C958   C     0.63338   0.86127   0.78052   0.00000  Uiso   1.00
C959   C     0.50000   0.75330   0.75000   0.00000  Uiso   1.00
C960   C     0.52665   0.83310   0.64807   0.00000  Uiso   1.00
C961   C     0.59690   0.86184   0.50627   0.00000  Uiso   1.00
C962   C     0.54321   0.83452   0.58987   0.00000  Uiso   1.00
C963   C     0.41544   0.80885   0.93663   0.00000  Uiso   1.00
C964   C     0.41081   0.78853   0.98434   0.00000  Uiso   1.00
C965   C     0.44773   0.79055   0.50633   0.00000  Uiso   1.00
C966   C     0.44881   0.75544   0.54396   0.00000  Uiso   1.00
C967   C     0.48942   0.84154   0.93754   0.00000  Uiso   1.00
C968   C     0.51978   0.83086   0.51074   0.00000  Uiso   1.00
C969   C     0.56158   0.85432   0.98283   0.00000  Uiso   1.00
C970   C     0.56488   0.87377   0.93488   0.00000  Uiso   1.00
C971   C     0.52731   0.87017   0.91505   0.00000  Uiso   1.00
C972   C     0.51027   0.82369   0.56504   0.00000  Uiso   1.00
C973   C     0.58799   0.85127   0.55984   0.00000  Uiso   1.00
H974   H     0.61395   0.85964   0.57880   0.00000  Uiso   1.00
H975   H     0.62967   0.87844   0.98450   0.00000  Uiso   1.00
H976   H     0.47493   0.81351   0.58977   0.00000  Uiso   1.00
H977   H     0.38956   0.80220   0.91688   0.00000  Uiso   1.00
H978   H     0.38093   0.76726   0.50073   0.00000  Uiso   1.00
H979   H     0.52873   0.88937   0.88093   0.00000  Uiso   1.00
H980   H     0.56340   0.96237   0.77391   0.00000  Uiso   1.00
H981   H     0.48558   0.74975   0.54486   0.00000  Uiso   1.00
H982   H     0.42313   0.76184   0.58498   0.00000  Uiso   1.00
H983   H     0.43788   0.72580   0.52974   0.00000  Uiso   1.00
H984   H     0.56349   0.70424   0.77373   0.00000  Uiso   1.00
H985   H     0.43647   0.70428   0.72642   0.00000  Uiso   1.00
H986   H     0.43639   0.96243   0.72658   0.00000  Uiso   1.00
H987   H     0.64138   0.78321   0.69479   0.00000  Uiso   1.00
H988   H     0.39234   0.78324   0.69475   0.00000  Uiso   1.00
H989   H     0.35863   0.88350   0.80516   0.00000  Uiso   1.00
H990   H     0.60787   0.88373   0.80473   0.00000  Uiso   1.00
H991   H     0.59482   0.89414   0.91474   0.00000  Uiso   1.00
N992   N     0.38093   0.83334   0.75002   0.00000  Uiso   1.00
N993   N     0.61906   0.83331   0.75001   0.00000  Uiso   1.00
O994   O     0.46179   0.89442   0.75001   0.00000  Uiso   1.00
O995   O     0.53823   0.89441   0.75001   0.00000  Uiso   1.00
O996   O     0.44280   0.83333   0.82681   0.00000  Uiso   1.00
O997   O     0.51924   0.83332   0.82681   0.00000  Uiso   1.00
O998   O     0.46177   0.77226   0.75000   0.00000  Uiso   1.00
O999   O     0.53821   0.77225   0.75000   0.00000  Uiso   1.00
O1000  O     0.48076   0.83335   0.67319   0.00000  Uiso   1.00
O1001  O     0.55720   0.83334   0.67319   0.00000  Uiso   1.00
Zn1002 Zn    0.44896   0.83334   0.75000   0.00000  Uiso   1.00
Zn1003 Zn    0.55104   0.83333   0.75000   0.00000  Uiso   1.00
C1004  C     0.83331   0.91337   0.75009   0.00000  Uiso   1.00
C1005  C     0.79038   0.83172   0.91058   0.00000  Uiso   1.00
C1006  C     0.86909   0.97866   0.76328   0.00000  Uiso   1.00
C1007  C     0.80671   0.83479   0.85206   0.00000  Uiso   1.00
C1008  C     0.86914   0.68797   0.76319   0.00000  Uiso   1.00
C1009  C     0.83332   0.70915   0.75006   0.00000  Uiso   1.00
C1010  C     0.79745   0.68800   0.73704   0.00000  Uiso   1.00
C1011  C     0.79740   0.97869   0.73713   0.00000  Uiso   1.00
C1012  C     0.83325   0.95751   0.75020   0.00000  Uiso   1.00
C1013  C     0.98538   0.80546   0.71934   0.00000  Uiso   1.00
C1014  C     0.70001   0.80549   0.71932   0.00000  Uiso   1.00
C1015  C     0.81881   0.82068   0.98590   0.00000  Uiso   1.00
C1016  C     0.68129   0.86121   0.78064   0.00000  Uiso   1.00
C1017  C     0.96672   0.86127   0.78052   0.00000  Uiso   1.00
C1018  C     0.83333   0.75330   0.75000   0.00000  Uiso   1.00
C1019  C     0.85998   0.83310   0.64807   0.00000  Uiso   1.00
C1020  C     0.93023   0.86184   0.50627   0.00000  Uiso   1.00
C1021  C     0.87655   0.83452   0.58987   0.00000  Uiso   1.00
C1022  C     0.74878   0.80885   0.93663   0.00000  Uiso   1.00
C1023  C     0.74414   0.78853   0.98434   0.00000  Uiso   1.00
C1024  C     0.78107   0.79055   0.50633   0.00000  Uiso   1.00
C1025  C     0.78214   0.75544   0.54396   0.00000  Uiso   1.00
C1026  C     0.82276   0.84154   0.93754   0.00000  Uiso   1.00
C1027  C     0.85311   0.83086   0.51074   0.00000  Uiso   1.00
C1028  C     0.89491   0.85432   0.98283   0.00000  Uiso   1.00
C1029  C     0.89821   0.87377   0.93488   0.00000  Uiso   1.00
C1030  C     0.86065   0.87017   0.91505   0.00000  Uiso   1.00
C1031  C     0.84360   0.82369   0.56504   0.00000  Uiso   1.00
C1032  C     0.92132   0.85127   0.55984   0.00000  Uiso   1.00
H1033  H     0.94729   0.85964   0.57880   0.00000  Uiso   1.00
H1034  H     0.96300   0.87844   0.98450   0.00000  Uiso   1.00
H1035  H     0.80827   0.81351   0.58977   0.00000  Uiso   1.00
H1036  H     0.72289   0.80220   0.91688   0.00000  Uiso   1.00
H1037  H     0.71426   0.76726   0.50073   0.00000  Uiso   1.00
H1038  H     0.86206   0.88937   0.88093   0.00000  Uiso   1.00
H1039  H     0.89673   0.96237   0.77391   0.00000  Uiso   1.00
H1040  H     0.81891   0.74975   0.54486   0.00000  Uiso   1.00
H1041  H     0.75646   0.76184   0.58498   0.00000  Uiso   1.00
H1042  H     0.77121   0.72580   0.52974   0.00000  Uiso   1.00
H1043  H     0.89682   0.70424   0.77373   0.00000  Uiso   1.00
H1044  H     0.76980   0.70428   0.72642   0.00000  Uiso   1.00
H1045  H     0.76972   0.96243   0.72658   0.00000  Uiso   1.00
H1046  H     0.97471   0.78321   0.69479   0.00000  Uiso   1.00
H1047  H     0.72568   0.78324   0.69475   0.00000  Uiso   1.00
H1048  H     0.69196   0.88350   0.80516   0.00000  Uiso   1.00
H1049  H     0.94121   0.88373   0.80473   0.00000  Uiso   1.00
H1050  H     0.92815   0.89414   0.91474   0.00000  Uiso   1.00
N1051  N     0.71426   0.83334   0.75002   0.00000  Uiso   1.00
N1052  N     0.95239   0.83331   0.75001   0.00000  Uiso   1.00
O1053  O     0.79512   0.89442   0.75001   0.00000  Uiso   1.00
O1054  O     0.87157   0.89441   0.75001   0.00000  Uiso   1.00
O1055  O     0.77613   0.83333   0.82681   0.00000  Uiso   1.00
O1056  O     0.85258   0.83332   0.82681   0.00000  Uiso   1.00
O1057  O     0.79510   0.77226   0.75000   0.00000  Uiso   1.00
O1058  O     0.87154   0.77225   0.75000   0.00000  Uiso   1.00
O1059  O     0.81409   0.83335   0.67319   0.00000  Uiso   1.00
O1060  O     0.89053   0.83334   0.67319   0.00000  Uiso   1.00
Zn1061 Zn    0.78229   0.83334   0.75000   0.00000  Uiso   1.00
Zn1062 Zn    0.88438   0.83333   0.75000   0.00000  Uiso   1.00
loop_
_geom_bond_atom_site_label_1
_geom_bond_atom_site_label_2
_geom_bond_distance
_geom_bond_site_symmetry_2
_ccdc_geom_bond_type
C1     O50     1.283   .     A
C1     O51     1.282   .     A
C1     C9      1.418   .     S
C2     C4      1.459   .     S
C2     C23     1.409   .     A
C2     C19     1.397   .     A
C3     C9      1.397   .     A
C3     H36     1.084   .     S
C3     C182    1.370   .     S
C4     O53     1.291   .     A
C4     O52     1.293   .     A
C5     C6      1.397   .     A
C5     H40     1.084   .     S
C5     C357    1.370   1_545 S
C6     C7      1.397   .     A
C6     C15     1.419   .     S
C7     H41     1.084   .     S
C7     C362    1.370   1_545 S
C8     H42     1.084   .     S
C8     C9      1.397   .     A
C8     C184    1.370   .     S
C10    N49     1.366   .     A
C10    H43     1.082   .     S
C10    C70     1.416   .     S
C11    N48     1.367   .     A
C11    H44     1.082   .     S
C11    C128    1.416   1_455 S
C12    C23     1.414   .     A
C12    C552    1.437   .     S
C12    C555    1.420   .     S
C13    N48     1.366   .     A
C13    H45     1.082   .     S
C13    C132    1.416   1_455 S
C14    H46     1.081   .     S
C14    N49     1.367   .     A
C14    C72     1.416   .     S
C15    O55     1.283   .     A
C15    O54     1.282   .     A
C16    O56     1.290   .     A
C16    O57     1.289   .     A
C16    C18     1.448   .     S
C17    C29     1.392   .     A
C17    C556    1.404   1_554 S
C17    H562    1.084   1_554 S
C18    C29     1.399   .     A
C18    C28     1.390   .     A
C19    C20     1.386   .     A
C19    H33     1.084   .     S
C20    C552    1.401   .     S
C20    H565    1.084   .     S
C21    C22     1.512   .     S
C21    C543    1.437   1_554 S
C21    C551    1.401   1_554 S
C22    H39     1.111   .     S
C22    H37     1.109   .     S
C22    H38     1.110   .     S
C23    C27     1.415   .     A
C24    C28     1.386   .     A
C24    C543    1.420   1_554 S
C24    C556    1.421   1_554 S
C25    C26     1.388   .     A
C25    C548    1.404   .     S
C25    C555    1.421   .     S
C26    C27     1.384   .     A
C26    H47     1.084   .     S
C27    H35     1.083   .     S
C28    H32     1.077   .     S
C29    H30     1.083   .     S
H31    C548    1.084   .     S
H34    C551    1.084   1_554 S
N48    Zn58    2.009   .     S
N49    Zn59    2.009   .     S
O50    Zn58    1.999   .     S
O51    Zn59    1.998   .     S
O52    Zn58    1.976   .     S
O53    Zn59    1.926   .     S
O54    Zn58    1.998   .     S
O55    Zn59    1.999   .     S
O56    Zn58    1.926   .     S
O57    Zn59    1.976   .     S
C60    O109    1.283   .     A
C60    O110    1.282   .     A
C60    C68     1.418   .     S
C61    C63     1.459   .     S
C61    C82     1.409   .     A
C61    C78     1.397   .     A
C62    C68     1.397   .     A
C62    H95     1.084   .     S
C62    C241    1.370   .     S
C63    O112    1.291   .     A
C63    O111    1.293   .     A
C64    C65     1.397   .     A
C64    H99     1.084   .     S
C64    C416    1.370   1_545 S
C65    C66     1.397   .     A
C65    C74     1.419   .     S
C66    H100    1.084   .     S
C66    C421    1.370   1_545 S
C67    H101    1.084   .     S
C67    C68     1.397   .     A
C67    C243    1.370   .     S
C69    N108    1.366   .     A
C69    H102    1.082   .     S
C69    C129    1.416   .     S
C70    N107    1.367   .     A
C70    H103    1.082   .     S
C71    C82     1.414   .     A
C71    C611    1.437   .     S
C71    C614    1.420   .     S
C72    N107    1.366   .     A
C72    H104    1.082   .     S
C73    H105    1.081   .     S
C73    N108    1.367   .     A
C73    C131    1.416   .     S
C74    O114    1.283   .     A
C74    O113    1.282   .     A
C75    O115    1.290   .     A
C75    O116    1.289   .     A
C75    C77     1.448   .     S
C76    C88     1.392   .     A
C76    C615    1.404   1_554 S
C76    H621    1.084   1_554 S
C77    C88     1.399   .     A
C77    C87     1.390   .     A
C78    C79     1.386   .     A
C78    H92     1.084   .     S
C79    C611    1.401   .     S
C79    H624    1.084   .     S
C80    C81     1.512   .     S
C80    C602    1.437   1_554 S
C80    C610    1.401   1_554 S
C81    H98     1.111   .     S
C81    H96     1.109   .     S
C81    H97     1.110   .     S
C82    C86     1.415   .     A
C83    C87     1.386   .     A
C83    C602    1.420   1_554 S
C83    C615    1.421   1_554 S
C84    C85     1.388   .     A
C84    C607    1.404   .     S
C84    C614    1.421   .     S
C85    C86     1.384   .     A
C85    H106    1.084   .     S
C86    H94     1.083   .     S
C87    H91     1.077   .     S
C88    H89     1.083   .     S
H90    C607    1.084   .     S
H93    C610    1.084   1_554 S
N107   Zn117   2.009   .     S
N108   Zn118   2.009   .     S
O109   Zn117   1.999   .     S
O110   Zn118   1.998   .     S
O111   Zn117   1.976   .     S
O112   Zn118   1.926   .     S
O113   Zn117   1.998   .     S
O114   Zn118   1.999   .     S
O115   Zn117   1.926   .     S
O116   Zn118   1.976   .     S
C119   O168    1.283   .     A
C119   O169    1.282   .     A
C119   C127    1.418   .     S
C120   C122    1.459   .     S
C120   C141    1.409   .     A
C120   C137    1.397   .     A
C121   C127    1.397   .     A
C121   H154    1.084   .     S
C121   C300    1.370   .     S
C122   O171    1.291   .     A
C122   O170    1.293   .     A
C123   C124    1.397   .     A
C123   H158    1.084   .     S
C123   C475    1.370   1_545 S
C124   C125    1.397   .     A
C124   C133    1.419   .     S
C125   H159    1.084   .     S
C125   C480    1.370   1_545 S
C126   H160    1.084   .     S
C126   C127    1.397   .     A
C126   C302    1.370   .     S
C128   N167    1.366   .     A
C128   H161    1.082   .     S
C128   C11     1.416   1_655 S
C129   N166    1.367   .     A
C129   H162    1.082   .     S
C130   C141    1.414   .     A
C130   C670    1.437   .     S
C130   C673    1.420   .     S
C131   N166    1.366   .     A
C131   H163    1.082   .     S
C132   H164    1.081   .     S
C132   N167    1.367   .     A
C132   C13     1.416   1_655 S
C133   O173    1.283   .     A
C133   O172    1.282   .     A
C134   O174    1.290   .     A
C134   O175    1.289   .     A
C134   C136    1.448   .     S
C135   C147    1.392   .     A
C135   C674    1.404   1_554 S
C135   H680    1.084   1_554 S
C136   C147    1.399   .     A
C136   C146    1.390   .     A
C137   C138    1.386   .     A
C137   H151    1.084   .     S
C138   C670    1.401   .     S
C138   H683    1.084   .     S
C139   C140    1.512   .     S
C139   C661    1.437   1_554 S
C139   C669    1.401   1_554 S
C140   H157    1.111   .     S
C140   H155    1.109   .     S
C140   H156    1.110   .     S
C141   C145    1.415   .     A
C142   C146    1.386   .     A
C142   C661    1.420   1_554 S
C142   C674    1.421   1_554 S
C143   C144    1.388   .     A
C143   C666    1.404   .     S
C143   C673    1.421   .     S
C144   C145    1.384   .     A
C144   H165    1.084   .     S
C145   H153    1.083   .     S
C146   H150    1.077   .     S
C147   H148    1.083   .     S
H149   C666    1.084   .     S
H152   C669    1.084   1_554 S
N166   Zn176   2.009   .     S
N167   Zn177   2.009   .     S
O168   Zn176   1.999   .     S
O169   Zn177   1.998   .     S
O170   Zn176   1.976   .     S
O171   Zn177   1.926   .     S
O172   Zn176   1.998   .     S
O173   Zn177   1.999   .     S
O174   Zn176   1.926   .     S
O175   Zn177   1.976   .     S
C178   O227    1.283   .     A
C178   O228    1.282   .     A
C178   C186    1.418   .     S
C179   C181    1.459   .     S
C179   C200    1.409   .     A
C179   C196    1.397   .     A
C180   C186    1.397   .     A
C180   H213    1.084   .     S
C180   C359    1.370   .     S
C181   O230    1.291   .     A
C181   O229    1.293   .     A
C182   C183    1.397   .     A
C182   H217    1.084   .     S
C183   C184    1.397   .     A
C183   C192    1.419   .     S
C184   H218    1.084   .     S
C185   H219    1.084   .     S
C185   C186    1.397   .     A
C185   C361    1.370   .     S
C187   N226    1.366   .     A
C187   H220    1.082   .     S
C187   C247    1.416   .     S
C188   N225    1.367   .     A
C188   H221    1.082   .     S
C188   C305    1.416   1_455 S
C189   C200    1.414   .     A
C189   C729    1.437   .     S
C189   C732    1.420   .     S
C190   N225    1.366   .     A
C190   H222    1.082   .     S
C190   C309    1.416   1_455 S
C191   H223    1.081   .     S
C191   N226    1.367   .     A
C191   C249    1.416   .     S
C192   O232    1.283   .     A
C192   O231    1.282   .     A
C193   O233    1.290   .     A
C193   O234    1.289   .     A
C193   C195    1.448   .     S
C194   C206    1.392   .     A
C194   C733    1.404   1_554 S
C194   H739    1.084   1_554 S
C195   C206    1.399   .     A
C195   C205    1.390   .     A
C196   C197    1.386   .     A
C196   H210    1.084   .     S
C197   C729    1.401   .     S
C197   H742    1.084   .     S
C198   C199    1.512   .     S
C198   C720    1.437   1_554 S
C198   C728    1.401   1_554 S
C199   H216    1.111   .     S
C199   H214    1.109   .     S
C199   H215    1.110   .     S
C200   C204    1.415   .     A
C201   C205    1.386   .     A
C201   C720    1.420   1_554 S
C201   C733    1.421   1_554 S
C202   C203    1.388   .     A
C202   C725    1.404   .     S
C202   C732    1.421   .     S
C203   C204    1.384   .     A
C203   H224    1.084   .     S
C204   H212    1.083   .     S
C205   H209    1.077   .     S
C206   H207    1.083   .     S
H208   C725    1.084   .     S
H211   C728    1.084   1_554 S
N225   Zn235   2.009   .     S
N226   Zn236   2.009   .     S
O227   Zn235   1.999   .     S
O228   Zn236   1.998   .     S
O229   Zn235   1.976   .     S
O230   Zn236   1.926   .     S
O231   Zn235   1.998   .     S
O232   Zn236   1.999   .     S
O233   Zn235   1.926   .     S
O234   Zn236   1.976   .     S
C237   O286    1.283   .     A
C237   O287    1.282   .     A
C237   C245    1.418   .     S
C238   C240    1.459   .     S
C238   C259    1.409   .     A
C238   C255    1.397   .     A
C239   C245    1.397   .     A
C239   H272    1.084   .     S
C239   C418    1.370   .     S
C240   O289    1.291   .     A
C240   O288    1.293   .     A
C241   C242    1.397   .     A
C241   H276    1.084   .     S
C242   C243    1.397   .     A
C242   C251    1.419   .     S
C243   H277    1.084   .     S
C244   H278    1.084   .     S
C244   C245    1.397   .     A
C244   C420    1.370   .     S
C246   N285    1.366   .     A
C246   H279    1.082   .     S
C246   C306    1.416   .     S
C247   N284    1.367   .     A
C247   H280    1.082   .     S
C248   C259    1.414   .     A
C248   C788    1.437   .     S
C248   C791    1.420   .     S
C249   N284    1.366   .     A
C249   H281    1.082   .     S
C250   H282    1.081   .     S
C250   N285    1.367   .     A
C250   C308    1.416   .     S
C251   O291    1.283   .     A
C251   O290    1.282   .     A
C252   O292    1.290   .     A
C252   O293    1.289   .     A
C252   C254    1.448   .     S
C253   C265    1.392   .     A
C253   C792    1.404   1_554 S
C253   H798    1.084   1_554 S
C254   C265    1.399   .     A
C254   C264    1.390   .     A
C255   C256    1.386   .     A
C255   H269    1.084   .     S
C256   C788    1.401   .     S
C256   H801    1.084   .     S
C257   C258    1.512   .     S
C257   C779    1.437   1_554 S
C257   C787    1.401   1_554 S
C258   H275    1.111   .     S
C258   H273    1.109   .     S
C258   H274    1.110   .     S
C259   C263    1.415   .     A
C260   C264    1.386   .     A
C260   C779    1.420   1_554 S
C260   C792    1.421   1_554 S
C261   C262    1.388   .     A
C261   C784    1.404   .     S
C261   C791    1.421   .     S
C262   C263    1.384   .     A
C262   H283    1.084   .     S
C263   H271    1.083   .     S
C264   H268    1.077   .     S
C265   H266    1.083   .     S
H267   C784    1.084   .     S
H270   C787    1.084   1_554 S
N284   Zn294   2.009   .     S
N285   Zn295   2.009   .     S
O286   Zn294   1.999   .     S
O287   Zn295   1.998   .     S
O288   Zn294   1.976   .     S
O289   Zn295   1.926   .     S
O290   Zn294   1.998   .     S
O291   Zn295   1.999   .     S
O292   Zn294   1.926   .     S
O293   Zn295   1.976   .     S
C296   O345    1.283   .     A
C296   O346    1.282   .     A
C296   C304    1.418   .     S
C297   C299    1.459   .     S
C297   C318    1.409   .     A
C297   C314    1.397   .     A
C298   C304    1.397   .     A
C298   H331    1.084   .     S
C298   C477    1.370   .     S
C299   O348    1.291   .     A
C299   O347    1.293   .     A
C300   C301    1.397   .     A
C300   H335    1.084   .     S
C301   C302    1.397   .     A
C301   C310    1.419   .     S
C302   H336    1.084   .     S
C303   H337    1.084   .     S
C303   C304    1.397   .     A
C303   C479    1.370   .     S
C305   N344    1.366   .     A
C305   H338    1.082   .     S
C305   C188    1.416   1_655 S
C306   N343    1.367   .     A
C306   H339    1.082   .     S
C307   C318    1.414   .     A
C307   C847    1.437   .     S
C307   C850    1.420   .     S
C308   N343    1.366   .     A
C308   H340    1.082   .     S
C309   H341    1.081   .     S
C309   N344    1.367   .     A
C309   C190    1.416   1_655 S
C310   O350    1.283   .     A
C310   O349    1.282   .     A
C311   O351    1.290   .     A
C311   O352    1.289   .     A
C311   C313    1.448   .     S
C312   C324    1.392   .     A
C312   C851    1.404   1_554 S
C312   H857    1.084   1_554 S
C313   C324    1.399   .     A
C313   C323    1.390   .     A
C314   C315    1.386   .     A
C314   H328    1.084   .     S
C315   C847    1.401   .     S
C315   H860    1.084   .     S
C316   C317    1.512   .     S
C316   C838    1.437   1_554 S
C316   C846    1.401   1_554 S
C317   H334    1.111   .     S
C317   H332    1.109   .     S
C317   H333    1.110   .     S
C318   C322    1.415   .     A
C319   C323    1.386   .     A
C319   C838    1.420   1_554 S
C319   C851    1.421   1_554 S
C320   C321    1.388   .     A
C320   C843    1.404   .     S
C320   C850    1.421   .     S
C321   C322    1.384   .     A
C321   H342    1.084   .     S
C322   H330    1.083   .     S
C323   H327    1.077   .     S
C324   H325    1.083   .     S
H326   C843    1.084   .     S
H329   C846    1.084   1_554 S
N343   Zn353   2.009   .     S
N344   Zn354   2.009   .     S
O345   Zn353   1.999   .     S
O346   Zn354   1.998   .     S
O347   Zn353   1.976   .     S
O348   Zn354   1.926   .     S
O349   Zn353   1.998   .     S
O350   Zn354   1.999   .     S
O351   Zn353   1.926   .     S
O352   Zn354   1.976   .     S
C355   O404    1.283   .     A
C355   O405    1.282   .     A
C355   C363    1.418   .     S
C356   C358    1.459   .     S
C356   C377    1.409   .     A
C356   C373    1.397   .     A
C357   C363    1.397   .     A
C357   H390    1.084   .     S
C357   C5      1.370   1_565 S
C358   O407    1.291   .     A
C358   O406    1.293   .     A
C359   C360    1.397   .     A
C359   H394    1.084   .     S
C360   C361    1.397   .     A
C360   C369    1.419   .     S
C361   H395    1.084   .     S
C362   H396    1.084   .     S
C362   C363    1.397   .     A
C362   C7      1.370   1_565 S
C364   N403    1.366   .     A
C364   H397    1.082   .     S
C364   C424    1.416   .     S
C365   N402    1.367   .     A
C365   H398    1.082   .     S
C365   C482    1.416   1_455 S
C366   C377    1.414   .     A
C366   C906    1.437   .     S
C366   C909    1.420   .     S
C367   N402    1.366   .     A
C367   H399    1.082   .     S
C367   C486    1.416   1_455 S
C368   H400    1.081   .     S
C368   N403    1.367   .     A
C368   C426    1.416   .     S
C369   O409    1.283   .     A
C369   O408    1.282   .     A
C370   O410    1.290   .     A
C370   O411    1.289   .     A
C370   C372    1.448   .     S
C371   C383    1.392   .     A
C371   C910    1.404   1_554 S
C371   H916    1.084   1_554 S
C372   C383    1.399   .     A
C372   C382    1.390   .     A
C373   C374    1.386   .     A
C373   H387    1.084   .     S
C374   C906    1.401   .     S
C374   H919    1.084   .     S
C375   C376    1.512   .     S
C375   C897    1.437   1_554 S
C375   C905    1.401   1_554 S
C376   H393    1.111   .     S
C376   H391    1.109   .     S
C376   H392    1.110   .     S
C377   C381    1.415   .     A
C378   C382    1.386   .     A
C378   C897    1.420   1_554 S
C378   C910    1.421   1_554 S
C379   C380    1.388   .     A
C379   C902    1.404   .     S
C379   C909    1.421   .     S
C380   C381    1.384   .     A
C380   H401    1.084   .     S
C381   H389    1.083   .     S
C382   H386    1.077   .     S
C383   H384    1.083   .     S
H385   C902    1.084   .     S
H388   C905    1.084   1_554 S
N402   Zn412   2.009   .     S
N403   Zn413   2.009   .     S
O404   Zn412   1.999   .     S
O405   Zn413   1.998   .     S
O406   Zn412   1.976   .     S
O407   Zn413   1.926   .     S
O408   Zn412   1.998   .     S
O409   Zn413   1.999   .     S
O410   Zn412   1.926   .     S
O411   Zn413   1.976   .     S
C414   O463    1.283   .     A
C414   O464    1.282   .     A
C414   C422    1.418   .     S
C415   C417    1.459   .     S
C415   C436    1.409   .     A
C415   C432    1.397   .     A
C416   C422    1.397   .     A
C416   H449    1.084   .     S
C416   C64     1.370   1_565 S
C417   O466    1.291   .     A
C417   O465    1.293   .     A
C418   C419    1.397   .     A
C418   H453    1.084   .     S
C419   C420    1.397   .     A
C419   C428    1.419   .     S
C420   H454    1.084   .     S
C421   H455    1.084   .     S
C421   C422    1.397   .     A
C421   C66     1.370   1_565 S
C423   N462    1.366   .     A
C423   H456    1.082   .     S
C423   C483    1.416   .     S
C424   N461    1.367   .     A
C424   H457    1.082   .     S
C425   C436    1.414   .     A
C425   C965    1.437   .     S
C425   C968    1.420   .     S
C426   N461    1.366   .     A
C426   H458    1.082   .     S
C427   H459    1.081   .     S
C427   N462    1.367   .     A
C427   C485    1.416   .     S
C428   O468    1.283   .     A
C428   O467    1.282   .     A
C429   O469    1.290   .     A
C429   O470    1.289   .     A
C429   C431    1.448   .     S
C430   C442    1.392   .     A
C430   C969    1.404   1_554 S
C430   H975    1.084   1_554 S
C431   C442    1.399   .     A
C431   C441    1.390   .     A
C432   C433    1.386   .     A
C432   H446    1.084   .     S
C433   C965    1.401   .     S
C433   H978    1.084   .     S
C434   C435    1.512   .     S
C434   C956    1.437   1_554 S
C434   C964    1.401   1_554 S
C435   H452    1.111   .     S
C435   H450    1.109   .     S
C435   H451    1.110   .     S
C436   C440    1.415   .     A
C437   C441    1.386   .     A
C437   C956    1.420   1_554 S
C437   C969    1.421   1_554 S
C438   C439    1.388   .     A
C438   C961    1.404   .     S
C438   C968    1.421   .     S
C439   C440    1.384   .     A
C439   H460    1.084   .     S
C440   H448    1.083   .     S
C441   H445    1.077   .     S
C442   H443    1.083   .     S
H444   C961    1.084   .     S
H447   C964    1.084   1_554 S
N461   Zn471   2.009   .     S
N462   Zn472   2.009   .     S
O463   Zn471   1.999   .     S
O464   Zn472   1.998   .     S
O465   Zn471   1.976   .     S
O466   Zn472   1.926   .     S
O467   Zn471   1.998   .     S
O468   Zn472   1.999   .     S
O469   Zn471   1.926   .     S
O470   Zn472   1.976   .     S
C473   O522    1.283   .     A
C473   O523    1.282   .     A
C473   C481    1.418   .     S
C474   C476    1.459   .     S
C474   C495    1.409   .     A
C474   C491    1.397   .     A
C475   C481    1.397   .     A
C475   H508    1.084   .     S
C475   C123    1.370   1_565 S
C476   O525    1.291   .     A
C476   O524    1.293   .     A
C477   C478    1.397   .     A
C477   H512    1.084   .     S
C478   C479    1.397   .     A
C478   C487    1.419   .     S
C479   H513    1.084   .     S
C480   H514    1.084   .     S
C480   C481    1.397   .     A
C480   C125    1.370   1_565 S
C482   N521    1.366   .     A
C482   H515    1.082   .     S
C482   C365    1.416   1_655 S
C483   N520    1.367   .     A
C483   H516    1.082   .     S
C484   C495    1.414   .     A
C484   C1024   1.437   .     S
C484   C1027   1.420   .     S
C485   N520    1.366   .     A
C485   H517    1.082   .     S
C486   H518    1.081   .     S
C486   N521    1.367   .     A
C486   C367    1.416   1_655 S
C487   O527    1.283   .     A
C487   O526    1.282   .     A
C488   O528    1.290   .     A
C488   O529    1.289   .     A
C488   C490    1.448   .     S
C489   C501    1.392   .     A
C489   C1028   1.404   1_554 S
C489   H1034   1.084   1_554 S
C490   C501    1.399   .     A
C490   C500    1.390   .     A
C491   C492    1.386   .     A
C491   H505    1.084   .     S
C492   C1024   1.401   .     S
C492   H1037   1.084   .     S
C493   C494    1.512   .     S
C493   C1015   1.437   1_554 S
C493   C1023   1.401   1_554 S
C494   H511    1.111   .     S
C494   H509    1.109   .     S
C494   H510    1.110   .     S
C495   C499    1.415   .     A
C496   C500    1.386   .     A
C496   C1015   1.420   1_554 S
C496   C1028   1.421   1_554 S
C497   C498    1.388   .     A
C497   C1020   1.404   .     S
C497   C1027   1.421   .     S
C498   C499    1.384   .     A
C498   H519    1.084   .     S
C499   H507    1.083   .     S
C500   H504    1.077   .     S
C501   H502    1.083   .     S
H503   C1020   1.084   .     S
H506   C1023   1.084   1_554 S
N520   Zn530   2.009   .     S
N521   Zn531   2.009   .     S
O522   Zn530   1.999   .     S
O523   Zn531   1.998   .     S
O524   Zn530   1.976   .     S
O525   Zn531   1.926   .     S
O526   Zn530   1.998   .     S
O527   Zn531   1.999   .     S
O528   Zn530   1.926   .     S
O529   Zn531   1.976   .     S
C532   O581    1.283   .     A
C532   O582    1.282   .     A
C532   C540    1.418   .     S
C533   C535    1.459   .     S
C533   C554    1.409   .     A
C533   C550    1.397   .     A
C534   C540    1.397   .     A
C534   H567    1.084   .     S
C534   C713    1.370   .     S
C535   O584    1.291   .     A
C535   O583    1.293   .     A
C536   C537    1.397   .     A
C536   H571    1.084   .     S
C536   C888    1.370   1_545 S
C537   C538    1.397   .     A
C537   C546    1.419   .     S
C538   H572    1.084   .     S
C538   C893    1.370   1_545 S
C539   H573    1.084   .     S
C539   C540    1.397   .     A
C539   C715    1.370   .     S
C541   N580    1.366   .     A
C541   H574    1.082   .     S
C541   C601    1.416   .     S
C542   N579    1.367   .     A
C542   H575    1.082   .     S
C542   C659    1.416   1_455 S
C543   C554    1.414   .     A
C543   C21     1.437   1_556 S
C543   C24     1.420   1_556 S
C544   N579    1.366   .     A
C544   H576    1.082   .     S
C544   C663    1.416   1_455 S
C545   H577    1.081   .     S
C545   N580    1.367   .     A
C545   C603    1.416   .     S
C546   O586    1.283   .     A
C546   O585    1.282   .     A
C547   O587    1.290   .     A
C547   O588    1.289   .     A
C547   C549    1.448   .     S
C548   C560    1.392   .     A
C549   C560    1.399   .     A
C549   C559    1.390   .     A
C550   C551    1.386   .     A
C550   H564    1.084   .     S
C551   C21     1.401   1_556 S
C551   H34     1.084   1_556 S
C552   C553    1.512   .     S
C553   H570    1.111   .     S
C553   H568    1.109   .     S
C553   H569    1.110   .     S
C554   C558    1.415   .     A
C555   C559    1.386   .     A
C556   C557    1.388   .     A
C556   C17     1.404   1_556 S
C556   C24     1.421   1_556 S
C557   C558    1.384   .     A
C557   H578    1.084   .     S
C558   H566    1.083   .     S
C559   H563    1.077   .     S
C560   H561    1.083   .     S
H562   C17     1.084   1_556 S
N579   Zn589   2.009   .     S
N580   Zn590   2.009   .     S
O581   Zn589   1.999   .     S
O582   Zn590   1.998   .     S
O583   Zn589   1.976   .     S
O584   Zn590   1.926   .     S
O585   Zn589   1.998   .     S
O586   Zn590   1.999   .     S
O587   Zn589   1.926   .     S
O588   Zn590   1.976   .     S
C591   O640    1.283   .     A
C591   O641    1.282   .     A
C591   C599    1.418   .     S
C592   C594    1.459   .     S
C592   C613    1.409   .     A
C592   C609    1.397   .     A
C593   C599    1.397   .     A
C593   H626    1.084   .     S
C593   C772    1.370   .     S
C594   O643    1.291   .     A
C594   O642    1.293   .     A
C595   C596    1.397   .     A
C595   H630    1.084   .     S
C595   C947    1.370   1_545 S
C596   C597    1.397   .     A
C596   C605    1.419   .     S
C597   H631    1.084   .     S
C597   C952    1.370   1_545 S
C598   H632    1.084   .     S
C598   C599    1.397   .     A
C598   C774    1.370   .     S
C600   N639    1.366   .     A
C600   H633    1.082   .     S
C600   C660    1.416   .     S
C601   N638    1.367   .     A
C601   H634    1.082   .     S
C602   C613    1.414   .     A
C602   C80     1.437   1_556 S
C602   C83     1.420   1_556 S
C603   N638    1.366   .     A
C603   H635    1.082   .     S
C604   H636    1.081   .     S
C604   N639    1.367   .     A
C604   C662    1.416   .     S
C605   O645    1.283   .     A
C605   O644    1.282   .     A
C606   O646    1.290   .     A
C606   O647    1.289   .     A
C606   C608    1.448   .     S
C607   C619    1.392   .     A
C608   C619    1.399   .     A
C608   C618    1.390   .     A
C609   C610    1.386   .     A
C609   H623    1.084   .     S
C610   C80     1.401   1_556 S
C610   H93     1.084   1_556 S
C611   C612    1.512   .     S
C612   H629    1.111   .     S
C612   H627    1.109   .     S
C612   H628    1.110   .     S
C613   C617    1.415   .     A
C614   C618    1.386   .     A
C615   C616    1.388   .     A
C615   C76     1.404   1_556 S
C615   C83     1.421   1_556 S
C616   C617    1.384   .     A
C616   H637    1.084   .     S
C617   H625    1.083   .     S
C618   H622    1.077   .     S
C619   H620    1.083   .     S
H621   C76     1.084   1_556 S
N638   Zn648   2.009   .     S
N639   Zn649   2.009   .     S
O640   Zn648   1.999   .     S
O641   Zn649   1.998   .     S
O642   Zn648   1.976   .     S
O643   Zn649   1.926   .     S
O644   Zn648   1.998   .     S
O645   Zn649   1.999   .     S
O646   Zn648   1.926   .     S
O647   Zn649   1.976   .     S
C650   O699    1.283   .     A
C650   O700    1.282   .     A
C650   C658    1.418   .     S
C651   C653    1.459   .     S
C651   C672    1.409   .     A
C651   C668    1.397   .     A
C652   C658    1.397   .     A
C652   H685    1.084   .     S
C652   C831    1.370   .     S
C653   O702    1.291   .     A
C653   O701    1.293   .     A
C654   C655    1.397   .     A
C654   H689    1.084   .     S
C654   C1006   1.370   1_545 S
C655   C656    1.397   .     A
C655   C664    1.419   .     S
C656   H690    1.084   .     S
C656   C1011   1.370   1_545 S
C657   H691    1.084   .     S
C657   C658    1.397   .     A
C657   C833    1.370   .     S
C659   N698    1.366   .     A
C659   H692    1.082   .     S
C659   C542    1.416   1_655 S
C660   N697    1.367   .     A
C660   H693    1.082   .     S
C661   C672    1.414   .     A
C661   C139    1.437   1_556 S
C661   C142    1.420   1_556 S
C662   N697    1.366   .     A
C662   H694    1.082   .     S
C663   H695    1.081   .     S
C663   N698    1.367   .     A
C663   C544    1.416   1_655 S
C664   O704    1.283   .     A
C664   O703    1.282   .     A
C665   O705    1.290   .     A
C665   O706    1.289   .     A
C665   C667    1.448   .     S
C666   C678    1.392   .     A
C667   C678    1.399   .     A
C667   C677    1.390   .     A
C668   C669    1.386   .     A
C668   H682    1.084   .     S
C669   C139    1.401   1_556 S
C669   H152    1.084   1_556 S
C670   C671    1.512   .     S
C671   H688    1.111   .     S
C671   H686    1.109   .     S
C671   H687    1.110   .     S
C672   C676    1.415   .     A
C673   C677    1.386   .     A
C674   C675    1.388   .     A
C674   C135    1.404   1_556 S
C674   C142    1.421   1_556 S
C675   C676    1.384   .     A
C675   H696    1.084   .     S
C676   H684    1.083   .     S
C677   H681    1.077   .     S
C678   H679    1.083   .     S
H680   C135    1.084   1_556 S
N697   Zn707   2.009   .     S
N698   Zn708   2.009   .     S
O699   Zn707   1.999   .     S
O700   Zn708   1.998   .     S
O701   Zn707   1.976   .     S
O702   Zn708   1.926   .     S
O703   Zn707   1.998   .     S
O704   Zn708   1.999   .     S
O705   Zn707   1.926   .     S
O706   Zn708   1.976   .     S
C709   O758    1.283   .     A
C709   O759    1.282   .     A
C709   C717    1.418   .     S
C710   C712    1.459   .     S
C710   C731    1.409   .     A
C710   C727    1.397   .     A
C711   C717    1.397   .     A
C711   H744    1.084   .     S
C711   C890    1.370   .     S
C712   O761    1.291   .     A
C712   O760    1.293   .     A
C713   C714    1.397   .     A
C713   H748    1.084   .     S
C714   C715    1.397   .     A
C714   C723    1.419   .     S
C715   H749    1.084   .     S
C716   H750    1.084   .     S
C716   C717    1.397   .     A
C716   C892    1.370   .     S
C718   N757    1.366   .     A
C718   H751    1.082   .     S
C718   C778    1.416   .     S
C719   N756    1.367   .     A
C719   H752    1.082   .     S
C719   C836    1.416   1_455 S
C720   C731    1.414   .     A
C720   C198    1.437   1_556 S
C720   C201    1.420   1_556 S
C721   N756    1.366   .     A
C721   H753    1.082   .     S
C721   C840    1.416   1_455 S
C722   H754    1.081   .     S
C722   N757    1.367   .     A
C722   C780    1.416   .     S
C723   O763    1.283   .     A
C723   O762    1.282   .     A
C724   O764    1.290   .     A
C724   O765    1.289   .     A
C724   C726    1.448   .     S
C725   C737    1.392   .     A
C726   C737    1.399   .     A
C726   C736    1.390   .     A
C727   C728    1.386   .     A
C727   H741    1.084   .     S
C728   C198    1.401   1_556 S
C728   H211    1.084   1_556 S
C729   C730    1.512   .     S
C730   H747    1.111   .     S
C730   H745    1.109   .     S
C730   H746    1.110   .     S
C731   C735    1.415   .     A
C732   C736    1.386   .     A
C733   C734    1.388   .     A
C733   C194    1.404   1_556 S
C733   C201    1.421   1_556 S
C734   C735    1.384   .     A
C734   H755    1.084   .     S
C735   H743    1.083   .     S
C736   H740    1.077   .     S
C737   H738    1.083   .     S
H739   C194    1.084   1_556 S
N756   Zn766   2.009   .     S
N757   Zn767   2.009   .     S
O758   Zn766   1.999   .     S
O759   Zn767   1.998   .     S
O760   Zn766   1.976   .     S
O761   Zn767   1.926   .     S
O762   Zn766   1.998   .     S
O763   Zn767   1.999   .     S
O764   Zn766   1.926   .     S
O765   Zn767   1.976   .     S
C768   O817    1.283   .     A
C768   O818    1.282   .     A
C768   C776    1.418   .     S
C769   C771    1.459   .     S
C769   C790    1.409   .     A
C769   C786    1.397   .     A
C770   C776    1.397   .     A
C770   H803    1.084   .     S
C770   C949    1.370   .     S
C771   O820    1.291   .     A
C771   O819    1.293   .     A
C772   C773    1.397   .     A
C772   H807    1.084   .     S
C773   C774    1.397   .     A
C773   C782    1.419   .     S
C774   H808    1.084   .     S
C775   H809    1.084   .     S
C775   C776    1.397   .     A
C775   C951    1.370   .     S
C777   N816    1.366   .     A
C777   H810    1.082   .     S
C777   C837    1.416   .     S
C778   N815    1.367   .     A
C778   H811    1.082   .     S
C779   C790    1.414   .     A
C779   C257    1.437   1_556 S
C779   C260    1.420   1_556 S
C780   N815    1.366   .     A
C780   H812    1.082   .     S
C781   H813    1.081   .     S
C781   N816    1.367   .     A
C781   C839    1.416   .     S
C782   O822    1.283   .     A
C782   O821    1.282   .     A
C783   O823    1.290   .     A
C783   O824    1.289   .     A
C783   C785    1.448   .     S
C784   C796    1.392   .     A
C785   C796    1.399   .     A
C785   C795    1.390   .     A
C786   C787    1.386   .     A
C786   H800    1.084   .     S
C787   C257    1.401   1_556 S
C787   H270    1.084   1_556 S
C788   C789    1.512   .     S
C789   H806    1.111   .     S
C789   H804    1.109   .     S
C789   H805    1.110   .     S
C790   C794    1.415   .     A
C791   C795    1.386   .     A
C792   C793    1.388   .     A
C792   C253    1.404   1_556 S
C792   C260    1.421   1_556 S
C793   C794    1.384   .     A
C793   H814    1.084   .     S
C794   H802    1.083   .     S
C795   H799    1.077   .     S
C796   H797    1.083   .     S
H798   C253    1.084   1_556 S
N815   Zn825   2.009   .     S
N816   Zn826   2.009   .     S
O817   Zn825   1.999   .     S
O818   Zn826   1.998   .     S
O819   Zn825   1.976   .     S
O820   Zn826   1.926   .     S
O821   Zn825   1.998   .     S
O822   Zn826   1.999   .     S
O823   Zn825   1.926   .     S
O824   Zn826   1.976   .     S
C827   O876    1.283   .     A
C827   O877    1.282   .     A
C827   C835    1.418   .     S
C828   C830    1.459   .     S
C828   C849    1.409   .     A
C828   C845    1.397   .     A
C829   C835    1.397   .     A
C829   H862    1.084   .     S
C829   C1008   1.370   .     S
C830   O879    1.291   .     A
C830   O878    1.293   .     A
C831   C832    1.397   .     A
C831   H866    1.084   .     S
C832   C833    1.397   .     A
C832   C841    1.419   .     S
C833   H867    1.084   .     S
C834   H868    1.084   .     S
C834   C835    1.397   .     A
C834   C1010   1.370   .     S
C836   N875    1.366   .     A
C836   H869    1.082   .     S
C836   C719    1.416   1_655 S
C837   N874    1.367   .     A
C837   H870    1.082   .     S
C838   C849    1.414   .     A
C838   C316    1.437   1_556 S
C838   C319    1.420   1_556 S
C839   N874    1.366   .     A
C839   H871    1.082   .     S
C840   H872    1.081   .     S
C840   N875    1.367   .     A
C840   C721    1.416   1_655 S
C841   O881    1.283   .     A
C841   O880    1.282   .     A
C842   O882    1.290   .     A
C842   O883    1.289   .     A
C842   C844    1.448   .     S
C843   C855    1.392   .     A
C844   C855    1.399   .     A
C844   C854    1.390   .     A
C845   C846    1.386   .     A
C845   H859    1.084   .     S
C846   C316    1.401   1_556 S
C846   H329    1.084   1_556 S
C847   C848    1.512   .     S
C848   H865    1.111   .     S
C848   H863    1.109   .     S
C848   H864    1.110   .     S
C849   C853    1.415   .     A
C850   C854    1.386   .     A
C851   C852    1.388   .     A
C851   C312    1.404   1_556 S
C851   C319    1.421   1_556 S
C852   C853    1.384   .     A
C852   H873    1.084   .     S
C853   H861    1.083   .     S
C854   H858    1.077   .     S
C855   H856    1.083   .     S
H857   C312    1.084   1_556 S
N874   Zn884   2.009   .     S
N875   Zn885   2.009   .     S
O876   Zn884   1.999   .     S
O877   Zn885   1.998   .     S
O878   Zn884   1.976   .     S
O879   Zn885   1.926   .     S
O880   Zn884   1.998   .     S
O881   Zn885   1.999   .     S
O882   Zn884   1.926   .     S
O883   Zn885   1.976   .     S
C886   O935    1.283   .     A
C886   O936    1.282   .     A
C886   C894    1.418   .     S
C887   C889    1.459   .     S
C887   C908    1.409   .     A
C887   C904    1.397   .     A
C888   C894    1.397   .     A
C888   H921    1.084   .     S
C888   C536    1.370   1_565 S
C889   O938    1.291   .     A
C889   O937    1.293   .     A
C890   C891    1.397   .     A
C890   H925    1.084   .     S
C891   C892    1.397   .     A
C891   C900    1.419   .     S
C892   H926    1.084   .     S
C893   H927    1.084   .     S
C893   C894    1.397   .     A
C893   C538    1.370   1_565 S
C895   N934    1.366   .     A
C895   H928    1.082   .     S
C895   C955    1.416   .     S
C896   N933    1.367   .     A
C896   H929    1.082   .     S
C896   C1013   1.416   1_455 S
C897   C908    1.414   .     A
C897   C375    1.437   1_556 S
C897   C378    1.420   1_556 S
C898   N933    1.366   .     A
C898   H930    1.082   .     S
C898   C1017   1.416   1_455 S
C899   H931    1.081   .     S
C899   N934    1.367   .     A
C899   C957    1.416   .     S
C900   O940    1.283   .     A
C900   O939    1.282   .     A
C901   O941    1.290   .     A
C901   O942    1.289   .     A
C901   C903    1.448   .     S
C902   C914    1.392   .     A
C903   C914    1.399   .     A
C903   C913    1.390   .     A
C904   C905    1.386   .     A
C904   H918    1.084   .     S
C905   C375    1.401   1_556 S
C905   H388    1.084   1_556 S
C906   C907    1.512   .     S
C907   H924    1.111   .     S
C907   H922    1.109   .     S
C907   H923    1.110   .     S
C908   C912    1.415   .     A
C909   C913    1.386   .     A
C910   C911    1.388   .     A
C910   C371    1.404   1_556 S
C910   C378    1.421   1_556 S
C911   C912    1.384   .     A
C911   H932    1.084   .     S
C912   H920    1.083   .     S
C913   H917    1.077   .     S
C914   H915    1.083   .     S
H916   C371    1.084   1_556 S
N933   Zn943   2.009   .     S
N934   Zn944   2.009   .     S
O935   Zn943   1.999   .     S
O936   Zn944   1.998   .     S
O937   Zn943   1.976   .     S
O938   Zn944   1.926   .     S
O939   Zn943   1.998   .     S
O940   Zn944   1.999   .     S
O941   Zn943   1.926   .     S
O942   Zn944   1.976   .     S
C945   O994    1.283   .     A
C945   O995    1.282   .     A
C945   C953    1.418   .     S
C946   C948    1.459   .     S
C946   C967    1.409   .     A
C946   C963    1.397   .     A
C947   C953    1.397   .     A
C947   H980    1.084   .     S
C947   C595    1.370   1_565 S
C948   O997    1.291   .     A
C948   O996    1.293   .     A
C949   C950    1.397   .     A
C949   H984    1.084   .     S
C950   C951    1.397   .     A
C950   C959    1.419   .     S
C951   H985    1.084   .     S
C952   H986    1.084   .     S
C952   C953    1.397   .     A
C952   C597    1.370   1_565 S
C954   N993    1.366   .     A
C954   H987    1.082   .     S
C954   C1014   1.416   .     S
C955   N992    1.367   .     A
C955   H988    1.082   .     S
C956   C967    1.414   .     A
C956   C434    1.437   1_556 S
C956   C437    1.420   1_556 S
C957   N992    1.366   .     A
C957   H989    1.082   .     S
C958   H990    1.081   .     S
C958   N993    1.367   .     A
C958   C1016   1.416   .     S
C959   O999    1.283   .     A
C959   O998    1.282   .     A
C960   O1000   1.290   .     A
C960   O1001   1.289   .     A
C960   C962    1.448   .     S
C961   C973    1.392   .     A
C962   C973    1.399   .     A
C962   C972    1.390   .     A
C963   C964    1.386   .     A
C963   H977    1.084   .     S
C964   C434    1.401   1_556 S
C964   H447    1.084   1_556 S
C965   C966    1.512   .     S
C966   H983    1.111   .     S
C966   H981    1.109   .     S
C966   H982    1.110   .     S
C967   C971    1.415   .     A
C968   C972    1.386   .     A
C969   C970    1.388   .     A
C969   C430    1.404   1_556 S
C969   C437    1.421   1_556 S
C970   C971    1.384   .     A
C970   H991    1.084   .     S
C971   H979    1.083   .     S
C972   H976    1.077   .     S
C973   H974    1.083   .     S
H975   C430    1.084   1_556 S
N992   Zn1002  2.009   .     S
N993   Zn1003  2.009   .     S
O994   Zn1002  1.999   .     S
O995   Zn1003  1.998   .     S
O996   Zn1002  1.976   .     S
O997   Zn1003  1.926   .     S
O998   Zn1002  1.998   .     S
O999   Zn1003  1.999   .     S
O1000  Zn1002  1.926   .     S
O1001  Zn1003  1.976   .     S
C1004  O1053   1.283   .     A
C1004  O1054   1.282   .     A
C1004  C1012   1.418   .     S
C1005  C1007   1.459   .     S
C1005  C1026   1.409   .     A
C1005  C1022   1.397   .     A
C1006  C1012   1.397   .     A
C1006  H1039   1.084   .     S
C1006  C654    1.370   1_565 S
C1007  O1056   1.291   .     A
C1007  O1055   1.293   .     A
C1008  C1009   1.397   .     A
C1008  H1043   1.084   .     S
C1009  C1010   1.397   .     A
C1009  C1018   1.419   .     S
C1010  H1044   1.084   .     S
C1011  H1045   1.084   .     S
C1011  C1012   1.397   .     A
C1011  C656    1.370   1_565 S
C1013  N1052   1.366   .     A
C1013  H1046   1.082   .     S
C1013  C896    1.416   1_655 S
C1014  N1051   1.367   .     A
C1014  H1047   1.082   .     S
C1015  C1026   1.414   .     A
C1015  C493    1.437   1_556 S
C1015  C496    1.420   1_556 S
C1016  N1051   1.366   .     A
C1016  H1048   1.082   .     S
C1017  H1049   1.081   .     S
C1017  N1052   1.367   .     A
C1017  C898    1.416   1_655 S
C1018  O1058   1.283   .     A
C1018  O1057   1.282   .     A
C1019  O1059   1.290   .     A
C1019  O1060   1.289   .     A
C1019  C1021   1.448   .     S
C1020  C1032   1.392   .     A
C1021  C1032   1.399   .     A
C1021  C1031   1.390   .     A
C1022  C1023   1.386   .     A
C1022  H1036   1.084   .     S
C1023  C493    1.401   1_556 S
C1023  H506    1.084   1_556 S
C1024  C1025   1.512   .     S
C1025  H1042   1.111   .     S
C1025  H1040   1.109   .     S
C1025  H1041   1.110   .     S
C1026  C1030   1.415   .     A
C1027  C1031   1.386   .     A
C1028  C1029   1.388   .     A
C1028  C489    1.404   1_556 S
C1028  C496    1.421   1_556 S
C1029  C1030   1.384   .     A
C1029  H1050   1.084   .     S
C1030  H1038   1.083   .     S
C1031  H1035   1.077   .     S
C1032  H1033   1.083   .     S
H1034  C489    1.084   1_556 S
N1051  Zn1061  2.009   .     S
N1052  Zn1062  2.009   .     S
O1053  Zn1061  1.999   .     S
O1054  Zn1062  1.998   .     S
O1055  Zn1061  1.976   .     S
O1056  Zn1062  1.926   .     S
O1057  Zn1061  1.998   .     S
O1058  Zn1062  1.999   .     S
O1059  Zn1061  1.926   .     S
O1060  Zn1062  1.976   .     S
