data_str_m3_o10_o16_pcu_sym.115
_audit_creation_date              2020-01-03
_audit_creation_method            'Materials Studio'
_symmetry_space_group_name_H-M    'P1'
_symmetry_Int_Tables_number       1
_symmetry_cell_setting            triclinic
loop_
_symmetry_equiv_pos_as_xyz
  x,y,z
_cell_length_a                    23.3896
_cell_length_b                    25.7951
_cell_length_c                    25.2752
_cell_angle_alpha                 92.5920
_cell_angle_beta                  102.4532
_cell_angle_gamma                 93.9769
loop_
_atom_site_label
_atom_site_type_symbol
_atom_site_fract_x
_atom_site_fract_y
_atom_site_fract_z
_atom_site_U_iso_or_equiv
_atom_site_adp_type
_atom_site_occupancy
C1     C     0.01391   0.26455   0.24596   0.00000  Uiso   1.00
C2     C     0.05944   0.18036   0.41327   0.00000  Uiso   1.00
C3     C     0.01831   0.31759   0.23535   0.00000  Uiso   1.00
C4     C     0.03737   0.17271   0.35440   0.00000  Uiso   1.00
C5     C     0.31118   0.01378   0.24937   0.00000  Uiso   1.00
C6     C     0.31798   0.06840   0.24914   0.00000  Uiso   1.00
C7     C     0.29625   0.16055   0.14625   0.00000  Uiso   1.00
C8     C     0.27630   0.10619   0.00342   0.00000  Uiso   1.00
C9     C     0.27284   0.14796   0.08952   0.00000  Uiso   1.00
C10    C     0.02223   0.19699   0.44619   0.00000  Uiso   1.00
C11    C     0.04089   0.19967   0.00233   0.00000  Uiso   1.00
C12    C     0.13396   0.16691   0.49374   0.00000  Uiso   1.00
C13    C     0.09498   0.18235   0.02620   0.00000  Uiso   1.00
C14    C     0.22763   0.10189   0.38186   0.00000  Uiso   1.00
C15    C     0.18207   0.21181   0.38863   0.00000  Uiso   1.00
C16    C     0.06280   0.00132   0.20599   0.00000  Uiso   1.00
C17    C     0.11722   0.16920   0.43740   0.00000  Uiso   1.00
C18    C     0.19030   0.15075   0.01500   0.00000  Uiso   1.00
C19    C     0.22230   0.12577   0.48038   0.00000  Uiso   1.00
C20    C     0.20283   0.12872   0.42398   0.00000  Uiso   1.00
C21    C     0.16063   0.16357   0.40727   0.00000  Uiso   1.00
C22    C     0.21750   0.16341   0.06835   0.00000  Uiso   1.00
C23    C     0.30116   0.11691   0.05825   0.00000  Uiso   1.00
H24    H     0.01011   0.10303   0.07552   0.00000  Uiso   1.00
H25    H     0.21988   0.11569   0.34133   0.00000  Uiso   1.00
H26    H     0.27542   0.33137   0.26670   0.00000  Uiso   1.00
H27    H     0.15727   0.12214   0.21333   0.00000  Uiso   1.00
H28    H     0.17546   0.21330   0.28256   0.00000  Uiso   1.00
H29    H     0.30234   0.08671   0.47951   0.00000  Uiso   1.00
H30    H     0.19745   0.18843   0.09330   0.00000  Uiso   1.00
H31    H     0.31188   0.20764   0.42859   0.00000  Uiso   1.00
H32    H     0.10476   0.18046   0.06979   0.00000  Uiso   1.00
H33    H     0.01208   0.21289   0.02747   0.00000  Uiso   1.00
N34    N     0.14493   0.15223   0.23543   0.00000  Uiso   1.00
N35    N     0.18840   0.18110   0.26458   0.00000  Uiso   1.00
N36    N     0.19968   0.25122   0.37569   0.00000  Uiso   1.00
N37    N     0.09813   0.01466   0.18261   0.00000  Uiso   1.00
O38    O     0.29769   0.24629   0.25358   0.00000  Uiso   1.00
O39    O     0.05742   0.23704   0.24424   0.00000  Uiso   1.00
O40    O     0.31490   0.17358   0.33380   0.00000  Uiso   1.00
O41    O     0.07463   0.16433   0.32446   0.00000  Uiso   1.00
O42    O     0.27592   0.09629   0.25577   0.00000  Uiso   1.00
O43    O     0.03565   0.08704   0.24643   0.00000  Uiso   1.00
O44    O     0.25870   0.16901   0.17554   0.00000  Uiso   1.00
O45    O     0.01843   0.15976   0.16620   0.00000  Uiso   1.00
O46    O     0.25287   0.06225   0.39024   0.00000  Uiso   1.00
Zn47   Zn    0.27119   0.17284   0.25624   0.00000  Uiso   1.00
Zn48   Zn    0.06214   0.16049   0.24377   0.00000  Uiso   1.00
C49    C     0.34724   0.26455   0.24596   0.00000  Uiso   1.00
C50    C     0.39278   0.18036   0.41327   0.00000  Uiso   1.00
C51    C     0.35164   0.31759   0.23535   0.00000  Uiso   1.00
C52    C     0.37070   0.17271   0.35440   0.00000  Uiso   1.00
C53    C     0.64452   0.01378   0.24937   0.00000  Uiso   1.00
C54    C     0.65131   0.06840   0.24914   0.00000  Uiso   1.00
C55    C     0.62959   0.16055   0.14625   0.00000  Uiso   1.00
C56    C     0.60963   0.10619   0.00342   0.00000  Uiso   1.00
C57    C     0.60617   0.14796   0.08952   0.00000  Uiso   1.00
C58    C     0.35556   0.19699   0.44619   0.00000  Uiso   1.00
C59    C     0.37423   0.19967   0.00233   0.00000  Uiso   1.00
C60    C     0.46729   0.16691   0.49374   0.00000  Uiso   1.00
C61    C     0.42832   0.18235   0.02620   0.00000  Uiso   1.00
C62    C     0.56097   0.10189   0.38186   0.00000  Uiso   1.00
C63    C     0.51540   0.21181   0.38863   0.00000  Uiso   1.00
C64    C     0.39613   0.00132   0.20599   0.00000  Uiso   1.00
C65    C     0.45055   0.16920   0.43740   0.00000  Uiso   1.00
C66    C     0.52364   0.15075   0.01500   0.00000  Uiso   1.00
C67    C     0.55563   0.12577   0.48038   0.00000  Uiso   1.00
C68    C     0.53616   0.12872   0.42398   0.00000  Uiso   1.00
C69    C     0.49397   0.16357   0.40727   0.00000  Uiso   1.00
C70    C     0.55083   0.16341   0.06835   0.00000  Uiso   1.00
C71    C     0.63450   0.11691   0.05825   0.00000  Uiso   1.00
H72    H     0.34344   0.10303   0.07552   0.00000  Uiso   1.00
H73    H     0.55321   0.11569   0.34133   0.00000  Uiso   1.00
H74    H     0.60875   0.33137   0.26670   0.00000  Uiso   1.00
H75    H     0.49060   0.12214   0.21333   0.00000  Uiso   1.00
H76    H     0.50880   0.21330   0.28256   0.00000  Uiso   1.00
H77    H     0.63567   0.08671   0.47951   0.00000  Uiso   1.00
H78    H     0.53078   0.18843   0.09330   0.00000  Uiso   1.00
H79    H     0.64521   0.20764   0.42859   0.00000  Uiso   1.00
H80    H     0.43809   0.18046   0.06979   0.00000  Uiso   1.00
H81    H     0.34541   0.21289   0.02747   0.00000  Uiso   1.00
N82    N     0.47827   0.15223   0.23543   0.00000  Uiso   1.00
N83    N     0.52173   0.18110   0.26458   0.00000  Uiso   1.00
N84    N     0.53301   0.25122   0.37569   0.00000  Uiso   1.00
N85    N     0.43146   0.01466   0.18261   0.00000  Uiso   1.00
O86    O     0.63102   0.24629   0.25358   0.00000  Uiso   1.00
O87    O     0.39075   0.23704   0.24424   0.00000  Uiso   1.00
O88    O     0.64823   0.17358   0.33380   0.00000  Uiso   1.00
O89    O     0.40796   0.16433   0.32446   0.00000  Uiso   1.00
O90    O     0.60925   0.09629   0.25577   0.00000  Uiso   1.00
O91    O     0.36898   0.08704   0.24643   0.00000  Uiso   1.00
O92    O     0.59204   0.16901   0.17554   0.00000  Uiso   1.00
O93    O     0.35177   0.15976   0.16620   0.00000  Uiso   1.00
O94    O     0.58620   0.06225   0.39024   0.00000  Uiso   1.00
Zn95   Zn    0.60453   0.17284   0.25624   0.00000  Uiso   1.00
Zn96   Zn    0.39547   0.16049   0.24377   0.00000  Uiso   1.00
C97    C     0.68057   0.26455   0.24596   0.00000  Uiso   1.00
C98    C     0.72611   0.18036   0.41327   0.00000  Uiso   1.00
C99    C     0.68497   0.31759   0.23535   0.00000  Uiso   1.00
C100   C     0.70404   0.17271   0.35440   0.00000  Uiso   1.00
C101   C     0.97785   0.01378   0.24937   0.00000  Uiso   1.00
C102   C     0.98464   0.06840   0.24914   0.00000  Uiso   1.00
C103   C     0.96292   0.16055   0.14625   0.00000  Uiso   1.00
C104   C     0.94296   0.10619   0.00342   0.00000  Uiso   1.00
C105   C     0.93951   0.14796   0.08952   0.00000  Uiso   1.00
C106   C     0.68889   0.19699   0.44619   0.00000  Uiso   1.00
C107   C     0.70756   0.19967   0.00233   0.00000  Uiso   1.00
C108   C     0.80062   0.16691   0.49374   0.00000  Uiso   1.00
C109   C     0.76165   0.18235   0.02620   0.00000  Uiso   1.00
C110   C     0.89430   0.10189   0.38186   0.00000  Uiso   1.00
C111   C     0.84873   0.21181   0.38863   0.00000  Uiso   1.00
C112   C     0.72947   0.00132   0.20599   0.00000  Uiso   1.00
C113   C     0.78389   0.16920   0.43740   0.00000  Uiso   1.00
C114   C     0.85697   0.15075   0.01500   0.00000  Uiso   1.00
C115   C     0.88897   0.12577   0.48038   0.00000  Uiso   1.00
C116   C     0.86950   0.12872   0.42398   0.00000  Uiso   1.00
C117   C     0.82730   0.16357   0.40727   0.00000  Uiso   1.00
C118   C     0.88417   0.16341   0.06835   0.00000  Uiso   1.00
C119   C     0.96783   0.11691   0.05825   0.00000  Uiso   1.00
H120   H     0.67678   0.10303   0.07552   0.00000  Uiso   1.00
H121   H     0.88655   0.11569   0.34133   0.00000  Uiso   1.00
H122   H     0.94208   0.33137   0.26670   0.00000  Uiso   1.00
H123   H     0.82394   0.12214   0.21333   0.00000  Uiso   1.00
H124   H     0.84213   0.21330   0.28256   0.00000  Uiso   1.00
H125   H     0.96900   0.08671   0.47951   0.00000  Uiso   1.00
H126   H     0.86412   0.18843   0.09330   0.00000  Uiso   1.00
H127   H     0.97855   0.20764   0.42859   0.00000  Uiso   1.00
H128   H     0.77142   0.18046   0.06979   0.00000  Uiso   1.00
H129   H     0.67875   0.21289   0.02747   0.00000  Uiso   1.00
N130   N     0.81160   0.15223   0.23543   0.00000  Uiso   1.00
N131   N     0.85507   0.18110   0.26458   0.00000  Uiso   1.00
N132   N     0.86634   0.25122   0.37569   0.00000  Uiso   1.00
N133   N     0.76479   0.01466   0.18261   0.00000  Uiso   1.00
O134   O     0.96435   0.24629   0.25358   0.00000  Uiso   1.00
O135   O     0.72408   0.23704   0.24424   0.00000  Uiso   1.00
O136   O     0.98157   0.17358   0.33380   0.00000  Uiso   1.00
O137   O     0.74130   0.16433   0.32446   0.00000  Uiso   1.00
O138   O     0.94258   0.09629   0.25577   0.00000  Uiso   1.00
O139   O     0.70231   0.08704   0.24643   0.00000  Uiso   1.00
O140   O     0.92537   0.16901   0.17554   0.00000  Uiso   1.00
O141   O     0.68510   0.15976   0.16620   0.00000  Uiso   1.00
O142   O     0.91953   0.06225   0.39024   0.00000  Uiso   1.00
Zn143  Zn    0.93786   0.17284   0.25624   0.00000  Uiso   1.00
Zn144  Zn    0.72881   0.16049   0.24377   0.00000  Uiso   1.00
C145   C     0.01391   0.59788   0.24596   0.00000  Uiso   1.00
C146   C     0.05944   0.51369   0.41327   0.00000  Uiso   1.00
C147   C     0.01831   0.65092   0.23535   0.00000  Uiso   1.00
C148   C     0.03737   0.50604   0.35440   0.00000  Uiso   1.00
C149   C     0.31118   0.34712   0.24937   0.00000  Uiso   1.00
C150   C     0.31798   0.40173   0.24914   0.00000  Uiso   1.00
C151   C     0.29625   0.49388   0.14625   0.00000  Uiso   1.00
C152   C     0.27630   0.43952   0.00342   0.00000  Uiso   1.00
C153   C     0.27284   0.48129   0.08952   0.00000  Uiso   1.00
C154   C     0.02223   0.53032   0.44619   0.00000  Uiso   1.00
C155   C     0.04089   0.53300   0.00233   0.00000  Uiso   1.00
C156   C     0.13396   0.50024   0.49374   0.00000  Uiso   1.00
C157   C     0.09498   0.51568   0.02620   0.00000  Uiso   1.00
C158   C     0.22763   0.43522   0.38186   0.00000  Uiso   1.00
C159   C     0.18207   0.54514   0.38863   0.00000  Uiso   1.00
C160   C     0.06280   0.33466   0.20599   0.00000  Uiso   1.00
C161   C     0.11722   0.50253   0.43740   0.00000  Uiso   1.00
C162   C     0.19030   0.48408   0.01500   0.00000  Uiso   1.00
C163   C     0.22230   0.45910   0.48038   0.00000  Uiso   1.00
C164   C     0.20283   0.46205   0.42398   0.00000  Uiso   1.00
C165   C     0.16063   0.49691   0.40727   0.00000  Uiso   1.00
C166   C     0.21750   0.49674   0.06835   0.00000  Uiso   1.00
C167   C     0.30116   0.45024   0.05825   0.00000  Uiso   1.00
H168   H     0.01011   0.43636   0.07552   0.00000  Uiso   1.00
H169   H     0.21988   0.44903   0.34133   0.00000  Uiso   1.00
H170   H     0.27542   0.66470   0.26670   0.00000  Uiso   1.00
H171   H     0.15727   0.45547   0.21333   0.00000  Uiso   1.00
H172   H     0.17546   0.54663   0.28256   0.00000  Uiso   1.00
H173   H     0.30234   0.42005   0.47951   0.00000  Uiso   1.00
H174   H     0.19745   0.52176   0.09330   0.00000  Uiso   1.00
H175   H     0.31188   0.54098   0.42859   0.00000  Uiso   1.00
H176   H     0.10476   0.51380   0.06979   0.00000  Uiso   1.00
H177   H     0.01208   0.54623   0.02747   0.00000  Uiso   1.00
N178   N     0.14493   0.48556   0.23543   0.00000  Uiso   1.00
N179   N     0.18840   0.51444   0.26458   0.00000  Uiso   1.00
N180   N     0.19968   0.58455   0.37569   0.00000  Uiso   1.00
N181   N     0.09813   0.34799   0.18261   0.00000  Uiso   1.00
O182   O     0.29769   0.57963   0.25358   0.00000  Uiso   1.00
O183   O     0.05742   0.57038   0.24424   0.00000  Uiso   1.00
O184   O     0.31490   0.50691   0.33380   0.00000  Uiso   1.00
O185   O     0.07463   0.49766   0.32446   0.00000  Uiso   1.00
O186   O     0.27592   0.42962   0.25577   0.00000  Uiso   1.00
O187   O     0.03565   0.42037   0.24643   0.00000  Uiso   1.00
O188   O     0.25870   0.50234   0.17554   0.00000  Uiso   1.00
O189   O     0.01843   0.49309   0.16620   0.00000  Uiso   1.00
O190   O     0.25287   0.39558   0.39024   0.00000  Uiso   1.00
Zn191  Zn    0.27119   0.50618   0.25624   0.00000  Uiso   1.00
Zn192  Zn    0.06214   0.49382   0.24377   0.00000  Uiso   1.00
C193   C     0.34724   0.59788   0.24596   0.00000  Uiso   1.00
C194   C     0.39278   0.51369   0.41327   0.00000  Uiso   1.00
C195   C     0.35164   0.65092   0.23535   0.00000  Uiso   1.00
C196   C     0.37070   0.50604   0.35440   0.00000  Uiso   1.00
C197   C     0.64452   0.34712   0.24937   0.00000  Uiso   1.00
C198   C     0.65131   0.40173   0.24914   0.00000  Uiso   1.00
C199   C     0.62959   0.49388   0.14625   0.00000  Uiso   1.00
C200   C     0.60963   0.43952   0.00342   0.00000  Uiso   1.00
C201   C     0.60617   0.48129   0.08952   0.00000  Uiso   1.00
C202   C     0.35556   0.53032   0.44619   0.00000  Uiso   1.00
C203   C     0.37423   0.53300   0.00233   0.00000  Uiso   1.00
C204   C     0.46729   0.50024   0.49374   0.00000  Uiso   1.00
C205   C     0.42832   0.51568   0.02620   0.00000  Uiso   1.00
C206   C     0.56097   0.43522   0.38186   0.00000  Uiso   1.00
C207   C     0.51540   0.54514   0.38863   0.00000  Uiso   1.00
C208   C     0.39613   0.33466   0.20599   0.00000  Uiso   1.00
C209   C     0.45055   0.50253   0.43740   0.00000  Uiso   1.00
C210   C     0.52364   0.48408   0.01500   0.00000  Uiso   1.00
C211   C     0.55563   0.45910   0.48038   0.00000  Uiso   1.00
C212   C     0.53616   0.46205   0.42398   0.00000  Uiso   1.00
C213   C     0.49397   0.49691   0.40727   0.00000  Uiso   1.00
C214   C     0.55083   0.49674   0.06835   0.00000  Uiso   1.00
C215   C     0.63450   0.45024   0.05825   0.00000  Uiso   1.00
H216   H     0.34344   0.43636   0.07552   0.00000  Uiso   1.00
H217   H     0.55321   0.44903   0.34133   0.00000  Uiso   1.00
H218   H     0.60875   0.66470   0.26670   0.00000  Uiso   1.00
H219   H     0.49060   0.45547   0.21333   0.00000  Uiso   1.00
H220   H     0.50880   0.54663   0.28256   0.00000  Uiso   1.00
H221   H     0.63567   0.42005   0.47951   0.00000  Uiso   1.00
H222   H     0.53078   0.52176   0.09330   0.00000  Uiso   1.00
H223   H     0.64521   0.54098   0.42859   0.00000  Uiso   1.00
H224   H     0.43809   0.51380   0.06979   0.00000  Uiso   1.00
H225   H     0.34541   0.54623   0.02747   0.00000  Uiso   1.00
N226   N     0.47827   0.48556   0.23543   0.00000  Uiso   1.00
N227   N     0.52173   0.51444   0.26458   0.00000  Uiso   1.00
N228   N     0.53301   0.58455   0.37569   0.00000  Uiso   1.00
N229   N     0.43146   0.34799   0.18261   0.00000  Uiso   1.00
O230   O     0.63102   0.57963   0.25358   0.00000  Uiso   1.00
O231   O     0.39075   0.57038   0.24424   0.00000  Uiso   1.00
O232   O     0.64823   0.50691   0.33380   0.00000  Uiso   1.00
O233   O     0.40796   0.49766   0.32446   0.00000  Uiso   1.00
O234   O     0.60925   0.42962   0.25577   0.00000  Uiso   1.00
O235   O     0.36898   0.42037   0.24643   0.00000  Uiso   1.00
O236   O     0.59204   0.50234   0.17554   0.00000  Uiso   1.00
O237   O     0.35177   0.49309   0.16620   0.00000  Uiso   1.00
O238   O     0.58620   0.39558   0.39024   0.00000  Uiso   1.00
Zn239  Zn    0.60453   0.50618   0.25624   0.00000  Uiso   1.00
Zn240  Zn    0.39547   0.49382   0.24377   0.00000  Uiso   1.00
C241   C     0.68057   0.59788   0.24596   0.00000  Uiso   1.00
C242   C     0.72611   0.51369   0.41327   0.00000  Uiso   1.00
C243   C     0.68497   0.65092   0.23535   0.00000  Uiso   1.00
C244   C     0.70404   0.50604   0.35440   0.00000  Uiso   1.00
C245   C     0.97785   0.34712   0.24937   0.00000  Uiso   1.00
C246   C     0.98464   0.40173   0.24914   0.00000  Uiso   1.00
C247   C     0.96292   0.49388   0.14625   0.00000  Uiso   1.00
C248   C     0.94296   0.43952   0.00342   0.00000  Uiso   1.00
C249   C     0.93951   0.48129   0.08952   0.00000  Uiso   1.00
C250   C     0.68889   0.53032   0.44619   0.00000  Uiso   1.00
C251   C     0.70756   0.53300   0.00233   0.00000  Uiso   1.00
C252   C     0.80062   0.50024   0.49374   0.00000  Uiso   1.00
C253   C     0.76165   0.51568   0.02620   0.00000  Uiso   1.00
C254   C     0.89430   0.43522   0.38186   0.00000  Uiso   1.00
C255   C     0.84873   0.54514   0.38863   0.00000  Uiso   1.00
C256   C     0.72947   0.33466   0.20599   0.00000  Uiso   1.00
C257   C     0.78389   0.50253   0.43740   0.00000  Uiso   1.00
C258   C     0.85697   0.48408   0.01500   0.00000  Uiso   1.00
C259   C     0.88897   0.45910   0.48038   0.00000  Uiso   1.00
C260   C     0.86950   0.46205   0.42398   0.00000  Uiso   1.00
C261   C     0.82730   0.49691   0.40727   0.00000  Uiso   1.00
C262   C     0.88417   0.49674   0.06835   0.00000  Uiso   1.00
C263   C     0.96783   0.45024   0.05825   0.00000  Uiso   1.00
H264   H     0.67678   0.43636   0.07552   0.00000  Uiso   1.00
H265   H     0.88655   0.44903   0.34133   0.00000  Uiso   1.00
H266   H     0.94208   0.66470   0.26670   0.00000  Uiso   1.00
H267   H     0.82394   0.45547   0.21333   0.00000  Uiso   1.00
H268   H     0.84213   0.54663   0.28256   0.00000  Uiso   1.00
H269   H     0.96900   0.42005   0.47951   0.00000  Uiso   1.00
H270   H     0.86412   0.52176   0.09330   0.00000  Uiso   1.00
H271   H     0.97855   0.54098   0.42859   0.00000  Uiso   1.00
H272   H     0.77142   0.51380   0.06979   0.00000  Uiso   1.00
H273   H     0.67875   0.54623   0.02747   0.00000  Uiso   1.00
N274   N     0.81160   0.48556   0.23543   0.00000  Uiso   1.00
N275   N     0.85507   0.51444   0.26458   0.00000  Uiso   1.00
N276   N     0.86634   0.58455   0.37569   0.00000  Uiso   1.00
N277   N     0.76479   0.34799   0.18261   0.00000  Uiso   1.00
O278   O     0.96435   0.57963   0.25358   0.00000  Uiso   1.00
O279   O     0.72408   0.57038   0.24424   0.00000  Uiso   1.00
O280   O     0.98157   0.50691   0.33380   0.00000  Uiso   1.00
O281   O     0.74130   0.49766   0.32446   0.00000  Uiso   1.00
O282   O     0.94258   0.42962   0.25577   0.00000  Uiso   1.00
O283   O     0.70231   0.42037   0.24643   0.00000  Uiso   1.00
O284   O     0.92537   0.50234   0.17554   0.00000  Uiso   1.00
O285   O     0.68510   0.49309   0.16620   0.00000  Uiso   1.00
O286   O     0.91953   0.39558   0.39024   0.00000  Uiso   1.00
Zn287  Zn    0.93786   0.50618   0.25624   0.00000  Uiso   1.00
Zn288  Zn    0.72881   0.49382   0.24377   0.00000  Uiso   1.00
C289   C     0.01391   0.93122   0.24596   0.00000  Uiso   1.00
C290   C     0.05944   0.84703   0.41327   0.00000  Uiso   1.00
C291   C     0.01831   0.98426   0.23535   0.00000  Uiso   1.00
C292   C     0.03737   0.83938   0.35440   0.00000  Uiso   1.00
C293   C     0.31118   0.68045   0.24937   0.00000  Uiso   1.00
C294   C     0.31798   0.73506   0.24914   0.00000  Uiso   1.00
C295   C     0.29625   0.82722   0.14625   0.00000  Uiso   1.00
C296   C     0.27630   0.77285   0.00342   0.00000  Uiso   1.00
C297   C     0.27284   0.81463   0.08952   0.00000  Uiso   1.00
C298   C     0.02223   0.86365   0.44619   0.00000  Uiso   1.00
C299   C     0.04089   0.86633   0.00233   0.00000  Uiso   1.00
C300   C     0.13396   0.83357   0.49374   0.00000  Uiso   1.00
C301   C     0.09498   0.84901   0.02620   0.00000  Uiso   1.00
C302   C     0.22763   0.76856   0.38186   0.00000  Uiso   1.00
C303   C     0.18207   0.87847   0.38863   0.00000  Uiso   1.00
C304   C     0.06280   0.66799   0.20599   0.00000  Uiso   1.00
C305   C     0.11722   0.83587   0.43740   0.00000  Uiso   1.00
C306   C     0.19030   0.81741   0.01500   0.00000  Uiso   1.00
C307   C     0.22230   0.79243   0.48038   0.00000  Uiso   1.00
C308   C     0.20283   0.79539   0.42398   0.00000  Uiso   1.00
C309   C     0.16063   0.83024   0.40727   0.00000  Uiso   1.00
C310   C     0.21750   0.83007   0.06835   0.00000  Uiso   1.00
C311   C     0.30116   0.78358   0.05825   0.00000  Uiso   1.00
H312   H     0.01011   0.76969   0.07552   0.00000  Uiso   1.00
H313   H     0.21988   0.78236   0.34133   0.00000  Uiso   1.00
H314   H     0.27542   0.99804   0.26670   0.00000  Uiso   1.00
H315   H     0.15727   0.78880   0.21333   0.00000  Uiso   1.00
H316   H     0.17546   0.87996   0.28256   0.00000  Uiso   1.00
H317   H     0.30234   0.75338   0.47951   0.00000  Uiso   1.00
H318   H     0.19745   0.85509   0.09330   0.00000  Uiso   1.00
H319   H     0.31188   0.87431   0.42859   0.00000  Uiso   1.00
H320   H     0.10476   0.84713   0.06979   0.00000  Uiso   1.00
H321   H     0.01208   0.87956   0.02747   0.00000  Uiso   1.00
N322   N     0.14493   0.81890   0.23543   0.00000  Uiso   1.00
N323   N     0.18840   0.84777   0.26458   0.00000  Uiso   1.00
N324   N     0.19968   0.91788   0.37569   0.00000  Uiso   1.00
N325   N     0.09813   0.68132   0.18261   0.00000  Uiso   1.00
O326   O     0.29769   0.91296   0.25358   0.00000  Uiso   1.00
O327   O     0.05742   0.90371   0.24424   0.00000  Uiso   1.00
O328   O     0.31490   0.84024   0.33380   0.00000  Uiso   1.00
O329   O     0.07463   0.83099   0.32446   0.00000  Uiso   1.00
O330   O     0.27592   0.76296   0.25577   0.00000  Uiso   1.00
O331   O     0.03565   0.75371   0.24643   0.00000  Uiso   1.00
O332   O     0.25870   0.83567   0.17554   0.00000  Uiso   1.00
O333   O     0.01843   0.82642   0.16620   0.00000  Uiso   1.00
O334   O     0.25287   0.72892   0.39024   0.00000  Uiso   1.00
Zn335  Zn    0.27119   0.83951   0.25624   0.00000  Uiso   1.00
Zn336  Zn    0.06214   0.82716   0.24377   0.00000  Uiso   1.00
C337   C     0.34724   0.93122   0.24596   0.00000  Uiso   1.00
C338   C     0.39278   0.84703   0.41327   0.00000  Uiso   1.00
C339   C     0.35164   0.98426   0.23535   0.00000  Uiso   1.00
C340   C     0.37070   0.83938   0.35440   0.00000  Uiso   1.00
C341   C     0.64452   0.68045   0.24937   0.00000  Uiso   1.00
C342   C     0.65131   0.73506   0.24914   0.00000  Uiso   1.00
C343   C     0.62959   0.82722   0.14625   0.00000  Uiso   1.00
C344   C     0.60963   0.77285   0.00342   0.00000  Uiso   1.00
C345   C     0.60617   0.81463   0.08952   0.00000  Uiso   1.00
C346   C     0.35556   0.86365   0.44619   0.00000  Uiso   1.00
C347   C     0.37423   0.86633   0.00233   0.00000  Uiso   1.00
C348   C     0.46729   0.83357   0.49374   0.00000  Uiso   1.00
C349   C     0.42832   0.84901   0.02620   0.00000  Uiso   1.00
C350   C     0.56097   0.76856   0.38186   0.00000  Uiso   1.00
C351   C     0.51540   0.87847   0.38863   0.00000  Uiso   1.00
C352   C     0.39613   0.66799   0.20599   0.00000  Uiso   1.00
C353   C     0.45055   0.83587   0.43740   0.00000  Uiso   1.00
C354   C     0.52364   0.81741   0.01500   0.00000  Uiso   1.00
C355   C     0.55563   0.79243   0.48038   0.00000  Uiso   1.00
C356   C     0.53616   0.79539   0.42398   0.00000  Uiso   1.00
C357   C     0.49397   0.83024   0.40727   0.00000  Uiso   1.00
C358   C     0.55083   0.83007   0.06835   0.00000  Uiso   1.00
C359   C     0.63450   0.78358   0.05825   0.00000  Uiso   1.00
H360   H     0.34344   0.76969   0.07552   0.00000  Uiso   1.00
H361   H     0.55321   0.78236   0.34133   0.00000  Uiso   1.00
H362   H     0.60875   0.99804   0.26670   0.00000  Uiso   1.00
H363   H     0.49060   0.78880   0.21333   0.00000  Uiso   1.00
H364   H     0.50880   0.87996   0.28256   0.00000  Uiso   1.00
H365   H     0.63567   0.75338   0.47951   0.00000  Uiso   1.00
H366   H     0.53078   0.85509   0.09330   0.00000  Uiso   1.00
H367   H     0.64521   0.87431   0.42859   0.00000  Uiso   1.00
H368   H     0.43809   0.84713   0.06979   0.00000  Uiso   1.00
H369   H     0.34541   0.87956   0.02747   0.00000  Uiso   1.00
N370   N     0.47827   0.81890   0.23543   0.00000  Uiso   1.00
N371   N     0.52173   0.84777   0.26458   0.00000  Uiso   1.00
N372   N     0.53301   0.91788   0.37569   0.00000  Uiso   1.00
N373   N     0.43146   0.68132   0.18261   0.00000  Uiso   1.00
O374   O     0.63102   0.91296   0.25358   0.00000  Uiso   1.00
O375   O     0.39075   0.90371   0.24424   0.00000  Uiso   1.00
O376   O     0.64823   0.84024   0.33380   0.00000  Uiso   1.00
O377   O     0.40796   0.83099   0.32446   0.00000  Uiso   1.00
O378   O     0.60925   0.76296   0.25577   0.00000  Uiso   1.00
O379   O     0.36898   0.75371   0.24643   0.00000  Uiso   1.00
O380   O     0.59204   0.83567   0.17554   0.00000  Uiso   1.00
O381   O     0.35177   0.82642   0.16620   0.00000  Uiso   1.00
O382   O     0.58620   0.72892   0.39024   0.00000  Uiso   1.00
Zn383  Zn    0.60453   0.83951   0.25624   0.00000  Uiso   1.00
Zn384  Zn    0.39547   0.82716   0.24377   0.00000  Uiso   1.00
C385   C     0.68057   0.93122   0.24596   0.00000  Uiso   1.00
C386   C     0.72611   0.84703   0.41327   0.00000  Uiso   1.00
C387   C     0.68497   0.98426   0.23535   0.00000  Uiso   1.00
C388   C     0.70404   0.83938   0.35440   0.00000  Uiso   1.00
C389   C     0.97785   0.68045   0.24937   0.00000  Uiso   1.00
C390   C     0.98464   0.73506   0.24914   0.00000  Uiso   1.00
C391   C     0.96292   0.82722   0.14625   0.00000  Uiso   1.00
C392   C     0.94296   0.77285   0.00342   0.00000  Uiso   1.00
C393   C     0.93951   0.81463   0.08952   0.00000  Uiso   1.00
C394   C     0.68889   0.86365   0.44619   0.00000  Uiso   1.00
C395   C     0.70756   0.86633   0.00233   0.00000  Uiso   1.00
C396   C     0.80062   0.83357   0.49374   0.00000  Uiso   1.00
C397   C     0.76165   0.84901   0.02620   0.00000  Uiso   1.00
C398   C     0.89430   0.76856   0.38186   0.00000  Uiso   1.00
C399   C     0.84873   0.87847   0.38863   0.00000  Uiso   1.00
C400   C     0.72947   0.66799   0.20599   0.00000  Uiso   1.00
C401   C     0.78389   0.83587   0.43740   0.00000  Uiso   1.00
C402   C     0.85697   0.81741   0.01500   0.00000  Uiso   1.00
C403   C     0.88897   0.79243   0.48038   0.00000  Uiso   1.00
C404   C     0.86950   0.79539   0.42398   0.00000  Uiso   1.00
C405   C     0.82730   0.83024   0.40727   0.00000  Uiso   1.00
C406   C     0.88417   0.83007   0.06835   0.00000  Uiso   1.00
C407   C     0.96783   0.78358   0.05825   0.00000  Uiso   1.00
H408   H     0.67678   0.76969   0.07552   0.00000  Uiso   1.00
H409   H     0.88655   0.78236   0.34133   0.00000  Uiso   1.00
H410   H     0.94208   0.99804   0.26670   0.00000  Uiso   1.00
H411   H     0.82394   0.78880   0.21333   0.00000  Uiso   1.00
H412   H     0.84213   0.87996   0.28256   0.00000  Uiso   1.00
H413   H     0.96900   0.75338   0.47951   0.00000  Uiso   1.00
H414   H     0.86412   0.85509   0.09330   0.00000  Uiso   1.00
H415   H     0.97855   0.87431   0.42859   0.00000  Uiso   1.00
H416   H     0.77142   0.84713   0.06979   0.00000  Uiso   1.00
H417   H     0.67875   0.87956   0.02747   0.00000  Uiso   1.00
N418   N     0.81160   0.81890   0.23543   0.00000  Uiso   1.00
N419   N     0.85507   0.84777   0.26458   0.00000  Uiso   1.00
N420   N     0.86634   0.91788   0.37569   0.00000  Uiso   1.00
N421   N     0.76479   0.68132   0.18261   0.00000  Uiso   1.00
O422   O     0.96435   0.91296   0.25358   0.00000  Uiso   1.00
O423   O     0.72408   0.90371   0.24424   0.00000  Uiso   1.00
O424   O     0.98157   0.84024   0.33380   0.00000  Uiso   1.00
O425   O     0.74130   0.83099   0.32446   0.00000  Uiso   1.00
O426   O     0.94258   0.76296   0.25577   0.00000  Uiso   1.00
O427   O     0.70231   0.75371   0.24643   0.00000  Uiso   1.00
O428   O     0.92537   0.83567   0.17554   0.00000  Uiso   1.00
O429   O     0.68510   0.82642   0.16620   0.00000  Uiso   1.00
O430   O     0.91953   0.72892   0.39024   0.00000  Uiso   1.00
Zn431  Zn    0.93786   0.83951   0.25624   0.00000  Uiso   1.00
Zn432  Zn    0.72881   0.82716   0.24377   0.00000  Uiso   1.00
C433   C     0.01391   0.26455   0.74596   0.00000  Uiso   1.00
C434   C     0.05944   0.18036   0.91327   0.00000  Uiso   1.00
C435   C     0.01831   0.31759   0.73535   0.00000  Uiso   1.00
C436   C     0.03737   0.17271   0.85440   0.00000  Uiso   1.00
C437   C     0.31118   0.01378   0.74937   0.00000  Uiso   1.00
C438   C     0.31798   0.06840   0.74914   0.00000  Uiso   1.00
C439   C     0.29625   0.16055   0.64625   0.00000  Uiso   1.00
C440   C     0.27630   0.10619   0.50342   0.00000  Uiso   1.00
C441   C     0.27284   0.14796   0.58952   0.00000  Uiso   1.00
C442   C     0.02223   0.19699   0.94619   0.00000  Uiso   1.00
C443   C     0.04089   0.19967   0.50233   0.00000  Uiso   1.00
C444   C     0.13396   0.16691   0.99374   0.00000  Uiso   1.00
C445   C     0.09498   0.18235   0.52620   0.00000  Uiso   1.00
C446   C     0.22763   0.10189   0.88186   0.00000  Uiso   1.00
C447   C     0.18207   0.21181   0.88863   0.00000  Uiso   1.00
C448   C     0.06280   0.00132   0.70599   0.00000  Uiso   1.00
C449   C     0.11722   0.16920   0.93740   0.00000  Uiso   1.00
C450   C     0.19030   0.15075   0.51500   0.00000  Uiso   1.00
C451   C     0.22230   0.12577   0.98038   0.00000  Uiso   1.00
C452   C     0.20283   0.12872   0.92398   0.00000  Uiso   1.00
C453   C     0.16063   0.16357   0.90727   0.00000  Uiso   1.00
C454   C     0.21750   0.16341   0.56835   0.00000  Uiso   1.00
C455   C     0.30116   0.11691   0.55825   0.00000  Uiso   1.00
H456   H     0.01011   0.10303   0.57552   0.00000  Uiso   1.00
H457   H     0.21988   0.11569   0.84133   0.00000  Uiso   1.00
H458   H     0.27542   0.33137   0.76670   0.00000  Uiso   1.00
H459   H     0.15727   0.12214   0.71333   0.00000  Uiso   1.00
H460   H     0.17546   0.21330   0.78256   0.00000  Uiso   1.00
H461   H     0.30234   0.08671   0.97951   0.00000  Uiso   1.00
H462   H     0.19745   0.18843   0.59330   0.00000  Uiso   1.00
H463   H     0.31188   0.20764   0.92859   0.00000  Uiso   1.00
H464   H     0.10476   0.18046   0.56979   0.00000  Uiso   1.00
H465   H     0.01208   0.21289   0.52747   0.00000  Uiso   1.00
N466   N     0.14493   0.15223   0.73543   0.00000  Uiso   1.00
N467   N     0.18840   0.18110   0.76458   0.00000  Uiso   1.00
N468   N     0.19968   0.25122   0.87569   0.00000  Uiso   1.00
N469   N     0.09813   0.01466   0.68261   0.00000  Uiso   1.00
O470   O     0.29769   0.24629   0.75358   0.00000  Uiso   1.00
O471   O     0.05742   0.23704   0.74424   0.00000  Uiso   1.00
O472   O     0.31490   0.17358   0.83380   0.00000  Uiso   1.00
O473   O     0.07463   0.16433   0.82446   0.00000  Uiso   1.00
O474   O     0.27592   0.09629   0.75577   0.00000  Uiso   1.00
O475   O     0.03565   0.08704   0.74643   0.00000  Uiso   1.00
O476   O     0.25870   0.16901   0.67554   0.00000  Uiso   1.00
O477   O     0.01843   0.15976   0.66620   0.00000  Uiso   1.00
O478   O     0.25287   0.06225   0.89024   0.00000  Uiso   1.00
Zn479  Zn    0.27119   0.17284   0.75624   0.00000  Uiso   1.00
Zn480  Zn    0.06214   0.16049   0.74377   0.00000  Uiso   1.00
C481   C     0.34724   0.26455   0.74596   0.00000  Uiso   1.00
C482   C     0.39278   0.18036   0.91327   0.00000  Uiso   1.00
C483   C     0.35164   0.31759   0.73535   0.00000  Uiso   1.00
C484   C     0.37070   0.17271   0.85440   0.00000  Uiso   1.00
C485   C     0.64452   0.01378   0.74937   0.00000  Uiso   1.00
C486   C     0.65131   0.06840   0.74914   0.00000  Uiso   1.00
C487   C     0.62959   0.16055   0.64625   0.00000  Uiso   1.00
C488   C     0.60963   0.10619   0.50342   0.00000  Uiso   1.00
C489   C     0.60617   0.14796   0.58952   0.00000  Uiso   1.00
C490   C     0.35556   0.19699   0.94619   0.00000  Uiso   1.00
C491   C     0.37423   0.19967   0.50233   0.00000  Uiso   1.00
C492   C     0.46729   0.16691   0.99374   0.00000  Uiso   1.00
C493   C     0.42832   0.18235   0.52620   0.00000  Uiso   1.00
C494   C     0.56097   0.10189   0.88186   0.00000  Uiso   1.00
C495   C     0.51540   0.21181   0.88863   0.00000  Uiso   1.00
C496   C     0.39613   0.00132   0.70599   0.00000  Uiso   1.00
C497   C     0.45055   0.16920   0.93740   0.00000  Uiso   1.00
C498   C     0.52364   0.15075   0.51500   0.00000  Uiso   1.00
C499   C     0.55563   0.12577   0.98038   0.00000  Uiso   1.00
C500   C     0.53616   0.12872   0.92398   0.00000  Uiso   1.00
C501   C     0.49397   0.16357   0.90727   0.00000  Uiso   1.00
C502   C     0.55083   0.16341   0.56835   0.00000  Uiso   1.00
C503   C     0.63450   0.11691   0.55825   0.00000  Uiso   1.00
H504   H     0.34344   0.10303   0.57552   0.00000  Uiso   1.00
H505   H     0.55321   0.11569   0.84133   0.00000  Uiso   1.00
H506   H     0.60875   0.33137   0.76670   0.00000  Uiso   1.00
H507   H     0.49060   0.12214   0.71333   0.00000  Uiso   1.00
H508   H     0.50880   0.21330   0.78256   0.00000  Uiso   1.00
H509   H     0.63567   0.08671   0.97951   0.00000  Uiso   1.00
H510   H     0.53078   0.18843   0.59330   0.00000  Uiso   1.00
H511   H     0.64521   0.20764   0.92859   0.00000  Uiso   1.00
H512   H     0.43809   0.18046   0.56979   0.00000  Uiso   1.00
H513   H     0.34541   0.21289   0.52747   0.00000  Uiso   1.00
N514   N     0.47827   0.15223   0.73543   0.00000  Uiso   1.00
N515   N     0.52173   0.18110   0.76458   0.00000  Uiso   1.00
N516   N     0.53301   0.25122   0.87569   0.00000  Uiso   1.00
N517   N     0.43146   0.01466   0.68261   0.00000  Uiso   1.00
O518   O     0.63102   0.24629   0.75358   0.00000  Uiso   1.00
O519   O     0.39075   0.23704   0.74424   0.00000  Uiso   1.00
O520   O     0.64823   0.17358   0.83380   0.00000  Uiso   1.00
O521   O     0.40796   0.16433   0.82446   0.00000  Uiso   1.00
O522   O     0.60925   0.09629   0.75577   0.00000  Uiso   1.00
O523   O     0.36898   0.08704   0.74643   0.00000  Uiso   1.00
O524   O     0.59204   0.16901   0.67554   0.00000  Uiso   1.00
O525   O     0.35177   0.15976   0.66620   0.00000  Uiso   1.00
O526   O     0.58620   0.06225   0.89024   0.00000  Uiso   1.00
Zn527  Zn    0.60453   0.17284   0.75624   0.00000  Uiso   1.00
Zn528  Zn    0.39547   0.16049   0.74377   0.00000  Uiso   1.00
C529   C     0.68057   0.26455   0.74596   0.00000  Uiso   1.00
C530   C     0.72611   0.18036   0.91327   0.00000  Uiso   1.00
C531   C     0.68497   0.31759   0.73535   0.00000  Uiso   1.00
C532   C     0.70404   0.17271   0.85440   0.00000  Uiso   1.00
C533   C     0.97785   0.01378   0.74937   0.00000  Uiso   1.00
C534   C     0.98464   0.06840   0.74914   0.00000  Uiso   1.00
C535   C     0.96292   0.16055   0.64625   0.00000  Uiso   1.00
C536   C     0.94296   0.10619   0.50342   0.00000  Uiso   1.00
C537   C     0.93951   0.14796   0.58952   0.00000  Uiso   1.00
C538   C     0.68889   0.19699   0.94619   0.00000  Uiso   1.00
C539   C     0.70756   0.19967   0.50233   0.00000  Uiso   1.00
C540   C     0.80062   0.16691   0.99374   0.00000  Uiso   1.00
C541   C     0.76165   0.18235   0.52620   0.00000  Uiso   1.00
C542   C     0.89430   0.10189   0.88186   0.00000  Uiso   1.00
C543   C     0.84873   0.21181   0.88863   0.00000  Uiso   1.00
C544   C     0.72947   0.00132   0.70599   0.00000  Uiso   1.00
C545   C     0.78389   0.16920   0.93740   0.00000  Uiso   1.00
C546   C     0.85697   0.15075   0.51500   0.00000  Uiso   1.00
C547   C     0.88897   0.12577   0.98038   0.00000  Uiso   1.00
C548   C     0.86950   0.12872   0.92398   0.00000  Uiso   1.00
C549   C     0.82730   0.16357   0.90727   0.00000  Uiso   1.00
C550   C     0.88417   0.16341   0.56835   0.00000  Uiso   1.00
C551   C     0.96783   0.11691   0.55825   0.00000  Uiso   1.00
H552   H     0.67678   0.10303   0.57552   0.00000  Uiso   1.00
H553   H     0.88655   0.11569   0.84133   0.00000  Uiso   1.00
H554   H     0.94208   0.33137   0.76670   0.00000  Uiso   1.00
H555   H     0.82394   0.12214   0.71333   0.00000  Uiso   1.00
H556   H     0.84213   0.21330   0.78256   0.00000  Uiso   1.00
H557   H     0.96900   0.08671   0.97951   0.00000  Uiso   1.00
H558   H     0.86412   0.18843   0.59330   0.00000  Uiso   1.00
H559   H     0.97855   0.20764   0.92859   0.00000  Uiso   1.00
H560   H     0.77142   0.18046   0.56979   0.00000  Uiso   1.00
H561   H     0.67875   0.21289   0.52747   0.00000  Uiso   1.00
N562   N     0.81160   0.15223   0.73543   0.00000  Uiso   1.00
N563   N     0.85507   0.18110   0.76458   0.00000  Uiso   1.00
N564   N     0.86634   0.25122   0.87569   0.00000  Uiso   1.00
N565   N     0.76479   0.01466   0.68261   0.00000  Uiso   1.00
O566   O     0.96435   0.24629   0.75358   0.00000  Uiso   1.00
O567   O     0.72408   0.23704   0.74424   0.00000  Uiso   1.00
O568   O     0.98157   0.17358   0.83380   0.00000  Uiso   1.00
O569   O     0.74130   0.16433   0.82446   0.00000  Uiso   1.00
O570   O     0.94258   0.09629   0.75577   0.00000  Uiso   1.00
O571   O     0.70231   0.08704   0.74643   0.00000  Uiso   1.00
O572   O     0.92537   0.16901   0.67554   0.00000  Uiso   1.00
O573   O     0.68510   0.15976   0.66620   0.00000  Uiso   1.00
O574   O     0.91953   0.06225   0.89024   0.00000  Uiso   1.00
Zn575  Zn    0.93786   0.17284   0.75624   0.00000  Uiso   1.00
Zn576  Zn    0.72881   0.16049   0.74377   0.00000  Uiso   1.00
C577   C     0.01391   0.59788   0.74596   0.00000  Uiso   1.00
C578   C     0.05944   0.51369   0.91327   0.00000  Uiso   1.00
C579   C     0.01831   0.65092   0.73535   0.00000  Uiso   1.00
C580   C     0.03737   0.50604   0.85440   0.00000  Uiso   1.00
C581   C     0.31118   0.34712   0.74937   0.00000  Uiso   1.00
C582   C     0.31798   0.40173   0.74914   0.00000  Uiso   1.00
C583   C     0.29625   0.49388   0.64625   0.00000  Uiso   1.00
C584   C     0.27630   0.43952   0.50342   0.00000  Uiso   1.00
C585   C     0.27284   0.48129   0.58952   0.00000  Uiso   1.00
C586   C     0.02223   0.53032   0.94619   0.00000  Uiso   1.00
C587   C     0.04089   0.53300   0.50233   0.00000  Uiso   1.00
C588   C     0.13396   0.50024   0.99374   0.00000  Uiso   1.00
C589   C     0.09498   0.51568   0.52620   0.00000  Uiso   1.00
C590   C     0.22763   0.43522   0.88186   0.00000  Uiso   1.00
C591   C     0.18207   0.54514   0.88863   0.00000  Uiso   1.00
C592   C     0.06280   0.33466   0.70599   0.00000  Uiso   1.00
C593   C     0.11722   0.50253   0.93740   0.00000  Uiso   1.00
C594   C     0.19030   0.48408   0.51500   0.00000  Uiso   1.00
C595   C     0.22230   0.45910   0.98038   0.00000  Uiso   1.00
C596   C     0.20283   0.46205   0.92398   0.00000  Uiso   1.00
C597   C     0.16063   0.49691   0.90727   0.00000  Uiso   1.00
C598   C     0.21750   0.49674   0.56835   0.00000  Uiso   1.00
C599   C     0.30116   0.45024   0.55825   0.00000  Uiso   1.00
H600   H     0.01011   0.43636   0.57552   0.00000  Uiso   1.00
H601   H     0.21988   0.44903   0.84133   0.00000  Uiso   1.00
H602   H     0.27542   0.66470   0.76670   0.00000  Uiso   1.00
H603   H     0.15727   0.45547   0.71333   0.00000  Uiso   1.00
H604   H     0.17546   0.54663   0.78256   0.00000  Uiso   1.00
H605   H     0.30234   0.42005   0.97951   0.00000  Uiso   1.00
H606   H     0.19745   0.52176   0.59330   0.00000  Uiso   1.00
H607   H     0.31188   0.54098   0.92859   0.00000  Uiso   1.00
H608   H     0.10476   0.51380   0.56979   0.00000  Uiso   1.00
H609   H     0.01208   0.54623   0.52747   0.00000  Uiso   1.00
N610   N     0.14493   0.48556   0.73543   0.00000  Uiso   1.00
N611   N     0.18840   0.51444   0.76458   0.00000  Uiso   1.00
N612   N     0.19968   0.58455   0.87569   0.00000  Uiso   1.00
N613   N     0.09813   0.34799   0.68261   0.00000  Uiso   1.00
O614   O     0.29769   0.57963   0.75358   0.00000  Uiso   1.00
O615   O     0.05742   0.57038   0.74424   0.00000  Uiso   1.00
O616   O     0.31490   0.50691   0.83380   0.00000  Uiso   1.00
O617   O     0.07463   0.49766   0.82446   0.00000  Uiso   1.00
O618   O     0.27592   0.42962   0.75577   0.00000  Uiso   1.00
O619   O     0.03565   0.42037   0.74643   0.00000  Uiso   1.00
O620   O     0.25870   0.50234   0.67554   0.00000  Uiso   1.00
O621   O     0.01843   0.49309   0.66620   0.00000  Uiso   1.00
O622   O     0.25287   0.39558   0.89024   0.00000  Uiso   1.00
Zn623  Zn    0.27119   0.50618   0.75624   0.00000  Uiso   1.00
Zn624  Zn    0.06214   0.49382   0.74377   0.00000  Uiso   1.00
C625   C     0.34724   0.59788   0.74596   0.00000  Uiso   1.00
C626   C     0.39278   0.51369   0.91327   0.00000  Uiso   1.00
C627   C     0.35164   0.65092   0.73535   0.00000  Uiso   1.00
C628   C     0.37070   0.50604   0.85440   0.00000  Uiso   1.00
C629   C     0.64452   0.34712   0.74937   0.00000  Uiso   1.00
C630   C     0.65131   0.40173   0.74914   0.00000  Uiso   1.00
C631   C     0.62959   0.49388   0.64625   0.00000  Uiso   1.00
C632   C     0.60963   0.43952   0.50342   0.00000  Uiso   1.00
C633   C     0.60617   0.48129   0.58952   0.00000  Uiso   1.00
C634   C     0.35556   0.53032   0.94619   0.00000  Uiso   1.00
C635   C     0.37423   0.53300   0.50233   0.00000  Uiso   1.00
C636   C     0.46729   0.50024   0.99374   0.00000  Uiso   1.00
C637   C     0.42832   0.51568   0.52620   0.00000  Uiso   1.00
C638   C     0.56097   0.43522   0.88186   0.00000  Uiso   1.00
C639   C     0.51540   0.54514   0.88863   0.00000  Uiso   1.00
C640   C     0.39613   0.33466   0.70599   0.00000  Uiso   1.00
C641   C     0.45055   0.50253   0.93740   0.00000  Uiso   1.00
C642   C     0.52364   0.48408   0.51500   0.00000  Uiso   1.00
C643   C     0.55563   0.45910   0.98038   0.00000  Uiso   1.00
C644   C     0.53616   0.46205   0.92398   0.00000  Uiso   1.00
C645   C     0.49397   0.49691   0.90727   0.00000  Uiso   1.00
C646   C     0.55083   0.49674   0.56835   0.00000  Uiso   1.00
C647   C     0.63450   0.45024   0.55825   0.00000  Uiso   1.00
H648   H     0.34344   0.43636   0.57552   0.00000  Uiso   1.00
H649   H     0.55321   0.44903   0.84133   0.00000  Uiso   1.00
H650   H     0.60875   0.66470   0.76670   0.00000  Uiso   1.00
H651   H     0.49060   0.45547   0.71333   0.00000  Uiso   1.00
H652   H     0.50880   0.54663   0.78256   0.00000  Uiso   1.00
H653   H     0.63567   0.42005   0.97951   0.00000  Uiso   1.00
H654   H     0.53078   0.52176   0.59330   0.00000  Uiso   1.00
H655   H     0.64521   0.54098   0.92859   0.00000  Uiso   1.00
H656   H     0.43809   0.51380   0.56979   0.00000  Uiso   1.00
H657   H     0.34541   0.54623   0.52747   0.00000  Uiso   1.00
N658   N     0.47827   0.48556   0.73543   0.00000  Uiso   1.00
N659   N     0.52173   0.51444   0.76458   0.00000  Uiso   1.00
N660   N     0.53301   0.58455   0.87569   0.00000  Uiso   1.00
N661   N     0.43146   0.34799   0.68261   0.00000  Uiso   1.00
O662   O     0.63102   0.57963   0.75358   0.00000  Uiso   1.00
O663   O     0.39075   0.57038   0.74424   0.00000  Uiso   1.00
O664   O     0.64823   0.50691   0.83380   0.00000  Uiso   1.00
O665   O     0.40796   0.49766   0.82446   0.00000  Uiso   1.00
O666   O     0.60925   0.42962   0.75577   0.00000  Uiso   1.00
O667   O     0.36898   0.42037   0.74643   0.00000  Uiso   1.00
O668   O     0.59204   0.50234   0.67554   0.00000  Uiso   1.00
O669   O     0.35177   0.49309   0.66620   0.00000  Uiso   1.00
O670   O     0.58620   0.39558   0.89024   0.00000  Uiso   1.00
Zn671  Zn    0.60453   0.50618   0.75624   0.00000  Uiso   1.00
Zn672  Zn    0.39547   0.49382   0.74377   0.00000  Uiso   1.00
C673   C     0.68057   0.59788   0.74596   0.00000  Uiso   1.00
C674   C     0.72611   0.51369   0.91327   0.00000  Uiso   1.00
C675   C     0.68497   0.65092   0.73535   0.00000  Uiso   1.00
C676   C     0.70404   0.50604   0.85440   0.00000  Uiso   1.00
C677   C     0.97785   0.34712   0.74937   0.00000  Uiso   1.00
C678   C     0.98464   0.40173   0.74914   0.00000  Uiso   1.00
C679   C     0.96292   0.49388   0.64625   0.00000  Uiso   1.00
C680   C     0.94296   0.43952   0.50342   0.00000  Uiso   1.00
C681   C     0.93951   0.48129   0.58952   0.00000  Uiso   1.00
C682   C     0.68889   0.53032   0.94619   0.00000  Uiso   1.00
C683   C     0.70756   0.53300   0.50233   0.00000  Uiso   1.00
C684   C     0.80062   0.50024   0.99374   0.00000  Uiso   1.00
C685   C     0.76165   0.51568   0.52620   0.00000  Uiso   1.00
C686   C     0.89430   0.43522   0.88186   0.00000  Uiso   1.00
C687   C     0.84873   0.54514   0.88863   0.00000  Uiso   1.00
C688   C     0.72947   0.33466   0.70599   0.00000  Uiso   1.00
C689   C     0.78389   0.50253   0.93740   0.00000  Uiso   1.00
C690   C     0.85697   0.48408   0.51500   0.00000  Uiso   1.00
C691   C     0.88897   0.45910   0.98038   0.00000  Uiso   1.00
C692   C     0.86950   0.46205   0.92398   0.00000  Uiso   1.00
C693   C     0.82730   0.49691   0.90727   0.00000  Uiso   1.00
C694   C     0.88417   0.49674   0.56835   0.00000  Uiso   1.00
C695   C     0.96783   0.45024   0.55825   0.00000  Uiso   1.00
H696   H     0.67678   0.43636   0.57552   0.00000  Uiso   1.00
H697   H     0.88655   0.44903   0.84133   0.00000  Uiso   1.00
H698   H     0.94208   0.66470   0.76670   0.00000  Uiso   1.00
H699   H     0.82394   0.45547   0.71333   0.00000  Uiso   1.00
H700   H     0.84213   0.54663   0.78256   0.00000  Uiso   1.00
H701   H     0.96900   0.42005   0.97951   0.00000  Uiso   1.00
H702   H     0.86412   0.52176   0.59330   0.00000  Uiso   1.00
H703   H     0.97855   0.54098   0.92859   0.00000  Uiso   1.00
H704   H     0.77142   0.51380   0.56979   0.00000  Uiso   1.00
H705   H     0.67875   0.54623   0.52747   0.00000  Uiso   1.00
N706   N     0.81160   0.48556   0.73543   0.00000  Uiso   1.00
N707   N     0.85507   0.51444   0.76458   0.00000  Uiso   1.00
N708   N     0.86634   0.58455   0.87569   0.00000  Uiso   1.00
N709   N     0.76479   0.34799   0.68261   0.00000  Uiso   1.00
O710   O     0.96435   0.57963   0.75358   0.00000  Uiso   1.00
O711   O     0.72408   0.57038   0.74424   0.00000  Uiso   1.00
O712   O     0.98157   0.50691   0.83380   0.00000  Uiso   1.00
O713   O     0.74130   0.49766   0.82446   0.00000  Uiso   1.00
O714   O     0.94258   0.42962   0.75577   0.00000  Uiso   1.00
O715   O     0.70231   0.42037   0.74643   0.00000  Uiso   1.00
O716   O     0.92537   0.50234   0.67554   0.00000  Uiso   1.00
O717   O     0.68510   0.49309   0.66620   0.00000  Uiso   1.00
O718   O     0.91953   0.39558   0.89024   0.00000  Uiso   1.00
Zn719  Zn    0.93786   0.50618   0.75624   0.00000  Uiso   1.00
Zn720  Zn    0.72881   0.49382   0.74377   0.00000  Uiso   1.00
C721   C     0.01391   0.93122   0.74596   0.00000  Uiso   1.00
C722   C     0.05944   0.84703   0.91327   0.00000  Uiso   1.00
C723   C     0.01831   0.98426   0.73535   0.00000  Uiso   1.00
C724   C     0.03737   0.83938   0.85440   0.00000  Uiso   1.00
C725   C     0.31118   0.68045   0.74937   0.00000  Uiso   1.00
C726   C     0.31798   0.73506   0.74914   0.00000  Uiso   1.00
C727   C     0.29625   0.82722   0.64625   0.00000  Uiso   1.00
C728   C     0.27630   0.77285   0.50342   0.00000  Uiso   1.00
C729   C     0.27284   0.81463   0.58952   0.00000  Uiso   1.00
C730   C     0.02223   0.86365   0.94619   0.00000  Uiso   1.00
C731   C     0.04089   0.86633   0.50233   0.00000  Uiso   1.00
C732   C     0.13396   0.83357   0.99374   0.00000  Uiso   1.00
C733   C     0.09498   0.84901   0.52620   0.00000  Uiso   1.00
C734   C     0.22763   0.76856   0.88186   0.00000  Uiso   1.00
C735   C     0.18207   0.87847   0.88863   0.00000  Uiso   1.00
C736   C     0.06280   0.66799   0.70599   0.00000  Uiso   1.00
C737   C     0.11722   0.83587   0.93740   0.00000  Uiso   1.00
C738   C     0.19030   0.81741   0.51500   0.00000  Uiso   1.00
C739   C     0.22230   0.79243   0.98038   0.00000  Uiso   1.00
C740   C     0.20283   0.79539   0.92398   0.00000  Uiso   1.00
C741   C     0.16063   0.83024   0.90727   0.00000  Uiso   1.00
C742   C     0.21750   0.83007   0.56835   0.00000  Uiso   1.00
C743   C     0.30116   0.78358   0.55825   0.00000  Uiso   1.00
H744   H     0.01011   0.76969   0.57552   0.00000  Uiso   1.00
H745   H     0.21988   0.78236   0.84133   0.00000  Uiso   1.00
H746   H     0.27542   0.99804   0.76670   0.00000  Uiso   1.00
H747   H     0.15727   0.78880   0.71333   0.00000  Uiso   1.00
H748   H     0.17546   0.87996   0.78256   0.00000  Uiso   1.00
H749   H     0.30234   0.75338   0.97951   0.00000  Uiso   1.00
H750   H     0.19745   0.85509   0.59330   0.00000  Uiso   1.00
H751   H     0.31188   0.87431   0.92859   0.00000  Uiso   1.00
H752   H     0.10476   0.84713   0.56979   0.00000  Uiso   1.00
H753   H     0.01208   0.87956   0.52747   0.00000  Uiso   1.00
N754   N     0.14493   0.81890   0.73543   0.00000  Uiso   1.00
N755   N     0.18840   0.84777   0.76458   0.00000  Uiso   1.00
N756   N     0.19968   0.91788   0.87569   0.00000  Uiso   1.00
N757   N     0.09813   0.68132   0.68261   0.00000  Uiso   1.00
O758   O     0.29769   0.91296   0.75358   0.00000  Uiso   1.00
O759   O     0.05742   0.90371   0.74424   0.00000  Uiso   1.00
O760   O     0.31490   0.84024   0.83380   0.00000  Uiso   1.00
O761   O     0.07463   0.83099   0.82446   0.00000  Uiso   1.00
O762   O     0.27592   0.76296   0.75577   0.00000  Uiso   1.00
O763   O     0.03565   0.75371   0.74643   0.00000  Uiso   1.00
O764   O     0.25870   0.83567   0.67554   0.00000  Uiso   1.00
O765   O     0.01843   0.82642   0.66620   0.00000  Uiso   1.00
O766   O     0.25287   0.72892   0.89024   0.00000  Uiso   1.00
Zn767  Zn    0.27119   0.83951   0.75624   0.00000  Uiso   1.00
Zn768  Zn    0.06214   0.82716   0.74377   0.00000  Uiso   1.00
C769   C     0.34724   0.93122   0.74596   0.00000  Uiso   1.00
C770   C     0.39278   0.84703   0.91327   0.00000  Uiso   1.00
C771   C     0.35164   0.98426   0.73535   0.00000  Uiso   1.00
C772   C     0.37070   0.83938   0.85440   0.00000  Uiso   1.00
C773   C     0.64452   0.68045   0.74937   0.00000  Uiso   1.00
C774   C     0.65131   0.73506   0.74914   0.00000  Uiso   1.00
C775   C     0.62959   0.82722   0.64625   0.00000  Uiso   1.00
C776   C     0.60963   0.77285   0.50342   0.00000  Uiso   1.00
C777   C     0.60617   0.81463   0.58952   0.00000  Uiso   1.00
C778   C     0.35556   0.86365   0.94619   0.00000  Uiso   1.00
C779   C     0.37423   0.86633   0.50233   0.00000  Uiso   1.00
C780   C     0.46729   0.83357   0.99374   0.00000  Uiso   1.00
C781   C     0.42832   0.84901   0.52620   0.00000  Uiso   1.00
C782   C     0.56097   0.76856   0.88186   0.00000  Uiso   1.00
C783   C     0.51540   0.87847   0.88863   0.00000  Uiso   1.00
C784   C     0.39613   0.66799   0.70599   0.00000  Uiso   1.00
C785   C     0.45055   0.83587   0.93740   0.00000  Uiso   1.00
C786   C     0.52364   0.81741   0.51500   0.00000  Uiso   1.00
C787   C     0.55563   0.79243   0.98038   0.00000  Uiso   1.00
C788   C     0.53616   0.79539   0.92398   0.00000  Uiso   1.00
C789   C     0.49397   0.83024   0.90727   0.00000  Uiso   1.00
C790   C     0.55083   0.83007   0.56835   0.00000  Uiso   1.00
C791   C     0.63450   0.78358   0.55825   0.00000  Uiso   1.00
H792   H     0.34344   0.76969   0.57552   0.00000  Uiso   1.00
H793   H     0.55321   0.78236   0.84133   0.00000  Uiso   1.00
H794   H     0.60875   0.99804   0.76670   0.00000  Uiso   1.00
H795   H     0.49060   0.78880   0.71333   0.00000  Uiso   1.00
H796   H     0.50880   0.87996   0.78256   0.00000  Uiso   1.00
H797   H     0.63567   0.75338   0.97951   0.00000  Uiso   1.00
H798   H     0.53078   0.85509   0.59330   0.00000  Uiso   1.00
H799   H     0.64521   0.87431   0.92859   0.00000  Uiso   1.00
H800   H     0.43809   0.84713   0.56979   0.00000  Uiso   1.00
H801   H     0.34541   0.87956   0.52747   0.00000  Uiso   1.00
N802   N     0.47827   0.81890   0.73543   0.00000  Uiso   1.00
N803   N     0.52173   0.84777   0.76458   0.00000  Uiso   1.00
N804   N     0.53301   0.91788   0.87569   0.00000  Uiso   1.00
N805   N     0.43146   0.68132   0.68261   0.00000  Uiso   1.00
O806   O     0.63102   0.91296   0.75358   0.00000  Uiso   1.00
O807   O     0.39075   0.90371   0.74424   0.00000  Uiso   1.00
O808   O     0.64823   0.84024   0.83380   0.00000  Uiso   1.00
O809   O     0.40796   0.83099   0.82446   0.00000  Uiso   1.00
O810   O     0.60925   0.76296   0.75577   0.00000  Uiso   1.00
O811   O     0.36898   0.75371   0.74643   0.00000  Uiso   1.00
O812   O     0.59204   0.83567   0.67554   0.00000  Uiso   1.00
O813   O     0.35177   0.82642   0.66620   0.00000  Uiso   1.00
O814   O     0.58620   0.72892   0.89024   0.00000  Uiso   1.00
Zn815  Zn    0.60453   0.83951   0.75624   0.00000  Uiso   1.00
Zn816  Zn    0.39547   0.82716   0.74377   0.00000  Uiso   1.00
C817   C     0.68057   0.93122   0.74596   0.00000  Uiso   1.00
C818   C     0.72611   0.84703   0.91327   0.00000  Uiso   1.00
C819   C     0.68497   0.98426   0.73535   0.00000  Uiso   1.00
C820   C     0.70404   0.83938   0.85440   0.00000  Uiso   1.00
C821   C     0.97785   0.68045   0.74937   0.00000  Uiso   1.00
C822   C     0.98464   0.73506   0.74914   0.00000  Uiso   1.00
C823   C     0.96292   0.82722   0.64625   0.00000  Uiso   1.00
C824   C     0.94296   0.77285   0.50342   0.00000  Uiso   1.00
C825   C     0.93951   0.81463   0.58952   0.00000  Uiso   1.00
C826   C     0.68889   0.86365   0.94619   0.00000  Uiso   1.00
C827   C     0.70756   0.86633   0.50233   0.00000  Uiso   1.00
C828   C     0.80062   0.83357   0.99374   0.00000  Uiso   1.00
C829   C     0.76165   0.84901   0.52620   0.00000  Uiso   1.00
C830   C     0.89430   0.76856   0.88186   0.00000  Uiso   1.00
C831   C     0.84873   0.87847   0.88863   0.00000  Uiso   1.00
C832   C     0.72947   0.66799   0.70599   0.00000  Uiso   1.00
C833   C     0.78389   0.83587   0.93740   0.00000  Uiso   1.00
C834   C     0.85697   0.81741   0.51500   0.00000  Uiso   1.00
C835   C     0.88897   0.79243   0.98038   0.00000  Uiso   1.00
C836   C     0.86950   0.79539   0.92398   0.00000  Uiso   1.00
C837   C     0.82730   0.83024   0.90727   0.00000  Uiso   1.00
C838   C     0.88417   0.83007   0.56835   0.00000  Uiso   1.00
C839   C     0.96783   0.78358   0.55825   0.00000  Uiso   1.00
H840   H     0.67678   0.76969   0.57552   0.00000  Uiso   1.00
H841   H     0.88655   0.78236   0.84133   0.00000  Uiso   1.00
H842   H     0.94208   0.99804   0.76670   0.00000  Uiso   1.00
H843   H     0.82394   0.78880   0.71333   0.00000  Uiso   1.00
H844   H     0.84213   0.87996   0.78256   0.00000  Uiso   1.00
H845   H     0.96900   0.75338   0.97951   0.00000  Uiso   1.00
H846   H     0.86412   0.85509   0.59330   0.00000  Uiso   1.00
H847   H     0.97855   0.87431   0.92859   0.00000  Uiso   1.00
H848   H     0.77142   0.84713   0.56979   0.00000  Uiso   1.00
H849   H     0.67875   0.87956   0.52747   0.00000  Uiso   1.00
N850   N     0.81160   0.81890   0.73543   0.00000  Uiso   1.00
N851   N     0.85507   0.84777   0.76458   0.00000  Uiso   1.00
N852   N     0.86634   0.91788   0.87569   0.00000  Uiso   1.00
N853   N     0.76479   0.68132   0.68261   0.00000  Uiso   1.00
O854   O     0.96435   0.91296   0.75358   0.00000  Uiso   1.00
O855   O     0.72408   0.90371   0.74424   0.00000  Uiso   1.00
O856   O     0.98157   0.84024   0.83380   0.00000  Uiso   1.00
O857   O     0.74130   0.83099   0.82446   0.00000  Uiso   1.00
O858   O     0.94258   0.76296   0.75577   0.00000  Uiso   1.00
O859   O     0.70231   0.75371   0.74643   0.00000  Uiso   1.00
O860   O     0.92537   0.83567   0.67554   0.00000  Uiso   1.00
O861   O     0.68510   0.82642   0.66620   0.00000  Uiso   1.00
O862   O     0.91953   0.72892   0.89024   0.00000  Uiso   1.00
Zn863  Zn    0.93786   0.83951   0.75624   0.00000  Uiso   1.00
Zn864  Zn    0.72881   0.82716   0.74377   0.00000  Uiso   1.00
loop_
_geom_bond_atom_site_label_1
_geom_bond_atom_site_label_2
_geom_bond_distance
_geom_bond_site_symmetry_2
_ccdc_geom_bond_type
C1     O39     1.287   .     A
C1     C3      1.407   .     S
C1     O134    1.277   1_455 S
C2     C4      1.466   .     S
C2     C17     1.413   .     A
C2     C10     1.402   .     A
C3     C245    1.350   1_455 S
C3     C160    1.458   .     S
C4     O41     1.294   .     A
C4     O136    1.299   1_455 S
C5     C6      1.407   .     S
C5     C339    1.350   1_545 S
C5     H314    1.088   1_545 S
C6     O42     1.293   .     A
C6     O91     1.272   .     S
C7     O44     1.288   .     A
C7     C9      1.434   .     S
C7     O93     1.290   .     S
C8     C23     1.389   .     A
C8     C451    1.410   1_554 S
C8     H461    1.078   1_554 S
C9     C22     1.383   .     A
C9     C23     1.396   .     A
C10    C443    1.389   .     S
C10    H127    1.082   1_455 S
C11    H33     1.082   .     S
C11    C13     1.392   .     A
C11    C442    1.389   1_554 S
C12    C17     1.398   .     A
C12    C445    1.416   .     S
C12    C450    1.411   .     S
C13    H32     1.080   .     S
C13    C444    1.416   1_554 S
C14    O46     1.220   .     D
C14    C20     1.485   .     S
C14    H25     1.082   .     S
C15    N36     1.158   .     T
C15    C21     1.446   .     S
C16    N37     1.158   .     T
C16    C291    1.458   1_545 S
C17    C21     1.406   .     A
C18    C22     1.375   .     A
C18    C444    1.411   1_554 S
C18    C451    1.428   1_554 S
C19    C20     1.407   .     A
C19    C450    1.428   .     S
C19    C440    1.410   .     S
C20    C21     1.392   .     A
C22    H30     1.080   .     S
C23    H72     1.083   .     S
H24    C119    1.083   1_455 S
H26    C149    1.088   .     S
H27    N34     1.029   .     S
H28    N35     1.024   .     S
H29    C440    1.078   .     S
H31    C58     1.082   .     S
N34    N35     1.286   .     D
N34    Zn48    2.017   .     S
N35    Zn47    2.017   .     S
O38    Zn47    1.961   .     S
O38    C49     1.277   .     S
O39    Zn48    1.985   .     S
O40    Zn47    2.005   .     S
O40    C52     1.299   .     S
O41    Zn48    1.994   .     S
O42    Zn47    1.985   .     S
O43    Zn48    1.961   .     S
O43    C102    1.272   1_455 S
O44    Zn47    1.994   .     S
O45    Zn48    2.005   .     S
O45    C103    1.290   1_455 S
C49    O87     1.287   .     A
C49    C51     1.407   .     S
C50    C52     1.466   .     S
C50    C65     1.413   .     A
C50    C58     1.402   .     A
C51    C149    1.350   .     S
C51    C208    1.458   .     S
C52    O89     1.294   .     A
C53    C54     1.407   .     S
C53    C387    1.350   1_545 S
C53    H362    1.088   1_545 S
C54    O90     1.293   .     A
C54    O139    1.272   .     S
C55    O92     1.288   .     A
C55    C57     1.434   .     S
C55    O141    1.290   .     S
C56    C71     1.389   .     A
C56    C499    1.410   1_554 S
C56    H509    1.078   1_554 S
C57    C70     1.383   .     A
C57    C71     1.396   .     A
C58    C491    1.389   .     S
C59    H81     1.082   .     S
C59    C61     1.392   .     A
C59    C490    1.389   1_554 S
C60    C65     1.398   .     A
C60    C493    1.416   .     S
C60    C498    1.411   .     S
C61    H80     1.080   .     S
C61    C492    1.416   1_554 S
C62    O94     1.220   .     D
C62    C68     1.485   .     S
C62    H73     1.082   .     S
C63    N84     1.158   .     T
C63    C69     1.446   .     S
C64    N85     1.158   .     T
C64    C339    1.458   1_545 S
C65    C69     1.406   .     A
C66    C70     1.375   .     A
C66    C492    1.411   1_554 S
C66    C499    1.428   1_554 S
C67    C68     1.407   .     A
C67    C498    1.428   .     S
C67    C488    1.410   .     S
C68    C69     1.392   .     A
C70    H78     1.080   .     S
C71    H120    1.083   .     S
H74    C197    1.088   .     S
H75    N82     1.029   .     S
H76    N83     1.024   .     S
H77    C488    1.078   .     S
H79    C106    1.082   .     S
N82    N83     1.286   .     D
N82    Zn96    2.017   .     S
N83    Zn95    2.017   .     S
O86    Zn95    1.961   .     S
O86    C97     1.277   .     S
O87    Zn96    1.985   .     S
O88    Zn95    2.005   .     S
O88    C100    1.299   .     S
O89    Zn96    1.994   .     S
O90    Zn95    1.985   .     S
O91    Zn96    1.961   .     S
O92    Zn95    1.994   .     S
O93    Zn96    2.005   .     S
C97    O135    1.287   .     A
C97    C99     1.407   .     S
C98    C100    1.466   .     S
C98    C113    1.413   .     A
C98    C106    1.402   .     A
C99    C197    1.350   .     S
C99    C256    1.458   .     S
C100   O137    1.294   .     A
C101   C102    1.407   .     S
C101   C291    1.350   1_645 S
C101   H410    1.088   1_545 S
C102   O138    1.293   .     A
C102   O43     1.272   1_655 S
C103   O140    1.288   .     A
C103   C105    1.434   .     S
C103   O45     1.290   1_655 S
C104   C119    1.389   .     A
C104   C547    1.410   1_554 S
C104   H557    1.078   1_554 S
C105   C118    1.383   .     A
C105   C119    1.396   .     A
C106   C539    1.389   .     S
C107   H129    1.082   .     S
C107   C109    1.392   .     A
C107   C538    1.389   1_554 S
C108   C113    1.398   .     A
C108   C541    1.416   .     S
C108   C546    1.411   .     S
C109   H128    1.080   .     S
C109   C540    1.416   1_554 S
C110   O142    1.220   .     D
C110   C116    1.485   .     S
C110   H121    1.082   .     S
C111   N132    1.158   .     T
C111   C117    1.446   .     S
C112   N133    1.158   .     T
C112   C387    1.458   1_545 S
C113   C117    1.406   .     A
C114   C118    1.375   .     A
C114   C540    1.411   1_554 S
C114   C547    1.428   1_554 S
C115   C116    1.407   .     A
C115   C546    1.428   .     S
C115   C536    1.410   .     S
C116   C117    1.392   .     A
C118   H126    1.080   .     S
C119   H24     1.083   1_655 S
H122   C245    1.088   .     S
H123   N130    1.029   .     S
H124   N131    1.024   .     S
H125   C536    1.078   .     S
H127   C10     1.082   1_655 S
N130   N131    1.286   .     D
N130   Zn144   2.017   .     S
N131   Zn143   2.017   .     S
O134   Zn143   1.961   .     S
O134   C1      1.277   1_655 S
O135   Zn144   1.985   .     S
O136   Zn143   2.005   .     S
O136   C4      1.299   1_655 S
O137   Zn144   1.994   .     S
O138   Zn143   1.985   .     S
O139   Zn144   1.961   .     S
O140   Zn143   1.994   .     S
O141   Zn144   2.005   .     S
C145   O183    1.287   .     A
C145   C147    1.407   .     S
C145   O278    1.277   1_455 S
C146   C148    1.466   .     S
C146   C161    1.413   .     A
C146   C154    1.402   .     A
C147   C389    1.350   1_455 S
C147   C304    1.458   .     S
C148   O185    1.294   .     A
C148   O280    1.299   1_455 S
C149   C150    1.407   .     S
C150   O186    1.293   .     A
C150   O235    1.272   .     S
C151   O188    1.288   .     A
C151   C153    1.434   .     S
C151   O237    1.290   .     S
C152   C167    1.389   .     A
C152   C595    1.410   1_554 S
C152   H605    1.078   1_554 S
C153   C166    1.383   .     A
C153   C167    1.396   .     A
C154   C587    1.389   .     S
C154   H271    1.082   1_455 S
C155   H177    1.082   .     S
C155   C157    1.392   .     A
C155   C586    1.389   1_554 S
C156   C161    1.398   .     A
C156   C589    1.416   .     S
C156   C594    1.411   .     S
C157   H176    1.080   .     S
C157   C588    1.416   1_554 S
C158   O190    1.220   .     D
C158   C164    1.485   .     S
C158   H169    1.082   .     S
C159   N180    1.158   .     T
C159   C165    1.446   .     S
C160   N181    1.158   .     T
C161   C165    1.406   .     A
C162   C166    1.375   .     A
C162   C588    1.411   1_554 S
C162   C595    1.428   1_554 S
C163   C164    1.407   .     A
C163   C594    1.428   .     S
C163   C584    1.410   .     S
C164   C165    1.392   .     A
C166   H174    1.080   .     S
C167   H216    1.083   .     S
H168   C263    1.083   1_455 S
H170   C293    1.088   .     S
H171   N178    1.029   .     S
H172   N179    1.024   .     S
H173   C584    1.078   .     S
H175   C202    1.082   .     S
N178   N179    1.286   .     D
N178   Zn192   2.017   .     S
N179   Zn191   2.017   .     S
O182   Zn191   1.961   .     S
O182   C193    1.277   .     S
O183   Zn192   1.985   .     S
O184   Zn191   2.005   .     S
O184   C196    1.299   .     S
O185   Zn192   1.994   .     S
O186   Zn191   1.985   .     S
O187   Zn192   1.961   .     S
O187   C246    1.272   1_455 S
O188   Zn191   1.994   .     S
O189   Zn192   2.005   .     S
O189   C247    1.290   1_455 S
C193   O231    1.287   .     A
C193   C195    1.407   .     S
C194   C196    1.466   .     S
C194   C209    1.413   .     A
C194   C202    1.402   .     A
C195   C293    1.350   .     S
C195   C352    1.458   .     S
C196   O233    1.294   .     A
C197   C198    1.407   .     S
C198   O234    1.293   .     A
C198   O283    1.272   .     S
C199   O236    1.288   .     A
C199   C201    1.434   .     S
C199   O285    1.290   .     S
C200   C215    1.389   .     A
C200   C643    1.410   1_554 S
C200   H653    1.078   1_554 S
C201   C214    1.383   .     A
C201   C215    1.396   .     A
C202   C635    1.389   .     S
C203   H225    1.082   .     S
C203   C205    1.392   .     A
C203   C634    1.389   1_554 S
C204   C209    1.398   .     A
C204   C637    1.416   .     S
C204   C642    1.411   .     S
C205   H224    1.080   .     S
C205   C636    1.416   1_554 S
C206   O238    1.220   .     D
C206   C212    1.485   .     S
C206   H217    1.082   .     S
C207   N228    1.158   .     T
C207   C213    1.446   .     S
C208   N229    1.158   .     T
C209   C213    1.406   .     A
C210   C214    1.375   .     A
C210   C636    1.411   1_554 S
C210   C643    1.428   1_554 S
C211   C212    1.407   .     A
C211   C642    1.428   .     S
C211   C632    1.410   .     S
C212   C213    1.392   .     A
C214   H222    1.080   .     S
C215   H264    1.083   .     S
H218   C341    1.088   .     S
H219   N226    1.029   .     S
H220   N227    1.024   .     S
H221   C632    1.078   .     S
H223   C250    1.082   .     S
N226   N227    1.286   .     D
N226   Zn240   2.017   .     S
N227   Zn239   2.017   .     S
O230   Zn239   1.961   .     S
O230   C241    1.277   .     S
O231   Zn240   1.985   .     S
O232   Zn239   2.005   .     S
O232   C244    1.299   .     S
O233   Zn240   1.994   .     S
O234   Zn239   1.985   .     S
O235   Zn240   1.961   .     S
O236   Zn239   1.994   .     S
O237   Zn240   2.005   .     S
C241   O279    1.287   .     A
C241   C243    1.407   .     S
C242   C244    1.466   .     S
C242   C257    1.413   .     A
C242   C250    1.402   .     A
C243   C341    1.350   .     S
C243   C400    1.458   .     S
C244   O281    1.294   .     A
C245   C246    1.407   .     S
C245   C3      1.350   1_655 S
C246   O282    1.293   .     A
C246   O187    1.272   1_655 S
C247   O284    1.288   .     A
C247   C249    1.434   .     S
C247   O189    1.290   1_655 S
C248   C263    1.389   .     A
C248   C691    1.410   1_554 S
C248   H701    1.078   1_554 S
C249   C262    1.383   .     A
C249   C263    1.396   .     A
C250   C683    1.389   .     S
C251   H273    1.082   .     S
C251   C253    1.392   .     A
C251   C682    1.389   1_554 S
C252   C257    1.398   .     A
C252   C685    1.416   .     S
C252   C690    1.411   .     S
C253   H272    1.080   .     S
C253   C684    1.416   1_554 S
C254   O286    1.220   .     D
C254   C260    1.485   .     S
C254   H265    1.082   .     S
C255   N276    1.158   .     T
C255   C261    1.446   .     S
C256   N277    1.158   .     T
C257   C261    1.406   .     A
C258   C262    1.375   .     A
C258   C684    1.411   1_554 S
C258   C691    1.428   1_554 S
C259   C260    1.407   .     A
C259   C690    1.428   .     S
C259   C680    1.410   .     S
C260   C261    1.392   .     A
C262   H270    1.080   .     S
C263   H168    1.083   1_655 S
H266   C389    1.088   .     S
H267   N274    1.029   .     S
H268   N275    1.024   .     S
H269   C680    1.078   .     S
H271   C154    1.082   1_655 S
N274   N275    1.286   .     D
N274   Zn288   2.017   .     S
N275   Zn287   2.017   .     S
O278   Zn287   1.961   .     S
O278   C145    1.277   1_655 S
O279   Zn288   1.985   .     S
O280   Zn287   2.005   .     S
O280   C148    1.299   1_655 S
O281   Zn288   1.994   .     S
O282   Zn287   1.985   .     S
O283   Zn288   1.961   .     S
O284   Zn287   1.994   .     S
O285   Zn288   2.005   .     S
C289   O327    1.287   .     A
C289   C291    1.407   .     S
C289   O422    1.277   1_455 S
C290   C292    1.466   .     S
C290   C305    1.413   .     A
C290   C298    1.402   .     A
C291   C101    1.350   1_465 S
C291   C16     1.458   1_565 S
C292   O329    1.294   .     A
C292   O424    1.299   1_455 S
C293   C294    1.407   .     S
C294   O330    1.293   .     A
C294   O379    1.272   .     S
C295   O332    1.288   .     A
C295   C297    1.434   .     S
C295   O381    1.290   .     S
C296   C311    1.389   .     A
C296   C739    1.410   1_554 S
C296   H749    1.078   1_554 S
C297   C310    1.383   .     A
C297   C311    1.396   .     A
C298   C731    1.389   .     S
C298   H415    1.082   1_455 S
C299   H321    1.082   .     S
C299   C301    1.392   .     A
C299   C730    1.389   1_554 S
C300   C305    1.398   .     A
C300   C733    1.416   .     S
C300   C738    1.411   .     S
C301   H320    1.080   .     S
C301   C732    1.416   1_554 S
C302   O334    1.220   .     D
C302   C308    1.485   .     S
C302   H313    1.082   .     S
C303   N324    1.158   .     T
C303   C309    1.446   .     S
C304   N325    1.158   .     T
C305   C309    1.406   .     A
C306   C310    1.375   .     A
C306   C732    1.411   1_554 S
C306   C739    1.428   1_554 S
C307   C308    1.407   .     A
C307   C738    1.428   .     S
C307   C728    1.410   .     S
C308   C309    1.392   .     A
C310   H318    1.080   .     S
C311   H360    1.083   .     S
H312   C407    1.083   1_455 S
H314   C5      1.088   1_565 S
H315   N322    1.029   .     S
H316   N323    1.024   .     S
H317   C728    1.078   .     S
H319   C346    1.082   .     S
N322   N323    1.286   .     D
N322   Zn336   2.017   .     S
N323   Zn335   2.017   .     S
O326   Zn335   1.961   .     S
O326   C337    1.277   .     S
O327   Zn336   1.985   .     S
O328   Zn335   2.005   .     S
O328   C340    1.299   .     S
O329   Zn336   1.994   .     S
O330   Zn335   1.985   .     S
O331   Zn336   1.961   .     S
O331   C390    1.272   1_455 S
O332   Zn335   1.994   .     S
O333   Zn336   2.005   .     S
O333   C391    1.290   1_455 S
C337   O375    1.287   .     A
C337   C339    1.407   .     S
C338   C340    1.466   .     S
C338   C353    1.413   .     A
C338   C346    1.402   .     A
C339   C5      1.350   1_565 S
C339   C64     1.458   1_565 S
C340   O377    1.294   .     A
C341   C342    1.407   .     S
C342   O378    1.293   .     A
C342   O427    1.272   .     S
C343   O380    1.288   .     A
C343   C345    1.434   .     S
C343   O429    1.290   .     S
C344   C359    1.389   .     A
C344   C787    1.410   1_554 S
C344   H797    1.078   1_554 S
C345   C358    1.383   .     A
C345   C359    1.396   .     A
C346   C779    1.389   .     S
C347   H369    1.082   .     S
C347   C349    1.392   .     A
C347   C778    1.389   1_554 S
C348   C353    1.398   .     A
C348   C781    1.416   .     S
C348   C786    1.411   .     S
C349   H368    1.080   .     S
C349   C780    1.416   1_554 S
C350   O382    1.220   .     D
C350   C356    1.485   .     S
C350   H361    1.082   .     S
C351   N372    1.158   .     T
C351   C357    1.446   .     S
C352   N373    1.158   .     T
C353   C357    1.406   .     A
C354   C358    1.375   .     A
C354   C780    1.411   1_554 S
C354   C787    1.428   1_554 S
C355   C356    1.407   .     A
C355   C786    1.428   .     S
C355   C776    1.410   .     S
C356   C357    1.392   .     A
C358   H366    1.080   .     S
C359   H408    1.083   .     S
H362   C53     1.088   1_565 S
H363   N370    1.029   .     S
H364   N371    1.024   .     S
H365   C776    1.078   .     S
H367   C394    1.082   .     S
N370   N371    1.286   .     D
N370   Zn384   2.017   .     S
N371   Zn383   2.017   .     S
O374   Zn383   1.961   .     S
O374   C385    1.277   .     S
O375   Zn384   1.985   .     S
O376   Zn383   2.005   .     S
O376   C388    1.299   .     S
O377   Zn384   1.994   .     S
O378   Zn383   1.985   .     S
O379   Zn384   1.961   .     S
O380   Zn383   1.994   .     S
O381   Zn384   2.005   .     S
C385   O423    1.287   .     A
C385   C387    1.407   .     S
C386   C388    1.466   .     S
C386   C401    1.413   .     A
C386   C394    1.402   .     A
C387   C53     1.350   1_565 S
C387   C112    1.458   1_565 S
C388   O425    1.294   .     A
C389   C390    1.407   .     S
C389   C147    1.350   1_655 S
C390   O426    1.293   .     A
C390   O331    1.272   1_655 S
C391   O428    1.288   .     A
C391   C393    1.434   .     S
C391   O333    1.290   1_655 S
C392   C407    1.389   .     A
C392   C835    1.410   1_554 S
C392   H845    1.078   1_554 S
C393   C406    1.383   .     A
C393   C407    1.396   .     A
C394   C827    1.389   .     S
C395   H417    1.082   .     S
C395   C397    1.392   .     A
C395   C826    1.389   1_554 S
C396   C401    1.398   .     A
C396   C829    1.416   .     S
C396   C834    1.411   .     S
C397   H416    1.080   .     S
C397   C828    1.416   1_554 S
C398   O430    1.220   .     D
C398   C404    1.485   .     S
C398   H409    1.082   .     S
C399   N420    1.158   .     T
C399   C405    1.446   .     S
C400   N421    1.158   .     T
C401   C405    1.406   .     A
C402   C406    1.375   .     A
C402   C828    1.411   1_554 S
C402   C835    1.428   1_554 S
C403   C404    1.407   .     A
C403   C834    1.428   .     S
C403   C824    1.410   .     S
C404   C405    1.392   .     A
C406   H414    1.080   .     S
C407   H312    1.083   1_655 S
H410   C101    1.088   1_565 S
H411   N418    1.029   .     S
H412   N419    1.024   .     S
H413   C824    1.078   .     S
H415   C298    1.082   1_655 S
N418   N419    1.286   .     D
N418   Zn432   2.017   .     S
N419   Zn431   2.017   .     S
O422   Zn431   1.961   .     S
O422   C289    1.277   1_655 S
O423   Zn432   1.985   .     S
O424   Zn431   2.005   .     S
O424   C292    1.299   1_655 S
O425   Zn432   1.994   .     S
O426   Zn431   1.985   .     S
O427   Zn432   1.961   .     S
O428   Zn431   1.994   .     S
O429   Zn432   2.005   .     S
C433   O471    1.287   .     A
C433   C435    1.407   .     S
C433   O566    1.277   1_455 S
C434   C436    1.466   .     S
C434   C449    1.413   .     A
C434   C442    1.402   .     A
C435   C677    1.350   1_455 S
C435   C592    1.458   .     S
C436   O473    1.294   .     A
C436   O568    1.299   1_455 S
C437   C438    1.407   .     S
C437   C771    1.350   1_545 S
C437   H746    1.088   1_545 S
C438   O474    1.293   .     A
C438   O523    1.272   .     S
C439   O476    1.288   .     A
C439   C441    1.434   .     S
C439   O525    1.290   .     S
C440   C455    1.389   .     A
C441   C454    1.383   .     A
C441   C455    1.396   .     A
C442   C11     1.389   1_556 S
C442   H559    1.082   1_455 S
C443   H465    1.082   .     S
C443   C445    1.392   .     A
C444   C449    1.398   .     A
C444   C13     1.416   1_556 S
C444   C18     1.411   1_556 S
C445   H464    1.080   .     S
C446   O478    1.220   .     D
C446   C452    1.485   .     S
C446   H457    1.082   .     S
C447   N468    1.158   .     T
C447   C453    1.446   .     S
C448   N469    1.158   .     T
C448   C723    1.458   1_545 S
C449   C453    1.406   .     A
C450   C454    1.375   .     A
C451   C452    1.407   .     A
C451   C18     1.428   1_556 S
C451   C8      1.410   1_556 S
C452   C453    1.392   .     A
C454   H462    1.080   .     S
C455   H504    1.083   .     S
H456   C551    1.083   1_455 S
H458   C581    1.088   .     S
H459   N466    1.029   .     S
H460   N467    1.024   .     S
H461   C8      1.078   1_556 S
H463   C490    1.082   .     S
N466   N467    1.286   .     D
N466   Zn480   2.017   .     S
N467   Zn479   2.017   .     S
O470   Zn479   1.961   .     S
O470   C481    1.277   .     S
O471   Zn480   1.985   .     S
O472   Zn479   2.005   .     S
O472   C484    1.299   .     S
O473   Zn480   1.994   .     S
O474   Zn479   1.985   .     S
O475   Zn480   1.961   .     S
O475   C534    1.272   1_455 S
O476   Zn479   1.994   .     S
O477   Zn480   2.005   .     S
O477   C535    1.290   1_455 S
C481   O519    1.287   .     A
C481   C483    1.407   .     S
C482   C484    1.466   .     S
C482   C497    1.413   .     A
C482   C490    1.402   .     A
C483   C581    1.350   .     S
C483   C640    1.458   .     S
C484   O521    1.294   .     A
C485   C486    1.407   .     S
C485   C819    1.350   1_545 S
C485   H794    1.088   1_545 S
C486   O522    1.293   .     A
C486   O571    1.272   .     S
C487   O524    1.288   .     A
C487   C489    1.434   .     S
C487   O573    1.290   .     S
C488   C503    1.389   .     A
C489   C502    1.383   .     A
C489   C503    1.396   .     A
C490   C59     1.389   1_556 S
C491   H513    1.082   .     S
C491   C493    1.392   .     A
C492   C497    1.398   .     A
C492   C61     1.416   1_556 S
C492   C66     1.411   1_556 S
C493   H512    1.080   .     S
C494   O526    1.220   .     D
C494   C500    1.485   .     S
C494   H505    1.082   .     S
C495   N516    1.158   .     T
C495   C501    1.446   .     S
C496   N517    1.158   .     T
C496   C771    1.458   1_545 S
C497   C501    1.406   .     A
C498   C502    1.375   .     A
C499   C500    1.407   .     A
C499   C66     1.428   1_556 S
C499   C56     1.410   1_556 S
C500   C501    1.392   .     A
C502   H510    1.080   .     S
C503   H552    1.083   .     S
H506   C629    1.088   .     S
H507   N514    1.029   .     S
H508   N515    1.024   .     S
H509   C56     1.078   1_556 S
H511   C538    1.082   .     S
N514   N515    1.286   .     D
N514   Zn528   2.017   .     S
N515   Zn527   2.017   .     S
O518   Zn527   1.961   .     S
O518   C529    1.277   .     S
O519   Zn528   1.985   .     S
O520   Zn527   2.005   .     S
O520   C532    1.299   .     S
O521   Zn528   1.994   .     S
O522   Zn527   1.985   .     S
O523   Zn528   1.961   .     S
O524   Zn527   1.994   .     S
O525   Zn528   2.005   .     S
C529   O567    1.287   .     A
C529   C531    1.407   .     S
C530   C532    1.466   .     S
C530   C545    1.413   .     A
C530   C538    1.402   .     A
C531   C629    1.350   .     S
C531   C688    1.458   .     S
C532   O569    1.294   .     A
C533   C534    1.407   .     S
C533   C723    1.350   1_645 S
C533   H842    1.088   1_545 S
C534   O570    1.293   .     A
C534   O475    1.272   1_655 S
C535   O572    1.288   .     A
C535   C537    1.434   .     S
C535   O477    1.290   1_655 S
C536   C551    1.389   .     A
C537   C550    1.383   .     A
C537   C551    1.396   .     A
C538   C107    1.389   1_556 S
C539   H561    1.082   .     S
C539   C541    1.392   .     A
C540   C545    1.398   .     A
C540   C109    1.416   1_556 S
C540   C114    1.411   1_556 S
C541   H560    1.080   .     S
C542   O574    1.220   .     D
C542   C548    1.485   .     S
C542   H553    1.082   .     S
C543   N564    1.158   .     T
C543   C549    1.446   .     S
C544   N565    1.158   .     T
C544   C819    1.458   1_545 S
C545   C549    1.406   .     A
C546   C550    1.375   .     A
C547   C548    1.407   .     A
C547   C114    1.428   1_556 S
C547   C104    1.410   1_556 S
C548   C549    1.392   .     A
C550   H558    1.080   .     S
C551   H456    1.083   1_655 S
H554   C677    1.088   .     S
H555   N562    1.029   .     S
H556   N563    1.024   .     S
H557   C104    1.078   1_556 S
H559   C442    1.082   1_655 S
N562   N563    1.286   .     D
N562   Zn576   2.017   .     S
N563   Zn575   2.017   .     S
O566   Zn575   1.961   .     S
O566   C433    1.277   1_655 S
O567   Zn576   1.985   .     S
O568   Zn575   2.005   .     S
O568   C436    1.299   1_655 S
O569   Zn576   1.994   .     S
O570   Zn575   1.985   .     S
O571   Zn576   1.961   .     S
O572   Zn575   1.994   .     S
O573   Zn576   2.005   .     S
C577   O615    1.287   .     A
C577   C579    1.407   .     S
C577   O710    1.277   1_455 S
C578   C580    1.466   .     S
C578   C593    1.413   .     A
C578   C586    1.402   .     A
C579   C821    1.350   1_455 S
C579   C736    1.458   .     S
C580   O617    1.294   .     A
C580   O712    1.299   1_455 S
C581   C582    1.407   .     S
C582   O618    1.293   .     A
C582   O667    1.272   .     S
C583   O620    1.288   .     A
C583   C585    1.434   .     S
C583   O669    1.290   .     S
C584   C599    1.389   .     A
C585   C598    1.383   .     A
C585   C599    1.396   .     A
C586   C155    1.389   1_556 S
C586   H703    1.082   1_455 S
C587   H609    1.082   .     S
C587   C589    1.392   .     A
C588   C593    1.398   .     A
C588   C157    1.416   1_556 S
C588   C162    1.411   1_556 S
C589   H608    1.080   .     S
C590   O622    1.220   .     D
C590   C596    1.485   .     S
C590   H601    1.082   .     S
C591   N612    1.158   .     T
C591   C597    1.446   .     S
C592   N613    1.158   .     T
C593   C597    1.406   .     A
C594   C598    1.375   .     A
C595   C596    1.407   .     A
C595   C162    1.428   1_556 S
C595   C152    1.410   1_556 S
C596   C597    1.392   .     A
C598   H606    1.080   .     S
C599   H648    1.083   .     S
H600   C695    1.083   1_455 S
H602   C725    1.088   .     S
H603   N610    1.029   .     S
H604   N611    1.024   .     S
H605   C152    1.078   1_556 S
H607   C634    1.082   .     S
N610   N611    1.286   .     D
N610   Zn624   2.017   .     S
N611   Zn623   2.017   .     S
O614   Zn623   1.961   .     S
O614   C625    1.277   .     S
O615   Zn624   1.985   .     S
O616   Zn623   2.005   .     S
O616   C628    1.299   .     S
O617   Zn624   1.994   .     S
O618   Zn623   1.985   .     S
O619   Zn624   1.961   .     S
O619   C678    1.272   1_455 S
O620   Zn623   1.994   .     S
O621   Zn624   2.005   .     S
O621   C679    1.290   1_455 S
C625   O663    1.287   .     A
C625   C627    1.407   .     S
C626   C628    1.466   .     S
C626   C641    1.413   .     A
C626   C634    1.402   .     A
C627   C725    1.350   .     S
C627   C784    1.458   .     S
C628   O665    1.294   .     A
C629   C630    1.407   .     S
C630   O666    1.293   .     A
C630   O715    1.272   .     S
C631   O668    1.288   .     A
C631   C633    1.434   .     S
C631   O717    1.290   .     S
C632   C647    1.389   .     A
C633   C646    1.383   .     A
C633   C647    1.396   .     A
C634   C203    1.389   1_556 S
C635   H657    1.082   .     S
C635   C637    1.392   .     A
C636   C641    1.398   .     A
C636   C205    1.416   1_556 S
C636   C210    1.411   1_556 S
C637   H656    1.080   .     S
C638   O670    1.220   .     D
C638   C644    1.485   .     S
C638   H649    1.082   .     S
C639   N660    1.158   .     T
C639   C645    1.446   .     S
C640   N661    1.158   .     T
C641   C645    1.406   .     A
C642   C646    1.375   .     A
C643   C644    1.407   .     A
C643   C210    1.428   1_556 S
C643   C200    1.410   1_556 S
C644   C645    1.392   .     A
C646   H654    1.080   .     S
C647   H696    1.083   .     S
H650   C773    1.088   .     S
H651   N658    1.029   .     S
H652   N659    1.024   .     S
H653   C200    1.078   1_556 S
H655   C682    1.082   .     S
N658   N659    1.286   .     D
N658   Zn672   2.017   .     S
N659   Zn671   2.017   .     S
O662   Zn671   1.961   .     S
O662   C673    1.277   .     S
O663   Zn672   1.985   .     S
O664   Zn671   2.005   .     S
O664   C676    1.299   .     S
O665   Zn672   1.994   .     S
O666   Zn671   1.985   .     S
O667   Zn672   1.961   .     S
O668   Zn671   1.994   .     S
O669   Zn672   2.005   .     S
C673   O711    1.287   .     A
C673   C675    1.407   .     S
C674   C676    1.466   .     S
C674   C689    1.413   .     A
C674   C682    1.402   .     A
C675   C773    1.350   .     S
C675   C832    1.458   .     S
C676   O713    1.294   .     A
C677   C678    1.407   .     S
C677   C435    1.350   1_655 S
C678   O714    1.293   .     A
C678   O619    1.272   1_655 S
C679   O716    1.288   .     A
C679   C681    1.434   .     S
C679   O621    1.290   1_655 S
C680   C695    1.389   .     A
C681   C694    1.383   .     A
C681   C695    1.396   .     A
C682   C251    1.389   1_556 S
C683   H705    1.082   .     S
C683   C685    1.392   .     A
C684   C689    1.398   .     A
C684   C253    1.416   1_556 S
C684   C258    1.411   1_556 S
C685   H704    1.080   .     S
C686   O718    1.220   .     D
C686   C692    1.485   .     S
C686   H697    1.082   .     S
C687   N708    1.158   .     T
C687   C693    1.446   .     S
C688   N709    1.158   .     T
C689   C693    1.406   .     A
C690   C694    1.375   .     A
C691   C692    1.407   .     A
C691   C258    1.428   1_556 S
C691   C248    1.410   1_556 S
C692   C693    1.392   .     A
C694   H702    1.080   .     S
C695   H600    1.083   1_655 S
H698   C821    1.088   .     S
H699   N706    1.029   .     S
H700   N707    1.024   .     S
H701   C248    1.078   1_556 S
H703   C586    1.082   1_655 S
N706   N707    1.286   .     D
N706   Zn720   2.017   .     S
N707   Zn719   2.017   .     S
O710   Zn719   1.961   .     S
O710   C577    1.277   1_655 S
O711   Zn720   1.985   .     S
O712   Zn719   2.005   .     S
O712   C580    1.299   1_655 S
O713   Zn720   1.994   .     S
O714   Zn719   1.985   .     S
O715   Zn720   1.961   .     S
O716   Zn719   1.994   .     S
O717   Zn720   2.005   .     S
C721   O759    1.287   .     A
C721   C723    1.407   .     S
C721   O854    1.277   1_455 S
C722   C724    1.466   .     S
C722   C737    1.413   .     A
C722   C730    1.402   .     A
C723   C533    1.350   1_465 S
C723   C448    1.458   1_565 S
C724   O761    1.294   .     A
C724   O856    1.299   1_455 S
C725   C726    1.407   .     S
C726   O762    1.293   .     A
C726   O811    1.272   .     S
C727   O764    1.288   .     A
C727   C729    1.434   .     S
C727   O813    1.290   .     S
C728   C743    1.389   .     A
C729   C742    1.383   .     A
C729   C743    1.396   .     A
C730   C299    1.389   1_556 S
C730   H847    1.082   1_455 S
C731   H753    1.082   .     S
C731   C733    1.392   .     A
C732   C737    1.398   .     A
C732   C301    1.416   1_556 S
C732   C306    1.411   1_556 S
C733   H752    1.080   .     S
C734   O766    1.220   .     D
C734   C740    1.485   .     S
C734   H745    1.082   .     S
C735   N756    1.158   .     T
C735   C741    1.446   .     S
C736   N757    1.158   .     T
C737   C741    1.406   .     A
C738   C742    1.375   .     A
C739   C740    1.407   .     A
C739   C306    1.428   1_556 S
C739   C296    1.410   1_556 S
C740   C741    1.392   .     A
C742   H750    1.080   .     S
C743   H792    1.083   .     S
H744   C839    1.083   1_455 S
H746   C437    1.088   1_565 S
H747   N754    1.029   .     S
H748   N755    1.024   .     S
H749   C296    1.078   1_556 S
H751   C778    1.082   .     S
N754   N755    1.286   .     D
N754   Zn768   2.017   .     S
N755   Zn767   2.017   .     S
O758   Zn767   1.961   .     S
O758   C769    1.277   .     S
O759   Zn768   1.985   .     S
O760   Zn767   2.005   .     S
O760   C772    1.299   .     S
O761   Zn768   1.994   .     S
O762   Zn767   1.985   .     S
O763   Zn768   1.961   .     S
O763   C822    1.272   1_455 S
O764   Zn767   1.994   .     S
O765   Zn768   2.005   .     S
O765   C823    1.290   1_455 S
C769   O807    1.287   .     A
C769   C771    1.407   .     S
C770   C772    1.466   .     S
C770   C785    1.413   .     A
C770   C778    1.402   .     A
C771   C437    1.350   1_565 S
C771   C496    1.458   1_565 S
C772   O809    1.294   .     A
C773   C774    1.407   .     S
C774   O810    1.293   .     A
C774   O859    1.272   .     S
C775   O812    1.288   .     A
C775   C777    1.434   .     S
C775   O861    1.290   .     S
C776   C791    1.389   .     A
C777   C790    1.383   .     A
C777   C791    1.396   .     A
C778   C347    1.389   1_556 S
C779   H801    1.082   .     S
C779   C781    1.392   .     A
C780   C785    1.398   .     A
C780   C349    1.416   1_556 S
C780   C354    1.411   1_556 S
C781   H800    1.080   .     S
C782   O814    1.220   .     D
C782   C788    1.485   .     S
C782   H793    1.082   .     S
C783   N804    1.158   .     T
C783   C789    1.446   .     S
C784   N805    1.158   .     T
C785   C789    1.406   .     A
C786   C790    1.375   .     A
C787   C788    1.407   .     A
C787   C354    1.428   1_556 S
C787   C344    1.410   1_556 S
C788   C789    1.392   .     A
C790   H798    1.080   .     S
C791   H840    1.083   .     S
H794   C485    1.088   1_565 S
H795   N802    1.029   .     S
H796   N803    1.024   .     S
H797   C344    1.078   1_556 S
H799   C826    1.082   .     S
N802   N803    1.286   .     D
N802   Zn816   2.017   .     S
N803   Zn815   2.017   .     S
O806   Zn815   1.961   .     S
O806   C817    1.277   .     S
O807   Zn816   1.985   .     S
O808   Zn815   2.005   .     S
O808   C820    1.299   .     S
O809   Zn816   1.994   .     S
O810   Zn815   1.985   .     S
O811   Zn816   1.961   .     S
O812   Zn815   1.994   .     S
O813   Zn816   2.005   .     S
C817   O855    1.287   .     A
C817   C819    1.407   .     S
C818   C820    1.466   .     S
C818   C833    1.413   .     A
C818   C826    1.402   .     A
C819   C485    1.350   1_565 S
C819   C544    1.458   1_565 S
C820   O857    1.294   .     A
C821   C822    1.407   .     S
C821   C579    1.350   1_655 S
C822   O858    1.293   .     A
C822   O763    1.272   1_655 S
C823   O860    1.288   .     A
C823   C825    1.434   .     S
C823   O765    1.290   1_655 S
C824   C839    1.389   .     A
C825   C838    1.383   .     A
C825   C839    1.396   .     A
C826   C395    1.389   1_556 S
C827   H849    1.082   .     S
C827   C829    1.392   .     A
C828   C833    1.398   .     A
C828   C397    1.416   1_556 S
C828   C402    1.411   1_556 S
C829   H848    1.080   .     S
C830   O862    1.220   .     D
C830   C836    1.485   .     S
C830   H841    1.082   .     S
C831   N852    1.158   .     T
C831   C837    1.446   .     S
C832   N853    1.158   .     T
C833   C837    1.406   .     A
C834   C838    1.375   .     A
C835   C836    1.407   .     A
C835   C402    1.428   1_556 S
C835   C392    1.410   1_556 S
C836   C837    1.392   .     A
C838   H846    1.080   .     S
C839   H744    1.083   1_655 S
H842   C533    1.088   1_565 S
H843   N850    1.029   .     S
H844   N851    1.024   .     S
H845   C392    1.078   1_556 S
H847   C730    1.082   1_655 S
N850   N851    1.286   .     D
N850   Zn864   2.017   .     S
N851   Zn863   2.017   .     S
O854   Zn863   1.961   .     S
O854   C721    1.277   1_655 S
O855   Zn864   1.985   .     S
O856   Zn863   2.005   .     S
O856   C724    1.299   1_655 S
O857   Zn864   1.994   .     S
O858   Zn863   1.985   .     S
O859   Zn864   1.961   .     S
O860   Zn863   1.994   .     S
O861   Zn864   2.005   .     S
