data_str_m3_o1_o10_pcu_sym.111
_audit_creation_date              2020-01-03
_audit_creation_method            'Materials Studio'
_symmetry_space_group_name_H-M    'P1'
_symmetry_Int_Tables_number       1
_symmetry_cell_setting            triclinic
loop_
_symmetry_equiv_pos_as_xyz
  x,y,z
_cell_length_a                    25.8034
_cell_length_b                    32.1610
_cell_length_c                    29.8147
_cell_angle_alpha                 90.0280
_cell_angle_beta                  98.3053
_cell_angle_gamma                 91.9115
loop_
_atom_site_label
_atom_site_type_symbol
_atom_site_fract_x
_atom_site_fract_y
_atom_site_fract_z
_atom_site_U_iso_or_equiv
_atom_site_adp_type
_atom_site_occupancy
C1     C     0.16672   0.08672   0.16665   0.00000  Uiso   1.00
C2     C     0.16661   0.24661   0.16668   0.00000  Uiso   1.00
C3     C     0.06722   0.16597   0.15508   0.00000  Uiso   1.00
C4     C     0.26611   0.16736   0.17826   0.00000  Uiso   1.00
C5     C     0.01279   0.15852   0.15080   0.00000  Uiso   1.00
C6     C     0.32054   0.17481   0.18254   0.00000  Uiso   1.00
C7     C     0.16937   0.02134   0.12617   0.00000  Uiso   1.00
C8     C     0.16396   0.31199   0.20717   0.00000  Uiso   1.00
C9     C     0.16906   0.31210   0.12613   0.00000  Uiso   1.00
C10    C     0.16427   0.02124   0.20720   0.00000  Uiso   1.00
C11    C     0.16650   0.29082   0.16665   0.00000  Uiso   1.00
C12    C     0.16684   0.04252   0.16668   0.00000  Uiso   1.00
C13    C     0.19944   0.19328   0.02804   0.00000  Uiso   1.00
C14    C     0.13390   0.14005   0.30529   0.00000  Uiso   1.00
C15    C     0.19915   0.19345   0.31358   0.00000  Uiso   1.00
C16    C     0.13418   0.13989   0.01975   0.00000  Uiso   1.00
H17    H     0.17166   0.03748   0.09460   0.00000  Uiso   1.00
H18    H     0.16167   0.29585   0.23874   0.00000  Uiso   1.00
H19    H     0.17089   0.29605   0.09449   0.00000  Uiso   1.00
H20    H     0.16245   0.03729   0.23885   0.00000  Uiso   1.00
N21    N     0.16665   0.16666   0.28573   0.00000  Uiso   1.00
N22    N     0.16668   0.16668   0.04760   0.00000  Uiso   1.00
O23    O     0.16666   0.10558   0.20487   0.00000  Uiso   1.00
O24    O     0.16667   0.22775   0.12846   0.00000  Uiso   1.00
O25    O     0.16666   0.10559   0.12843   0.00000  Uiso   1.00
O26    O     0.16667   0.22774   0.20490   0.00000  Uiso   1.00
O27    O     0.09058   0.16666   0.19595   0.00000  Uiso   1.00
O28    O     0.24275   0.16667   0.13739   0.00000  Uiso   1.00
O29    O     0.09058   0.16667   0.11950   0.00000  Uiso   1.00
O30    O     0.24275   0.16666   0.21383   0.00000  Uiso   1.00
Zn31   Zn    0.16667   0.16666   0.21771   0.00000  Uiso   1.00
Zn32   Zn    0.16667   0.16667   0.11563   0.00000  Uiso   1.00
Br33   Br    0.31793   0.11486   0.10839   0.00000  Uiso   1.00
Br34   Br    0.01541   0.21847   0.22494   0.00000  Uiso   1.00
Br35   Br    0.24714   0.23057   0.06532   0.00000  Uiso   1.00
Br36   Br    0.08619   0.10276   0.26802   0.00000  Uiso   1.00
Br37   Br    0.24449   0.23242   0.28827   0.00000  Uiso   1.00
Br38   Br    0.08884   0.10091   0.04506   0.00000  Uiso   1.00
C39    C     0.50006   0.08672   0.16665   0.00000  Uiso   1.00
C40    C     0.49994   0.24661   0.16668   0.00000  Uiso   1.00
C41    C     0.40056   0.16597   0.15508   0.00000  Uiso   1.00
C42    C     0.59944   0.16736   0.17826   0.00000  Uiso   1.00
C43    C     0.34612   0.15852   0.15080   0.00000  Uiso   1.00
C44    C     0.65388   0.17481   0.18254   0.00000  Uiso   1.00
C45    C     0.50270   0.02134   0.12617   0.00000  Uiso   1.00
C46    C     0.49730   0.31199   0.20717   0.00000  Uiso   1.00
C47    C     0.50239   0.31210   0.12613   0.00000  Uiso   1.00
C48    C     0.49761   0.02124   0.20720   0.00000  Uiso   1.00
C49    C     0.49983   0.29082   0.16665   0.00000  Uiso   1.00
C50    C     0.50017   0.04252   0.16668   0.00000  Uiso   1.00
C51    C     0.53277   0.19328   0.02804   0.00000  Uiso   1.00
C52    C     0.46723   0.14005   0.30529   0.00000  Uiso   1.00
C53    C     0.53249   0.19345   0.31358   0.00000  Uiso   1.00
C54    C     0.46751   0.13989   0.01975   0.00000  Uiso   1.00
H55    H     0.50499   0.03748   0.09460   0.00000  Uiso   1.00
H56    H     0.49501   0.29585   0.23874   0.00000  Uiso   1.00
H57    H     0.50422   0.29605   0.09449   0.00000  Uiso   1.00
H58    H     0.49578   0.03729   0.23885   0.00000  Uiso   1.00
N59    N     0.49999   0.16666   0.28573   0.00000  Uiso   1.00
N60    N     0.50001   0.16668   0.04760   0.00000  Uiso   1.00
O61    O     0.50000   0.10558   0.20487   0.00000  Uiso   1.00
O62    O     0.50000   0.22775   0.12846   0.00000  Uiso   1.00
O63    O     0.50000   0.10559   0.12843   0.00000  Uiso   1.00
O64    O     0.50000   0.22774   0.20490   0.00000  Uiso   1.00
O65    O     0.42392   0.16666   0.19595   0.00000  Uiso   1.00
O66    O     0.57608   0.16667   0.13739   0.00000  Uiso   1.00
O67    O     0.42392   0.16667   0.11950   0.00000  Uiso   1.00
O68    O     0.57608   0.16666   0.21383   0.00000  Uiso   1.00
Zn69   Zn    0.50000   0.16666   0.21771   0.00000  Uiso   1.00
Zn70   Zn    0.50000   0.16667   0.11563   0.00000  Uiso   1.00
Br71   Br    0.65126   0.11486   0.10839   0.00000  Uiso   1.00
Br72   Br    0.34874   0.21847   0.22494   0.00000  Uiso   1.00
Br73   Br    0.58047   0.23057   0.06532   0.00000  Uiso   1.00
Br74   Br    0.41953   0.10276   0.26802   0.00000  Uiso   1.00
Br75   Br    0.57783   0.23242   0.28827   0.00000  Uiso   1.00
Br76   Br    0.42217   0.10091   0.04506   0.00000  Uiso   1.00
C77    C     0.83339   0.08672   0.16665   0.00000  Uiso   1.00
C78    C     0.83328   0.24661   0.16668   0.00000  Uiso   1.00
C79    C     0.73389   0.16597   0.15508   0.00000  Uiso   1.00
C80    C     0.93278   0.16736   0.17826   0.00000  Uiso   1.00
C81    C     0.67946   0.15852   0.15080   0.00000  Uiso   1.00
C82    C     0.98721   0.17481   0.18254   0.00000  Uiso   1.00
C83    C     0.83604   0.02134   0.12617   0.00000  Uiso   1.00
C84    C     0.83063   0.31199   0.20717   0.00000  Uiso   1.00
C85    C     0.83573   0.31210   0.12613   0.00000  Uiso   1.00
C86    C     0.83094   0.02124   0.20720   0.00000  Uiso   1.00
C87    C     0.83316   0.29082   0.16665   0.00000  Uiso   1.00
C88    C     0.83350   0.04252   0.16668   0.00000  Uiso   1.00
C89    C     0.86610   0.19328   0.02804   0.00000  Uiso   1.00
C90    C     0.80056   0.14005   0.30529   0.00000  Uiso   1.00
C91    C     0.86582   0.19345   0.31358   0.00000  Uiso   1.00
C92    C     0.80085   0.13989   0.01975   0.00000  Uiso   1.00
H93    H     0.83833   0.03748   0.09460   0.00000  Uiso   1.00
H94    H     0.82834   0.29585   0.23874   0.00000  Uiso   1.00
H95    H     0.83755   0.29605   0.09449   0.00000  Uiso   1.00
H96    H     0.82911   0.03729   0.23885   0.00000  Uiso   1.00
N97    N     0.83332   0.16666   0.28573   0.00000  Uiso   1.00
N98    N     0.83335   0.16668   0.04760   0.00000  Uiso   1.00
O99    O     0.83333   0.10558   0.20487   0.00000  Uiso   1.00
O100   O     0.83334   0.22775   0.12846   0.00000  Uiso   1.00
O101   O     0.83333   0.10559   0.12843   0.00000  Uiso   1.00
O102   O     0.83334   0.22774   0.20490   0.00000  Uiso   1.00
O103   O     0.75725   0.16666   0.19595   0.00000  Uiso   1.00
O104   O     0.90942   0.16667   0.13739   0.00000  Uiso   1.00
O105   O     0.75725   0.16667   0.11950   0.00000  Uiso   1.00
O106   O     0.90942   0.16666   0.21383   0.00000  Uiso   1.00
Zn107  Zn    0.83333   0.16666   0.21771   0.00000  Uiso   1.00
Zn108  Zn    0.83333   0.16667   0.11563   0.00000  Uiso   1.00
Br109  Br    0.98459   0.11486   0.10839   0.00000  Uiso   1.00
Br110  Br    0.68207   0.21847   0.22494   0.00000  Uiso   1.00
Br111  Br    0.91381   0.23057   0.06532   0.00000  Uiso   1.00
Br112  Br    0.75286   0.10276   0.26802   0.00000  Uiso   1.00
Br113  Br    0.91116   0.23242   0.28827   0.00000  Uiso   1.00
Br114  Br    0.75551   0.10091   0.04506   0.00000  Uiso   1.00
C115   C     0.16672   0.42006   0.16665   0.00000  Uiso   1.00
C116   C     0.16661   0.57994   0.16668   0.00000  Uiso   1.00
C117   C     0.06722   0.49930   0.15508   0.00000  Uiso   1.00
C118   C     0.26611   0.50070   0.17826   0.00000  Uiso   1.00
C119   C     0.01279   0.49185   0.15080   0.00000  Uiso   1.00
C120   C     0.32054   0.50815   0.18254   0.00000  Uiso   1.00
C121   C     0.16937   0.35468   0.12617   0.00000  Uiso   1.00
C122   C     0.16396   0.64532   0.20717   0.00000  Uiso   1.00
C123   C     0.16906   0.64543   0.12613   0.00000  Uiso   1.00
C124   C     0.16427   0.35457   0.20720   0.00000  Uiso   1.00
C125   C     0.16650   0.62415   0.16665   0.00000  Uiso   1.00
C126   C     0.16684   0.37585   0.16668   0.00000  Uiso   1.00
C127   C     0.19944   0.52662   0.02804   0.00000  Uiso   1.00
C128   C     0.13390   0.47338   0.30529   0.00000  Uiso   1.00
C129   C     0.19915   0.52678   0.31358   0.00000  Uiso   1.00
C130   C     0.13418   0.47322   0.01975   0.00000  Uiso   1.00
H131   H     0.17166   0.37082   0.09460   0.00000  Uiso   1.00
H132   H     0.16167   0.62918   0.23874   0.00000  Uiso   1.00
H133   H     0.17089   0.62938   0.09449   0.00000  Uiso   1.00
H134   H     0.16245   0.37062   0.23885   0.00000  Uiso   1.00
N135   N     0.16665   0.49999   0.28573   0.00000  Uiso   1.00
N136   N     0.16668   0.50001   0.04760   0.00000  Uiso   1.00
O137   O     0.16666   0.43892   0.20487   0.00000  Uiso   1.00
O138   O     0.16667   0.56108   0.12846   0.00000  Uiso   1.00
O139   O     0.16666   0.43893   0.12843   0.00000  Uiso   1.00
O140   O     0.16667   0.56107   0.20490   0.00000  Uiso   1.00
O141   O     0.09058   0.50000   0.19595   0.00000  Uiso   1.00
O142   O     0.24275   0.50000   0.13739   0.00000  Uiso   1.00
O143   O     0.09058   0.50000   0.11950   0.00000  Uiso   1.00
O144   O     0.24275   0.50000   0.21383   0.00000  Uiso   1.00
Zn145  Zn    0.16667   0.49999   0.21771   0.00000  Uiso   1.00
Zn146  Zn    0.16667   0.50001   0.11563   0.00000  Uiso   1.00
Br147  Br    0.31793   0.44819   0.10839   0.00000  Uiso   1.00
Br148  Br    0.01541   0.55181   0.22494   0.00000  Uiso   1.00
Br149  Br    0.24714   0.56390   0.06532   0.00000  Uiso   1.00
Br150  Br    0.08619   0.43610   0.26802   0.00000  Uiso   1.00
Br151  Br    0.24449   0.56576   0.28827   0.00000  Uiso   1.00
Br152  Br    0.08884   0.43424   0.04506   0.00000  Uiso   1.00
C153   C     0.50006   0.42006   0.16665   0.00000  Uiso   1.00
C154   C     0.49994   0.57994   0.16668   0.00000  Uiso   1.00
C155   C     0.40056   0.49930   0.15508   0.00000  Uiso   1.00
C156   C     0.59944   0.50070   0.17826   0.00000  Uiso   1.00
C157   C     0.34612   0.49185   0.15080   0.00000  Uiso   1.00
C158   C     0.65388   0.50815   0.18254   0.00000  Uiso   1.00
C159   C     0.50270   0.35468   0.12617   0.00000  Uiso   1.00
C160   C     0.49730   0.64532   0.20717   0.00000  Uiso   1.00
C161   C     0.50239   0.64543   0.12613   0.00000  Uiso   1.00
C162   C     0.49761   0.35457   0.20720   0.00000  Uiso   1.00
C163   C     0.49983   0.62415   0.16665   0.00000  Uiso   1.00
C164   C     0.50017   0.37585   0.16668   0.00000  Uiso   1.00
C165   C     0.53277   0.52662   0.02804   0.00000  Uiso   1.00
C166   C     0.46723   0.47338   0.30529   0.00000  Uiso   1.00
C167   C     0.53249   0.52678   0.31358   0.00000  Uiso   1.00
C168   C     0.46751   0.47322   0.01975   0.00000  Uiso   1.00
H169   H     0.50499   0.37082   0.09460   0.00000  Uiso   1.00
H170   H     0.49501   0.62918   0.23874   0.00000  Uiso   1.00
H171   H     0.50422   0.62938   0.09449   0.00000  Uiso   1.00
H172   H     0.49578   0.37062   0.23885   0.00000  Uiso   1.00
N173   N     0.49999   0.49999   0.28573   0.00000  Uiso   1.00
N174   N     0.50001   0.50001   0.04760   0.00000  Uiso   1.00
O175   O     0.50000   0.43892   0.20487   0.00000  Uiso   1.00
O176   O     0.50000   0.56108   0.12846   0.00000  Uiso   1.00
O177   O     0.50000   0.43893   0.12843   0.00000  Uiso   1.00
O178   O     0.50000   0.56107   0.20490   0.00000  Uiso   1.00
O179   O     0.42392   0.50000   0.19595   0.00000  Uiso   1.00
O180   O     0.57608   0.50000   0.13739   0.00000  Uiso   1.00
O181   O     0.42392   0.50000   0.11950   0.00000  Uiso   1.00
O182   O     0.57608   0.50000   0.21383   0.00000  Uiso   1.00
Zn183  Zn    0.50000   0.49999   0.21771   0.00000  Uiso   1.00
Zn184  Zn    0.50000   0.50001   0.11563   0.00000  Uiso   1.00
Br185  Br    0.65126   0.44819   0.10839   0.00000  Uiso   1.00
Br186  Br    0.34874   0.55181   0.22494   0.00000  Uiso   1.00
Br187  Br    0.58047   0.56390   0.06532   0.00000  Uiso   1.00
Br188  Br    0.41953   0.43610   0.26802   0.00000  Uiso   1.00
Br189  Br    0.57783   0.56576   0.28827   0.00000  Uiso   1.00
Br190  Br    0.42217   0.43424   0.04506   0.00000  Uiso   1.00
C191   C     0.83339   0.42006   0.16665   0.00000  Uiso   1.00
C192   C     0.83328   0.57994   0.16668   0.00000  Uiso   1.00
C193   C     0.73389   0.49930   0.15508   0.00000  Uiso   1.00
C194   C     0.93278   0.50070   0.17826   0.00000  Uiso   1.00
C195   C     0.67946   0.49185   0.15080   0.00000  Uiso   1.00
C196   C     0.98721   0.50815   0.18254   0.00000  Uiso   1.00
C197   C     0.83604   0.35468   0.12617   0.00000  Uiso   1.00
C198   C     0.83063   0.64532   0.20717   0.00000  Uiso   1.00
C199   C     0.83573   0.64543   0.12613   0.00000  Uiso   1.00
C200   C     0.83094   0.35457   0.20720   0.00000  Uiso   1.00
C201   C     0.83316   0.62415   0.16665   0.00000  Uiso   1.00
C202   C     0.83350   0.37585   0.16668   0.00000  Uiso   1.00
C203   C     0.86610   0.52662   0.02804   0.00000  Uiso   1.00
C204   C     0.80056   0.47338   0.30529   0.00000  Uiso   1.00
C205   C     0.86582   0.52678   0.31358   0.00000  Uiso   1.00
C206   C     0.80085   0.47322   0.01975   0.00000  Uiso   1.00
H207   H     0.83833   0.37082   0.09460   0.00000  Uiso   1.00
H208   H     0.82834   0.62918   0.23874   0.00000  Uiso   1.00
H209   H     0.83755   0.62938   0.09449   0.00000  Uiso   1.00
H210   H     0.82911   0.37062   0.23885   0.00000  Uiso   1.00
N211   N     0.83332   0.49999   0.28573   0.00000  Uiso   1.00
N212   N     0.83335   0.50001   0.04760   0.00000  Uiso   1.00
O213   O     0.83333   0.43892   0.20487   0.00000  Uiso   1.00
O214   O     0.83334   0.56108   0.12846   0.00000  Uiso   1.00
O215   O     0.83333   0.43893   0.12843   0.00000  Uiso   1.00
O216   O     0.83334   0.56107   0.20490   0.00000  Uiso   1.00
O217   O     0.75725   0.50000   0.19595   0.00000  Uiso   1.00
O218   O     0.90942   0.50000   0.13739   0.00000  Uiso   1.00
O219   O     0.75725   0.50000   0.11950   0.00000  Uiso   1.00
O220   O     0.90942   0.50000   0.21383   0.00000  Uiso   1.00
Zn221  Zn    0.83333   0.49999   0.21771   0.00000  Uiso   1.00
Zn222  Zn    0.83333   0.50001   0.11563   0.00000  Uiso   1.00
Br223  Br    0.98459   0.44819   0.10839   0.00000  Uiso   1.00
Br224  Br    0.68207   0.55181   0.22494   0.00000  Uiso   1.00
Br225  Br    0.91381   0.56390   0.06532   0.00000  Uiso   1.00
Br226  Br    0.75286   0.43610   0.26802   0.00000  Uiso   1.00
Br227  Br    0.91116   0.56576   0.28827   0.00000  Uiso   1.00
Br228  Br    0.75551   0.43424   0.04506   0.00000  Uiso   1.00
C229   C     0.16672   0.75339   0.16665   0.00000  Uiso   1.00
C230   C     0.16661   0.91328   0.16668   0.00000  Uiso   1.00
C231   C     0.06722   0.83264   0.15508   0.00000  Uiso   1.00
C232   C     0.26611   0.83403   0.17826   0.00000  Uiso   1.00
C233   C     0.01279   0.82519   0.15080   0.00000  Uiso   1.00
C234   C     0.32054   0.84148   0.18254   0.00000  Uiso   1.00
C235   C     0.16937   0.68801   0.12617   0.00000  Uiso   1.00
C236   C     0.16396   0.97866   0.20717   0.00000  Uiso   1.00
C237   C     0.16906   0.97876   0.12613   0.00000  Uiso   1.00
C238   C     0.16427   0.68790   0.20720   0.00000  Uiso   1.00
C239   C     0.16650   0.95748   0.16665   0.00000  Uiso   1.00
C240   C     0.16684   0.70918   0.16668   0.00000  Uiso   1.00
C241   C     0.19944   0.85995   0.02804   0.00000  Uiso   1.00
C242   C     0.13390   0.80672   0.30529   0.00000  Uiso   1.00
C243   C     0.19915   0.86011   0.31358   0.00000  Uiso   1.00
C244   C     0.13418   0.80655   0.01975   0.00000  Uiso   1.00
H245   H     0.17166   0.70415   0.09460   0.00000  Uiso   1.00
H246   H     0.16167   0.96252   0.23874   0.00000  Uiso   1.00
H247   H     0.17089   0.96271   0.09449   0.00000  Uiso   1.00
H248   H     0.16245   0.70395   0.23885   0.00000  Uiso   1.00
N249   N     0.16665   0.83332   0.28573   0.00000  Uiso   1.00
N250   N     0.16668   0.83334   0.04760   0.00000  Uiso   1.00
O251   O     0.16666   0.77225   0.20487   0.00000  Uiso   1.00
O252   O     0.16667   0.89442   0.12846   0.00000  Uiso   1.00
O253   O     0.16666   0.77226   0.12843   0.00000  Uiso   1.00
O254   O     0.16667   0.89441   0.20490   0.00000  Uiso   1.00
O255   O     0.09058   0.83333   0.19595   0.00000  Uiso   1.00
O256   O     0.24275   0.83334   0.13739   0.00000  Uiso   1.00
O257   O     0.09058   0.83334   0.11950   0.00000  Uiso   1.00
O258   O     0.24275   0.83333   0.21383   0.00000  Uiso   1.00
Zn259  Zn    0.16667   0.83333   0.21771   0.00000  Uiso   1.00
Zn260  Zn    0.16667   0.83334   0.11563   0.00000  Uiso   1.00
Br261  Br    0.31793   0.78153   0.10839   0.00000  Uiso   1.00
Br262  Br    0.01541   0.88514   0.22494   0.00000  Uiso   1.00
Br263  Br    0.24714   0.89724   0.06532   0.00000  Uiso   1.00
Br264  Br    0.08619   0.76943   0.26802   0.00000  Uiso   1.00
Br265  Br    0.24449   0.89909   0.28827   0.00000  Uiso   1.00
Br266  Br    0.08884   0.76758   0.04506   0.00000  Uiso   1.00
C267   C     0.50006   0.75339   0.16665   0.00000  Uiso   1.00
C268   C     0.49994   0.91328   0.16668   0.00000  Uiso   1.00
C269   C     0.40056   0.83264   0.15508   0.00000  Uiso   1.00
C270   C     0.59944   0.83403   0.17826   0.00000  Uiso   1.00
C271   C     0.34612   0.82519   0.15080   0.00000  Uiso   1.00
C272   C     0.65388   0.84148   0.18254   0.00000  Uiso   1.00
C273   C     0.50270   0.68801   0.12617   0.00000  Uiso   1.00
C274   C     0.49730   0.97866   0.20717   0.00000  Uiso   1.00
C275   C     0.50239   0.97876   0.12613   0.00000  Uiso   1.00
C276   C     0.49761   0.68790   0.20720   0.00000  Uiso   1.00
C277   C     0.49983   0.95748   0.16665   0.00000  Uiso   1.00
C278   C     0.50017   0.70918   0.16668   0.00000  Uiso   1.00
C279   C     0.53277   0.85995   0.02804   0.00000  Uiso   1.00
C280   C     0.46723   0.80672   0.30529   0.00000  Uiso   1.00
C281   C     0.53249   0.86011   0.31358   0.00000  Uiso   1.00
C282   C     0.46751   0.80655   0.01975   0.00000  Uiso   1.00
H283   H     0.50499   0.70415   0.09460   0.00000  Uiso   1.00
H284   H     0.49501   0.96252   0.23874   0.00000  Uiso   1.00
H285   H     0.50422   0.96271   0.09449   0.00000  Uiso   1.00
H286   H     0.49578   0.70395   0.23885   0.00000  Uiso   1.00
N287   N     0.49999   0.83332   0.28573   0.00000  Uiso   1.00
N288   N     0.50001   0.83334   0.04760   0.00000  Uiso   1.00
O289   O     0.50000   0.77225   0.20487   0.00000  Uiso   1.00
O290   O     0.50000   0.89442   0.12846   0.00000  Uiso   1.00
O291   O     0.50000   0.77226   0.12843   0.00000  Uiso   1.00
O292   O     0.50000   0.89441   0.20490   0.00000  Uiso   1.00
O293   O     0.42392   0.83333   0.19595   0.00000  Uiso   1.00
O294   O     0.57608   0.83334   0.13739   0.00000  Uiso   1.00
O295   O     0.42392   0.83334   0.11950   0.00000  Uiso   1.00
O296   O     0.57608   0.83333   0.21383   0.00000  Uiso   1.00
Zn297  Zn    0.50000   0.83333   0.21771   0.00000  Uiso   1.00
Zn298  Zn    0.50000   0.83334   0.11563   0.00000  Uiso   1.00
Br299  Br    0.65126   0.78153   0.10839   0.00000  Uiso   1.00
Br300  Br    0.34874   0.88514   0.22494   0.00000  Uiso   1.00
Br301  Br    0.58047   0.89724   0.06532   0.00000  Uiso   1.00
Br302  Br    0.41953   0.76943   0.26802   0.00000  Uiso   1.00
Br303  Br    0.57783   0.89909   0.28827   0.00000  Uiso   1.00
Br304  Br    0.42217   0.76758   0.04506   0.00000  Uiso   1.00
C305   C     0.83339   0.75339   0.16665   0.00000  Uiso   1.00
C306   C     0.83328   0.91328   0.16668   0.00000  Uiso   1.00
C307   C     0.73389   0.83264   0.15508   0.00000  Uiso   1.00
C308   C     0.93278   0.83403   0.17826   0.00000  Uiso   1.00
C309   C     0.67946   0.82519   0.15080   0.00000  Uiso   1.00
C310   C     0.98721   0.84148   0.18254   0.00000  Uiso   1.00
C311   C     0.83604   0.68801   0.12617   0.00000  Uiso   1.00
C312   C     0.83063   0.97866   0.20717   0.00000  Uiso   1.00
C313   C     0.83573   0.97876   0.12613   0.00000  Uiso   1.00
C314   C     0.83094   0.68790   0.20720   0.00000  Uiso   1.00
C315   C     0.83316   0.95748   0.16665   0.00000  Uiso   1.00
C316   C     0.83350   0.70918   0.16668   0.00000  Uiso   1.00
C317   C     0.86610   0.85995   0.02804   0.00000  Uiso   1.00
C318   C     0.80056   0.80672   0.30529   0.00000  Uiso   1.00
C319   C     0.86582   0.86011   0.31358   0.00000  Uiso   1.00
C320   C     0.80085   0.80655   0.01975   0.00000  Uiso   1.00
H321   H     0.83833   0.70415   0.09460   0.00000  Uiso   1.00
H322   H     0.82834   0.96252   0.23874   0.00000  Uiso   1.00
H323   H     0.83755   0.96271   0.09449   0.00000  Uiso   1.00
H324   H     0.82911   0.70395   0.23885   0.00000  Uiso   1.00
N325   N     0.83332   0.83332   0.28573   0.00000  Uiso   1.00
N326   N     0.83335   0.83334   0.04760   0.00000  Uiso   1.00
O327   O     0.83333   0.77225   0.20487   0.00000  Uiso   1.00
O328   O     0.83334   0.89442   0.12846   0.00000  Uiso   1.00
O329   O     0.83333   0.77226   0.12843   0.00000  Uiso   1.00
O330   O     0.83334   0.89441   0.20490   0.00000  Uiso   1.00
O331   O     0.75725   0.83333   0.19595   0.00000  Uiso   1.00
O332   O     0.90942   0.83334   0.13739   0.00000  Uiso   1.00
O333   O     0.75725   0.83334   0.11950   0.00000  Uiso   1.00
O334   O     0.90942   0.83333   0.21383   0.00000  Uiso   1.00
Zn335  Zn    0.83333   0.83333   0.21771   0.00000  Uiso   1.00
Zn336  Zn    0.83333   0.83334   0.11563   0.00000  Uiso   1.00
Br337  Br    0.98459   0.78153   0.10839   0.00000  Uiso   1.00
Br338  Br    0.68207   0.88514   0.22494   0.00000  Uiso   1.00
Br339  Br    0.91381   0.89724   0.06532   0.00000  Uiso   1.00
Br340  Br    0.75286   0.76943   0.26802   0.00000  Uiso   1.00
Br341  Br    0.91116   0.89909   0.28827   0.00000  Uiso   1.00
Br342  Br    0.75551   0.76758   0.04506   0.00000  Uiso   1.00
C343   C     0.16672   0.08672   0.49999   0.00000  Uiso   1.00
C344   C     0.16661   0.24661   0.50001   0.00000  Uiso   1.00
C345   C     0.06722   0.16597   0.48841   0.00000  Uiso   1.00
C346   C     0.26611   0.16736   0.51159   0.00000  Uiso   1.00
C347   C     0.01279   0.15852   0.48413   0.00000  Uiso   1.00
C348   C     0.32054   0.17481   0.51587   0.00000  Uiso   1.00
C349   C     0.16937   0.02134   0.45950   0.00000  Uiso   1.00
C350   C     0.16396   0.31199   0.54050   0.00000  Uiso   1.00
C351   C     0.16906   0.31210   0.45946   0.00000  Uiso   1.00
C352   C     0.16427   0.02124   0.54054   0.00000  Uiso   1.00
C353   C     0.16650   0.29082   0.49999   0.00000  Uiso   1.00
C354   C     0.16684   0.04252   0.50001   0.00000  Uiso   1.00
C355   C     0.19944   0.19328   0.36138   0.00000  Uiso   1.00
C356   C     0.13390   0.14005   0.63862   0.00000  Uiso   1.00
C357   C     0.19915   0.19345   0.64692   0.00000  Uiso   1.00
C358   C     0.13418   0.13989   0.35308   0.00000  Uiso   1.00
H359   H     0.17166   0.03748   0.42793   0.00000  Uiso   1.00
H360   H     0.16167   0.29585   0.57207   0.00000  Uiso   1.00
H361   H     0.17089   0.29605   0.42782   0.00000  Uiso   1.00
H362   H     0.16245   0.03729   0.57218   0.00000  Uiso   1.00
N363   N     0.16665   0.16666   0.61907   0.00000  Uiso   1.00
N364   N     0.16668   0.16668   0.38093   0.00000  Uiso   1.00
O365   O     0.16666   0.10558   0.53821   0.00000  Uiso   1.00
O366   O     0.16667   0.22775   0.46179   0.00000  Uiso   1.00
O367   O     0.16666   0.10559   0.46176   0.00000  Uiso   1.00
O368   O     0.16667   0.22774   0.53824   0.00000  Uiso   1.00
O369   O     0.09058   0.16666   0.52928   0.00000  Uiso   1.00
O370   O     0.24275   0.16667   0.47072   0.00000  Uiso   1.00
O371   O     0.09058   0.16667   0.45284   0.00000  Uiso   1.00
O372   O     0.24275   0.16666   0.54716   0.00000  Uiso   1.00
Zn373  Zn    0.16667   0.16666   0.55104   0.00000  Uiso   1.00
Zn374  Zn    0.16667   0.16667   0.44896   0.00000  Uiso   1.00
Br375  Br    0.31793   0.11486   0.44173   0.00000  Uiso   1.00
Br376  Br    0.01541   0.21847   0.55827   0.00000  Uiso   1.00
Br377  Br    0.24714   0.23057   0.39865   0.00000  Uiso   1.00
Br378  Br    0.08619   0.10276   0.60135   0.00000  Uiso   1.00
Br379  Br    0.24449   0.23242   0.62160   0.00000  Uiso   1.00
Br380  Br    0.08884   0.10091   0.37840   0.00000  Uiso   1.00
C381   C     0.50006   0.08672   0.49999   0.00000  Uiso   1.00
C382   C     0.49994   0.24661   0.50001   0.00000  Uiso   1.00
C383   C     0.40056   0.16597   0.48841   0.00000  Uiso   1.00
C384   C     0.59944   0.16736   0.51159   0.00000  Uiso   1.00
C385   C     0.34612   0.15852   0.48413   0.00000  Uiso   1.00
C386   C     0.65388   0.17481   0.51587   0.00000  Uiso   1.00
C387   C     0.50270   0.02134   0.45950   0.00000  Uiso   1.00
C388   C     0.49730   0.31199   0.54050   0.00000  Uiso   1.00
C389   C     0.50239   0.31210   0.45946   0.00000  Uiso   1.00
C390   C     0.49761   0.02124   0.54054   0.00000  Uiso   1.00
C391   C     0.49983   0.29082   0.49999   0.00000  Uiso   1.00
C392   C     0.50017   0.04252   0.50001   0.00000  Uiso   1.00
C393   C     0.53277   0.19328   0.36138   0.00000  Uiso   1.00
C394   C     0.46723   0.14005   0.63862   0.00000  Uiso   1.00
C395   C     0.53249   0.19345   0.64692   0.00000  Uiso   1.00
C396   C     0.46751   0.13989   0.35308   0.00000  Uiso   1.00
H397   H     0.50499   0.03748   0.42793   0.00000  Uiso   1.00
H398   H     0.49501   0.29585   0.57207   0.00000  Uiso   1.00
H399   H     0.50422   0.29605   0.42782   0.00000  Uiso   1.00
H400   H     0.49578   0.03729   0.57218   0.00000  Uiso   1.00
N401   N     0.49999   0.16666   0.61907   0.00000  Uiso   1.00
N402   N     0.50001   0.16668   0.38093   0.00000  Uiso   1.00
O403   O     0.50000   0.10558   0.53821   0.00000  Uiso   1.00
O404   O     0.50000   0.22775   0.46179   0.00000  Uiso   1.00
O405   O     0.50000   0.10559   0.46176   0.00000  Uiso   1.00
O406   O     0.50000   0.22774   0.53824   0.00000  Uiso   1.00
O407   O     0.42392   0.16666   0.52928   0.00000  Uiso   1.00
O408   O     0.57608   0.16667   0.47072   0.00000  Uiso   1.00
O409   O     0.42392   0.16667   0.45284   0.00000  Uiso   1.00
O410   O     0.57608   0.16666   0.54716   0.00000  Uiso   1.00
Zn411  Zn    0.50000   0.16666   0.55104   0.00000  Uiso   1.00
Zn412  Zn    0.50000   0.16667   0.44896   0.00000  Uiso   1.00
Br413  Br    0.65126   0.11486   0.44173   0.00000  Uiso   1.00
Br414  Br    0.34874   0.21847   0.55827   0.00000  Uiso   1.00
Br415  Br    0.58047   0.23057   0.39865   0.00000  Uiso   1.00
Br416  Br    0.41953   0.10276   0.60135   0.00000  Uiso   1.00
Br417  Br    0.57783   0.23242   0.62160   0.00000  Uiso   1.00
Br418  Br    0.42217   0.10091   0.37840   0.00000  Uiso   1.00
C419   C     0.83339   0.08672   0.49999   0.00000  Uiso   1.00
C420   C     0.83328   0.24661   0.50001   0.00000  Uiso   1.00
C421   C     0.73389   0.16597   0.48841   0.00000  Uiso   1.00
C422   C     0.93278   0.16736   0.51159   0.00000  Uiso   1.00
C423   C     0.67946   0.15852   0.48413   0.00000  Uiso   1.00
C424   C     0.98721   0.17481   0.51587   0.00000  Uiso   1.00
C425   C     0.83604   0.02134   0.45950   0.00000  Uiso   1.00
C426   C     0.83063   0.31199   0.54050   0.00000  Uiso   1.00
C427   C     0.83573   0.31210   0.45946   0.00000  Uiso   1.00
C428   C     0.83094   0.02124   0.54054   0.00000  Uiso   1.00
C429   C     0.83316   0.29082   0.49999   0.00000  Uiso   1.00
C430   C     0.83350   0.04252   0.50001   0.00000  Uiso   1.00
C431   C     0.86610   0.19328   0.36138   0.00000  Uiso   1.00
C432   C     0.80056   0.14005   0.63862   0.00000  Uiso   1.00
C433   C     0.86582   0.19345   0.64692   0.00000  Uiso   1.00
C434   C     0.80085   0.13989   0.35308   0.00000  Uiso   1.00
H435   H     0.83833   0.03748   0.42793   0.00000  Uiso   1.00
H436   H     0.82834   0.29585   0.57207   0.00000  Uiso   1.00
H437   H     0.83755   0.29605   0.42782   0.00000  Uiso   1.00
H438   H     0.82911   0.03729   0.57218   0.00000  Uiso   1.00
N439   N     0.83332   0.16666   0.61907   0.00000  Uiso   1.00
N440   N     0.83335   0.16668   0.38093   0.00000  Uiso   1.00
O441   O     0.83333   0.10558   0.53821   0.00000  Uiso   1.00
O442   O     0.83334   0.22775   0.46179   0.00000  Uiso   1.00
O443   O     0.83333   0.10559   0.46176   0.00000  Uiso   1.00
O444   O     0.83334   0.22774   0.53824   0.00000  Uiso   1.00
O445   O     0.75725   0.16666   0.52928   0.00000  Uiso   1.00
O446   O     0.90942   0.16667   0.47072   0.00000  Uiso   1.00
O447   O     0.75725   0.16667   0.45284   0.00000  Uiso   1.00
O448   O     0.90942   0.16666   0.54716   0.00000  Uiso   1.00
Zn449  Zn    0.83333   0.16666   0.55104   0.00000  Uiso   1.00
Zn450  Zn    0.83333   0.16667   0.44896   0.00000  Uiso   1.00
Br451  Br    0.98459   0.11486   0.44173   0.00000  Uiso   1.00
Br452  Br    0.68207   0.21847   0.55827   0.00000  Uiso   1.00
Br453  Br    0.91381   0.23057   0.39865   0.00000  Uiso   1.00
Br454  Br    0.75286   0.10276   0.60135   0.00000  Uiso   1.00
Br455  Br    0.91116   0.23242   0.62160   0.00000  Uiso   1.00
Br456  Br    0.75551   0.10091   0.37840   0.00000  Uiso   1.00
C457   C     0.16672   0.42006   0.49999   0.00000  Uiso   1.00
C458   C     0.16661   0.57994   0.50001   0.00000  Uiso   1.00
C459   C     0.06722   0.49930   0.48841   0.00000  Uiso   1.00
C460   C     0.26611   0.50070   0.51159   0.00000  Uiso   1.00
C461   C     0.01279   0.49185   0.48413   0.00000  Uiso   1.00
C462   C     0.32054   0.50815   0.51587   0.00000  Uiso   1.00
C463   C     0.16937   0.35468   0.45950   0.00000  Uiso   1.00
C464   C     0.16396   0.64532   0.54050   0.00000  Uiso   1.00
C465   C     0.16906   0.64543   0.45946   0.00000  Uiso   1.00
C466   C     0.16427   0.35457   0.54054   0.00000  Uiso   1.00
C467   C     0.16650   0.62415   0.49999   0.00000  Uiso   1.00
C468   C     0.16684   0.37585   0.50001   0.00000  Uiso   1.00
C469   C     0.19944   0.52662   0.36138   0.00000  Uiso   1.00
C470   C     0.13390   0.47338   0.63862   0.00000  Uiso   1.00
C471   C     0.19915   0.52678   0.64692   0.00000  Uiso   1.00
C472   C     0.13418   0.47322   0.35308   0.00000  Uiso   1.00
H473   H     0.17166   0.37082   0.42793   0.00000  Uiso   1.00
H474   H     0.16167   0.62918   0.57207   0.00000  Uiso   1.00
H475   H     0.17089   0.62938   0.42782   0.00000  Uiso   1.00
H476   H     0.16245   0.37062   0.57218   0.00000  Uiso   1.00
N477   N     0.16665   0.49999   0.61907   0.00000  Uiso   1.00
N478   N     0.16668   0.50001   0.38093   0.00000  Uiso   1.00
O479   O     0.16666   0.43892   0.53821   0.00000  Uiso   1.00
O480   O     0.16667   0.56108   0.46179   0.00000  Uiso   1.00
O481   O     0.16666   0.43893   0.46176   0.00000  Uiso   1.00
O482   O     0.16667   0.56107   0.53824   0.00000  Uiso   1.00
O483   O     0.09058   0.50000   0.52928   0.00000  Uiso   1.00
O484   O     0.24275   0.50000   0.47072   0.00000  Uiso   1.00
O485   O     0.09058   0.50000   0.45284   0.00000  Uiso   1.00
O486   O     0.24275   0.50000   0.54716   0.00000  Uiso   1.00
Zn487  Zn    0.16667   0.49999   0.55104   0.00000  Uiso   1.00
Zn488  Zn    0.16667   0.50001   0.44896   0.00000  Uiso   1.00
Br489  Br    0.31793   0.44819   0.44173   0.00000  Uiso   1.00
Br490  Br    0.01541   0.55181   0.55827   0.00000  Uiso   1.00
Br491  Br    0.24714   0.56390   0.39865   0.00000  Uiso   1.00
Br492  Br    0.08619   0.43610   0.60135   0.00000  Uiso   1.00
Br493  Br    0.24449   0.56576   0.62160   0.00000  Uiso   1.00
Br494  Br    0.08884   0.43424   0.37840   0.00000  Uiso   1.00
C495   C     0.50006   0.42006   0.49999   0.00000  Uiso   1.00
C496   C     0.49994   0.57994   0.50001   0.00000  Uiso   1.00
C497   C     0.40056   0.49930   0.48841   0.00000  Uiso   1.00
C498   C     0.59944   0.50070   0.51159   0.00000  Uiso   1.00
C499   C     0.34612   0.49185   0.48413   0.00000  Uiso   1.00
C500   C     0.65388   0.50815   0.51587   0.00000  Uiso   1.00
C501   C     0.50270   0.35468   0.45950   0.00000  Uiso   1.00
C502   C     0.49730   0.64532   0.54050   0.00000  Uiso   1.00
C503   C     0.50239   0.64543   0.45946   0.00000  Uiso   1.00
C504   C     0.49761   0.35457   0.54054   0.00000  Uiso   1.00
C505   C     0.49983   0.62415   0.49999   0.00000  Uiso   1.00
C506   C     0.50017   0.37585   0.50001   0.00000  Uiso   1.00
C507   C     0.53277   0.52662   0.36138   0.00000  Uiso   1.00
C508   C     0.46723   0.47338   0.63862   0.00000  Uiso   1.00
C509   C     0.53249   0.52678   0.64692   0.00000  Uiso   1.00
C510   C     0.46751   0.47322   0.35308   0.00000  Uiso   1.00
H511   H     0.50499   0.37082   0.42793   0.00000  Uiso   1.00
H512   H     0.49501   0.62918   0.57207   0.00000  Uiso   1.00
H513   H     0.50422   0.62938   0.42782   0.00000  Uiso   1.00
H514   H     0.49578   0.37062   0.57218   0.00000  Uiso   1.00
N515   N     0.49999   0.49999   0.61907   0.00000  Uiso   1.00
N516   N     0.50001   0.50001   0.38093   0.00000  Uiso   1.00
O517   O     0.50000   0.43892   0.53821   0.00000  Uiso   1.00
O518   O     0.50000   0.56108   0.46179   0.00000  Uiso   1.00
O519   O     0.50000   0.43893   0.46176   0.00000  Uiso   1.00
O520   O     0.50000   0.56107   0.53824   0.00000  Uiso   1.00
O521   O     0.42392   0.50000   0.52928   0.00000  Uiso   1.00
O522   O     0.57608   0.50000   0.47072   0.00000  Uiso   1.00
O523   O     0.42392   0.50000   0.45284   0.00000  Uiso   1.00
O524   O     0.57608   0.50000   0.54716   0.00000  Uiso   1.00
Zn525  Zn    0.50000   0.49999   0.55104   0.00000  Uiso   1.00
Zn526  Zn    0.50000   0.50001   0.44896   0.00000  Uiso   1.00
Br527  Br    0.65126   0.44819   0.44173   0.00000  Uiso   1.00
Br528  Br    0.34874   0.55181   0.55827   0.00000  Uiso   1.00
Br529  Br    0.58047   0.56390   0.39865   0.00000  Uiso   1.00
Br530  Br    0.41953   0.43610   0.60135   0.00000  Uiso   1.00
Br531  Br    0.57783   0.56576   0.62160   0.00000  Uiso   1.00
Br532  Br    0.42217   0.43424   0.37840   0.00000  Uiso   1.00
C533   C     0.83339   0.42006   0.49999   0.00000  Uiso   1.00
C534   C     0.83328   0.57994   0.50001   0.00000  Uiso   1.00
C535   C     0.73389   0.49930   0.48841   0.00000  Uiso   1.00
C536   C     0.93278   0.50070   0.51159   0.00000  Uiso   1.00
C537   C     0.67946   0.49185   0.48413   0.00000  Uiso   1.00
C538   C     0.98721   0.50815   0.51587   0.00000  Uiso   1.00
C539   C     0.83604   0.35468   0.45950   0.00000  Uiso   1.00
C540   C     0.83063   0.64532   0.54050   0.00000  Uiso   1.00
C541   C     0.83573   0.64543   0.45946   0.00000  Uiso   1.00
C542   C     0.83094   0.35457   0.54054   0.00000  Uiso   1.00
C543   C     0.83316   0.62415   0.49999   0.00000  Uiso   1.00
C544   C     0.83350   0.37585   0.50001   0.00000  Uiso   1.00
C545   C     0.86610   0.52662   0.36138   0.00000  Uiso   1.00
C546   C     0.80056   0.47338   0.63862   0.00000  Uiso   1.00
C547   C     0.86582   0.52678   0.64692   0.00000  Uiso   1.00
C548   C     0.80085   0.47322   0.35308   0.00000  Uiso   1.00
H549   H     0.83833   0.37082   0.42793   0.00000  Uiso   1.00
H550   H     0.82834   0.62918   0.57207   0.00000  Uiso   1.00
H551   H     0.83755   0.62938   0.42782   0.00000  Uiso   1.00
H552   H     0.82911   0.37062   0.57218   0.00000  Uiso   1.00
N553   N     0.83332   0.49999   0.61907   0.00000  Uiso   1.00
N554   N     0.83335   0.50001   0.38093   0.00000  Uiso   1.00
O555   O     0.83333   0.43892   0.53821   0.00000  Uiso   1.00
O556   O     0.83334   0.56108   0.46179   0.00000  Uiso   1.00
O557   O     0.83333   0.43893   0.46176   0.00000  Uiso   1.00
O558   O     0.83334   0.56107   0.53824   0.00000  Uiso   1.00
O559   O     0.75725   0.50000   0.52928   0.00000  Uiso   1.00
O560   O     0.90942   0.50000   0.47072   0.00000  Uiso   1.00
O561   O     0.75725   0.50000   0.45284   0.00000  Uiso   1.00
O562   O     0.90942   0.50000   0.54716   0.00000  Uiso   1.00
Zn563  Zn    0.83333   0.49999   0.55104   0.00000  Uiso   1.00
Zn564  Zn    0.83333   0.50001   0.44896   0.00000  Uiso   1.00
Br565  Br    0.98459   0.44819   0.44173   0.00000  Uiso   1.00
Br566  Br    0.68207   0.55181   0.55827   0.00000  Uiso   1.00
Br567  Br    0.91381   0.56390   0.39865   0.00000  Uiso   1.00
Br568  Br    0.75286   0.43610   0.60135   0.00000  Uiso   1.00
Br569  Br    0.91116   0.56576   0.62160   0.00000  Uiso   1.00
Br570  Br    0.75551   0.43424   0.37840   0.00000  Uiso   1.00
C571   C     0.16672   0.75339   0.49999   0.00000  Uiso   1.00
C572   C     0.16661   0.91328   0.50001   0.00000  Uiso   1.00
C573   C     0.06722   0.83264   0.48841   0.00000  Uiso   1.00
C574   C     0.26611   0.83403   0.51159   0.00000  Uiso   1.00
C575   C     0.01279   0.82519   0.48413   0.00000  Uiso   1.00
C576   C     0.32054   0.84148   0.51587   0.00000  Uiso   1.00
C577   C     0.16937   0.68801   0.45950   0.00000  Uiso   1.00
C578   C     0.16396   0.97866   0.54050   0.00000  Uiso   1.00
C579   C     0.16906   0.97876   0.45946   0.00000  Uiso   1.00
C580   C     0.16427   0.68790   0.54054   0.00000  Uiso   1.00
C581   C     0.16650   0.95748   0.49999   0.00000  Uiso   1.00
C582   C     0.16684   0.70918   0.50001   0.00000  Uiso   1.00
C583   C     0.19944   0.85995   0.36138   0.00000  Uiso   1.00
C584   C     0.13390   0.80672   0.63862   0.00000  Uiso   1.00
C585   C     0.19915   0.86011   0.64692   0.00000  Uiso   1.00
C586   C     0.13418   0.80655   0.35308   0.00000  Uiso   1.00
H587   H     0.17166   0.70415   0.42793   0.00000  Uiso   1.00
H588   H     0.16167   0.96252   0.57207   0.00000  Uiso   1.00
H589   H     0.17089   0.96271   0.42782   0.00000  Uiso   1.00
H590   H     0.16245   0.70395   0.57218   0.00000  Uiso   1.00
N591   N     0.16665   0.83332   0.61907   0.00000  Uiso   1.00
N592   N     0.16668   0.83334   0.38093   0.00000  Uiso   1.00
O593   O     0.16666   0.77225   0.53821   0.00000  Uiso   1.00
O594   O     0.16667   0.89442   0.46179   0.00000  Uiso   1.00
O595   O     0.16666   0.77226   0.46176   0.00000  Uiso   1.00
O596   O     0.16667   0.89441   0.53824   0.00000  Uiso   1.00
O597   O     0.09058   0.83333   0.52928   0.00000  Uiso   1.00
O598   O     0.24275   0.83334   0.47072   0.00000  Uiso   1.00
O599   O     0.09058   0.83334   0.45284   0.00000  Uiso   1.00
O600   O     0.24275   0.83333   0.54716   0.00000  Uiso   1.00
Zn601  Zn    0.16667   0.83333   0.55104   0.00000  Uiso   1.00
Zn602  Zn    0.16667   0.83334   0.44896   0.00000  Uiso   1.00
Br603  Br    0.31793   0.78153   0.44173   0.00000  Uiso   1.00
Br604  Br    0.01541   0.88514   0.55827   0.00000  Uiso   1.00
Br605  Br    0.24714   0.89724   0.39865   0.00000  Uiso   1.00
Br606  Br    0.08619   0.76943   0.60135   0.00000  Uiso   1.00
Br607  Br    0.24449   0.89909   0.62160   0.00000  Uiso   1.00
Br608  Br    0.08884   0.76758   0.37840   0.00000  Uiso   1.00
C609   C     0.50006   0.75339   0.49999   0.00000  Uiso   1.00
C610   C     0.49994   0.91328   0.50001   0.00000  Uiso   1.00
C611   C     0.40056   0.83264   0.48841   0.00000  Uiso   1.00
C612   C     0.59944   0.83403   0.51159   0.00000  Uiso   1.00
C613   C     0.34612   0.82519   0.48413   0.00000  Uiso   1.00
C614   C     0.65388   0.84148   0.51587   0.00000  Uiso   1.00
C615   C     0.50270   0.68801   0.45950   0.00000  Uiso   1.00
C616   C     0.49730   0.97866   0.54050   0.00000  Uiso   1.00
C617   C     0.50239   0.97876   0.45946   0.00000  Uiso   1.00
C618   C     0.49761   0.68790   0.54054   0.00000  Uiso   1.00
C619   C     0.49983   0.95748   0.49999   0.00000  Uiso   1.00
C620   C     0.50017   0.70918   0.50001   0.00000  Uiso   1.00
C621   C     0.53277   0.85995   0.36138   0.00000  Uiso   1.00
C622   C     0.46723   0.80672   0.63862   0.00000  Uiso   1.00
C623   C     0.53249   0.86011   0.64692   0.00000  Uiso   1.00
C624   C     0.46751   0.80655   0.35308   0.00000  Uiso   1.00
H625   H     0.50499   0.70415   0.42793   0.00000  Uiso   1.00
H626   H     0.49501   0.96252   0.57207   0.00000  Uiso   1.00
H627   H     0.50422   0.96271   0.42782   0.00000  Uiso   1.00
H628   H     0.49578   0.70395   0.57218   0.00000  Uiso   1.00
N629   N     0.49999   0.83332   0.61907   0.00000  Uiso   1.00
N630   N     0.50001   0.83334   0.38093   0.00000  Uiso   1.00
O631   O     0.50000   0.77225   0.53821   0.00000  Uiso   1.00
O632   O     0.50000   0.89442   0.46179   0.00000  Uiso   1.00
O633   O     0.50000   0.77226   0.46176   0.00000  Uiso   1.00
O634   O     0.50000   0.89441   0.53824   0.00000  Uiso   1.00
O635   O     0.42392   0.83333   0.52928   0.00000  Uiso   1.00
O636   O     0.57608   0.83334   0.47072   0.00000  Uiso   1.00
O637   O     0.42392   0.83334   0.45284   0.00000  Uiso   1.00
O638   O     0.57608   0.83333   0.54716   0.00000  Uiso   1.00
Zn639  Zn    0.50000   0.83333   0.55104   0.00000  Uiso   1.00
Zn640  Zn    0.50000   0.83334   0.44896   0.00000  Uiso   1.00
Br641  Br    0.65126   0.78153   0.44173   0.00000  Uiso   1.00
Br642  Br    0.34874   0.88514   0.55827   0.00000  Uiso   1.00
Br643  Br    0.58047   0.89724   0.39865   0.00000  Uiso   1.00
Br644  Br    0.41953   0.76943   0.60135   0.00000  Uiso   1.00
Br645  Br    0.57783   0.89909   0.62160   0.00000  Uiso   1.00
Br646  Br    0.42217   0.76758   0.37840   0.00000  Uiso   1.00
C647   C     0.83339   0.75339   0.49999   0.00000  Uiso   1.00
C648   C     0.83328   0.91328   0.50001   0.00000  Uiso   1.00
C649   C     0.73389   0.83264   0.48841   0.00000  Uiso   1.00
C650   C     0.93278   0.83403   0.51159   0.00000  Uiso   1.00
C651   C     0.67946   0.82519   0.48413   0.00000  Uiso   1.00
C652   C     0.98721   0.84148   0.51587   0.00000  Uiso   1.00
C653   C     0.83604   0.68801   0.45950   0.00000  Uiso   1.00
C654   C     0.83063   0.97866   0.54050   0.00000  Uiso   1.00
C655   C     0.83573   0.97876   0.45946   0.00000  Uiso   1.00
C656   C     0.83094   0.68790   0.54054   0.00000  Uiso   1.00
C657   C     0.83316   0.95748   0.49999   0.00000  Uiso   1.00
C658   C     0.83350   0.70918   0.50001   0.00000  Uiso   1.00
C659   C     0.86610   0.85995   0.36138   0.00000  Uiso   1.00
C660   C     0.80056   0.80672   0.63862   0.00000  Uiso   1.00
C661   C     0.86582   0.86011   0.64692   0.00000  Uiso   1.00
C662   C     0.80085   0.80655   0.35308   0.00000  Uiso   1.00
H663   H     0.83833   0.70415   0.42793   0.00000  Uiso   1.00
H664   H     0.82834   0.96252   0.57207   0.00000  Uiso   1.00
H665   H     0.83755   0.96271   0.42782   0.00000  Uiso   1.00
H666   H     0.82911   0.70395   0.57218   0.00000  Uiso   1.00
N667   N     0.83332   0.83332   0.61907   0.00000  Uiso   1.00
N668   N     0.83335   0.83334   0.38093   0.00000  Uiso   1.00
O669   O     0.83333   0.77225   0.53821   0.00000  Uiso   1.00
O670   O     0.83334   0.89442   0.46179   0.00000  Uiso   1.00
O671   O     0.83333   0.77226   0.46176   0.00000  Uiso   1.00
O672   O     0.83334   0.89441   0.53824   0.00000  Uiso   1.00
O673   O     0.75725   0.83333   0.52928   0.00000  Uiso   1.00
O674   O     0.90942   0.83334   0.47072   0.00000  Uiso   1.00
O675   O     0.75725   0.83334   0.45284   0.00000  Uiso   1.00
O676   O     0.90942   0.83333   0.54716   0.00000  Uiso   1.00
Zn677  Zn    0.83333   0.83333   0.55104   0.00000  Uiso   1.00
Zn678  Zn    0.83333   0.83334   0.44896   0.00000  Uiso   1.00
Br679  Br    0.98459   0.78153   0.44173   0.00000  Uiso   1.00
Br680  Br    0.68207   0.88514   0.55827   0.00000  Uiso   1.00
Br681  Br    0.91381   0.89724   0.39865   0.00000  Uiso   1.00
Br682  Br    0.75286   0.76943   0.60135   0.00000  Uiso   1.00
Br683  Br    0.91116   0.89909   0.62160   0.00000  Uiso   1.00
Br684  Br    0.75551   0.76758   0.37840   0.00000  Uiso   1.00
C685   C     0.16672   0.08672   0.83332   0.00000  Uiso   1.00
C686   C     0.16661   0.24661   0.83335   0.00000  Uiso   1.00
C687   C     0.06722   0.16597   0.82174   0.00000  Uiso   1.00
C688   C     0.26611   0.16736   0.84492   0.00000  Uiso   1.00
C689   C     0.01279   0.15852   0.81746   0.00000  Uiso   1.00
C690   C     0.32054   0.17481   0.84920   0.00000  Uiso   1.00
C691   C     0.16937   0.02134   0.79283   0.00000  Uiso   1.00
C692   C     0.16396   0.31199   0.87383   0.00000  Uiso   1.00
C693   C     0.16906   0.31210   0.79280   0.00000  Uiso   1.00
C694   C     0.16427   0.02124   0.87387   0.00000  Uiso   1.00
C695   C     0.16650   0.29082   0.83332   0.00000  Uiso   1.00
C696   C     0.16684   0.04252   0.83335   0.00000  Uiso   1.00
C697   C     0.19944   0.19328   0.69471   0.00000  Uiso   1.00
C698   C     0.13390   0.14005   0.97196   0.00000  Uiso   1.00
C699   C     0.19915   0.19345   0.98025   0.00000  Uiso   1.00
C700   C     0.13418   0.13989   0.68642   0.00000  Uiso   1.00
H701   H     0.17166   0.03748   0.76126   0.00000  Uiso   1.00
H702   H     0.16167   0.29585   0.90540   0.00000  Uiso   1.00
H703   H     0.17089   0.29605   0.76115   0.00000  Uiso   1.00
H704   H     0.16245   0.03729   0.90551   0.00000  Uiso   1.00
N705   N     0.16665   0.16666   0.95240   0.00000  Uiso   1.00
N706   N     0.16668   0.16668   0.71427   0.00000  Uiso   1.00
O707   O     0.16666   0.10558   0.87154   0.00000  Uiso   1.00
O708   O     0.16667   0.22775   0.79513   0.00000  Uiso   1.00
O709   O     0.16666   0.10559   0.79510   0.00000  Uiso   1.00
O710   O     0.16667   0.22774   0.87157   0.00000  Uiso   1.00
O711   O     0.09058   0.16666   0.86261   0.00000  Uiso   1.00
O712   O     0.24275   0.16667   0.80405   0.00000  Uiso   1.00
O713   O     0.09058   0.16667   0.78617   0.00000  Uiso   1.00
O714   O     0.24275   0.16666   0.88050   0.00000  Uiso   1.00
Zn715  Zn    0.16667   0.16666   0.88437   0.00000  Uiso   1.00
Zn716  Zn    0.16667   0.16667   0.78229   0.00000  Uiso   1.00
Br717  Br    0.31793   0.11486   0.77506   0.00000  Uiso   1.00
Br718  Br    0.01541   0.21847   0.89161   0.00000  Uiso   1.00
Br719  Br    0.24714   0.23057   0.73198   0.00000  Uiso   1.00
Br720  Br    0.08619   0.10276   0.93468   0.00000  Uiso   1.00
Br721  Br    0.24449   0.23242   0.95494   0.00000  Uiso   1.00
Br722  Br    0.08884   0.10091   0.71173   0.00000  Uiso   1.00
C723   C     0.50006   0.08672   0.83332   0.00000  Uiso   1.00
C724   C     0.49994   0.24661   0.83335   0.00000  Uiso   1.00
C725   C     0.40056   0.16597   0.82174   0.00000  Uiso   1.00
C726   C     0.59944   0.16736   0.84492   0.00000  Uiso   1.00
C727   C     0.34612   0.15852   0.81746   0.00000  Uiso   1.00
C728   C     0.65388   0.17481   0.84920   0.00000  Uiso   1.00
C729   C     0.50270   0.02134   0.79283   0.00000  Uiso   1.00
C730   C     0.49730   0.31199   0.87383   0.00000  Uiso   1.00
C731   C     0.50239   0.31210   0.79280   0.00000  Uiso   1.00
C732   C     0.49761   0.02124   0.87387   0.00000  Uiso   1.00
C733   C     0.49983   0.29082   0.83332   0.00000  Uiso   1.00
C734   C     0.50017   0.04252   0.83335   0.00000  Uiso   1.00
C735   C     0.53277   0.19328   0.69471   0.00000  Uiso   1.00
C736   C     0.46723   0.14005   0.97196   0.00000  Uiso   1.00
C737   C     0.53249   0.19345   0.98025   0.00000  Uiso   1.00
C738   C     0.46751   0.13989   0.68642   0.00000  Uiso   1.00
H739   H     0.50499   0.03748   0.76126   0.00000  Uiso   1.00
H740   H     0.49501   0.29585   0.90540   0.00000  Uiso   1.00
H741   H     0.50422   0.29605   0.76115   0.00000  Uiso   1.00
H742   H     0.49578   0.03729   0.90551   0.00000  Uiso   1.00
N743   N     0.49999   0.16666   0.95240   0.00000  Uiso   1.00
N744   N     0.50001   0.16668   0.71427   0.00000  Uiso   1.00
O745   O     0.50000   0.10558   0.87154   0.00000  Uiso   1.00
O746   O     0.50000   0.22775   0.79513   0.00000  Uiso   1.00
O747   O     0.50000   0.10559   0.79510   0.00000  Uiso   1.00
O748   O     0.50000   0.22774   0.87157   0.00000  Uiso   1.00
O749   O     0.42392   0.16666   0.86261   0.00000  Uiso   1.00
O750   O     0.57608   0.16667   0.80405   0.00000  Uiso   1.00
O751   O     0.42392   0.16667   0.78617   0.00000  Uiso   1.00
O752   O     0.57608   0.16666   0.88050   0.00000  Uiso   1.00
Zn753  Zn    0.50000   0.16666   0.88437   0.00000  Uiso   1.00
Zn754  Zn    0.50000   0.16667   0.78229   0.00000  Uiso   1.00
Br755  Br    0.65126   0.11486   0.77506   0.00000  Uiso   1.00
Br756  Br    0.34874   0.21847   0.89161   0.00000  Uiso   1.00
Br757  Br    0.58047   0.23057   0.73198   0.00000  Uiso   1.00
Br758  Br    0.41953   0.10276   0.93468   0.00000  Uiso   1.00
Br759  Br    0.57783   0.23242   0.95494   0.00000  Uiso   1.00
Br760  Br    0.42217   0.10091   0.71173   0.00000  Uiso   1.00
C761   C     0.83339   0.08672   0.83332   0.00000  Uiso   1.00
C762   C     0.83328   0.24661   0.83335   0.00000  Uiso   1.00
C763   C     0.73389   0.16597   0.82174   0.00000  Uiso   1.00
C764   C     0.93278   0.16736   0.84492   0.00000  Uiso   1.00
C765   C     0.67946   0.15852   0.81746   0.00000  Uiso   1.00
C766   C     0.98721   0.17481   0.84920   0.00000  Uiso   1.00
C767   C     0.83604   0.02134   0.79283   0.00000  Uiso   1.00
C768   C     0.83063   0.31199   0.87383   0.00000  Uiso   1.00
C769   C     0.83573   0.31210   0.79280   0.00000  Uiso   1.00
C770   C     0.83094   0.02124   0.87387   0.00000  Uiso   1.00
C771   C     0.83316   0.29082   0.83332   0.00000  Uiso   1.00
C772   C     0.83350   0.04252   0.83335   0.00000  Uiso   1.00
C773   C     0.86610   0.19328   0.69471   0.00000  Uiso   1.00
C774   C     0.80056   0.14005   0.97196   0.00000  Uiso   1.00
C775   C     0.86582   0.19345   0.98025   0.00000  Uiso   1.00
C776   C     0.80085   0.13989   0.68642   0.00000  Uiso   1.00
H777   H     0.83833   0.03748   0.76126   0.00000  Uiso   1.00
H778   H     0.82834   0.29585   0.90540   0.00000  Uiso   1.00
H779   H     0.83755   0.29605   0.76115   0.00000  Uiso   1.00
H780   H     0.82911   0.03729   0.90551   0.00000  Uiso   1.00
N781   N     0.83332   0.16666   0.95240   0.00000  Uiso   1.00
N782   N     0.83335   0.16668   0.71427   0.00000  Uiso   1.00
O783   O     0.83333   0.10558   0.87154   0.00000  Uiso   1.00
O784   O     0.83334   0.22775   0.79513   0.00000  Uiso   1.00
O785   O     0.83333   0.10559   0.79510   0.00000  Uiso   1.00
O786   O     0.83334   0.22774   0.87157   0.00000  Uiso   1.00
O787   O     0.75725   0.16666   0.86261   0.00000  Uiso   1.00
O788   O     0.90942   0.16667   0.80405   0.00000  Uiso   1.00
O789   O     0.75725   0.16667   0.78617   0.00000  Uiso   1.00
O790   O     0.90942   0.16666   0.88050   0.00000  Uiso   1.00
Zn791  Zn    0.83333   0.16666   0.88437   0.00000  Uiso   1.00
Zn792  Zn    0.83333   0.16667   0.78229   0.00000  Uiso   1.00
Br793  Br    0.98459   0.11486   0.77506   0.00000  Uiso   1.00
Br794  Br    0.68207   0.21847   0.89161   0.00000  Uiso   1.00
Br795  Br    0.91381   0.23057   0.73198   0.00000  Uiso   1.00
Br796  Br    0.75286   0.10276   0.93468   0.00000  Uiso   1.00
Br797  Br    0.91116   0.23242   0.95494   0.00000  Uiso   1.00
Br798  Br    0.75551   0.10091   0.71173   0.00000  Uiso   1.00
C799   C     0.16672   0.42006   0.83332   0.00000  Uiso   1.00
C800   C     0.16661   0.57994   0.83335   0.00000  Uiso   1.00
C801   C     0.06722   0.49930   0.82174   0.00000  Uiso   1.00
C802   C     0.26611   0.50070   0.84492   0.00000  Uiso   1.00
C803   C     0.01279   0.49185   0.81746   0.00000  Uiso   1.00
C804   C     0.32054   0.50815   0.84920   0.00000  Uiso   1.00
C805   C     0.16937   0.35468   0.79283   0.00000  Uiso   1.00
C806   C     0.16396   0.64532   0.87383   0.00000  Uiso   1.00
C807   C     0.16906   0.64543   0.79280   0.00000  Uiso   1.00
C808   C     0.16427   0.35457   0.87387   0.00000  Uiso   1.00
C809   C     0.16650   0.62415   0.83332   0.00000  Uiso   1.00
C810   C     0.16684   0.37585   0.83335   0.00000  Uiso   1.00
C811   C     0.19944   0.52662   0.69471   0.00000  Uiso   1.00
C812   C     0.13390   0.47338   0.97196   0.00000  Uiso   1.00
C813   C     0.19915   0.52678   0.98025   0.00000  Uiso   1.00
C814   C     0.13418   0.47322   0.68642   0.00000  Uiso   1.00
H815   H     0.17166   0.37082   0.76126   0.00000  Uiso   1.00
H816   H     0.16167   0.62918   0.90540   0.00000  Uiso   1.00
H817   H     0.17089   0.62938   0.76115   0.00000  Uiso   1.00
H818   H     0.16245   0.37062   0.90551   0.00000  Uiso   1.00
N819   N     0.16665   0.49999   0.95240   0.00000  Uiso   1.00
N820   N     0.16668   0.50001   0.71427   0.00000  Uiso   1.00
O821   O     0.16666   0.43892   0.87154   0.00000  Uiso   1.00
O822   O     0.16667   0.56108   0.79513   0.00000  Uiso   1.00
O823   O     0.16666   0.43893   0.79510   0.00000  Uiso   1.00
O824   O     0.16667   0.56107   0.87157   0.00000  Uiso   1.00
O825   O     0.09058   0.50000   0.86261   0.00000  Uiso   1.00
O826   O     0.24275   0.50000   0.80405   0.00000  Uiso   1.00
O827   O     0.09058   0.50000   0.78617   0.00000  Uiso   1.00
O828   O     0.24275   0.50000   0.88050   0.00000  Uiso   1.00
Zn829  Zn    0.16667   0.49999   0.88437   0.00000  Uiso   1.00
Zn830  Zn    0.16667   0.50001   0.78229   0.00000  Uiso   1.00
Br831  Br    0.31793   0.44819   0.77506   0.00000  Uiso   1.00
Br832  Br    0.01541   0.55181   0.89161   0.00000  Uiso   1.00
Br833  Br    0.24714   0.56390   0.73198   0.00000  Uiso   1.00
Br834  Br    0.08619   0.43610   0.93468   0.00000  Uiso   1.00
Br835  Br    0.24449   0.56576   0.95494   0.00000  Uiso   1.00
Br836  Br    0.08884   0.43424   0.71173   0.00000  Uiso   1.00
C837   C     0.50006   0.42006   0.83332   0.00000  Uiso   1.00
C838   C     0.49994   0.57994   0.83335   0.00000  Uiso   1.00
C839   C     0.40056   0.49930   0.82174   0.00000  Uiso   1.00
C840   C     0.59944   0.50070   0.84492   0.00000  Uiso   1.00
C841   C     0.34612   0.49185   0.81746   0.00000  Uiso   1.00
C842   C     0.65388   0.50815   0.84920   0.00000  Uiso   1.00
C843   C     0.50270   0.35468   0.79283   0.00000  Uiso   1.00
C844   C     0.49730   0.64532   0.87383   0.00000  Uiso   1.00
C845   C     0.50239   0.64543   0.79280   0.00000  Uiso   1.00
C846   C     0.49761   0.35457   0.87387   0.00000  Uiso   1.00
C847   C     0.49983   0.62415   0.83332   0.00000  Uiso   1.00
C848   C     0.50017   0.37585   0.83335   0.00000  Uiso   1.00
C849   C     0.53277   0.52662   0.69471   0.00000  Uiso   1.00
C850   C     0.46723   0.47338   0.97196   0.00000  Uiso   1.00
C851   C     0.53249   0.52678   0.98025   0.00000  Uiso   1.00
C852   C     0.46751   0.47322   0.68642   0.00000  Uiso   1.00
H853   H     0.50499   0.37082   0.76126   0.00000  Uiso   1.00
H854   H     0.49501   0.62918   0.90540   0.00000  Uiso   1.00
H855   H     0.50422   0.62938   0.76115   0.00000  Uiso   1.00
H856   H     0.49578   0.37062   0.90551   0.00000  Uiso   1.00
N857   N     0.49999   0.49999   0.95240   0.00000  Uiso   1.00
N858   N     0.50001   0.50001   0.71427   0.00000  Uiso   1.00
O859   O     0.50000   0.43892   0.87154   0.00000  Uiso   1.00
O860   O     0.50000   0.56108   0.79513   0.00000  Uiso   1.00
O861   O     0.50000   0.43893   0.79510   0.00000  Uiso   1.00
O862   O     0.50000   0.56107   0.87157   0.00000  Uiso   1.00
O863   O     0.42392   0.50000   0.86261   0.00000  Uiso   1.00
O864   O     0.57608   0.50000   0.80405   0.00000  Uiso   1.00
O865   O     0.42392   0.50000   0.78617   0.00000  Uiso   1.00
O866   O     0.57608   0.50000   0.88050   0.00000  Uiso   1.00
Zn867  Zn    0.50000   0.49999   0.88437   0.00000  Uiso   1.00
Zn868  Zn    0.50000   0.50001   0.78229   0.00000  Uiso   1.00
Br869  Br    0.65126   0.44819   0.77506   0.00000  Uiso   1.00
Br870  Br    0.34874   0.55181   0.89161   0.00000  Uiso   1.00
Br871  Br    0.58047   0.56390   0.73198   0.00000  Uiso   1.00
Br872  Br    0.41953   0.43610   0.93468   0.00000  Uiso   1.00
Br873  Br    0.57783   0.56576   0.95494   0.00000  Uiso   1.00
Br874  Br    0.42217   0.43424   0.71173   0.00000  Uiso   1.00
C875   C     0.83339   0.42006   0.83332   0.00000  Uiso   1.00
C876   C     0.83328   0.57994   0.83335   0.00000  Uiso   1.00
C877   C     0.73389   0.49930   0.82174   0.00000  Uiso   1.00
C878   C     0.93278   0.50070   0.84492   0.00000  Uiso   1.00
C879   C     0.67946   0.49185   0.81746   0.00000  Uiso   1.00
C880   C     0.98721   0.50815   0.84920   0.00000  Uiso   1.00
C881   C     0.83604   0.35468   0.79283   0.00000  Uiso   1.00
C882   C     0.83063   0.64532   0.87383   0.00000  Uiso   1.00
C883   C     0.83573   0.64543   0.79280   0.00000  Uiso   1.00
C884   C     0.83094   0.35457   0.87387   0.00000  Uiso   1.00
C885   C     0.83316   0.62415   0.83332   0.00000  Uiso   1.00
C886   C     0.83350   0.37585   0.83335   0.00000  Uiso   1.00
C887   C     0.86610   0.52662   0.69471   0.00000  Uiso   1.00
C888   C     0.80056   0.47338   0.97196   0.00000  Uiso   1.00
C889   C     0.86582   0.52678   0.98025   0.00000  Uiso   1.00
C890   C     0.80085   0.47322   0.68642   0.00000  Uiso   1.00
H891   H     0.83833   0.37082   0.76126   0.00000  Uiso   1.00
H892   H     0.82834   0.62918   0.90540   0.00000  Uiso   1.00
H893   H     0.83755   0.62938   0.76115   0.00000  Uiso   1.00
H894   H     0.82911   0.37062   0.90551   0.00000  Uiso   1.00
N895   N     0.83332   0.49999   0.95240   0.00000  Uiso   1.00
N896   N     0.83335   0.50001   0.71427   0.00000  Uiso   1.00
O897   O     0.83333   0.43892   0.87154   0.00000  Uiso   1.00
O898   O     0.83334   0.56108   0.79513   0.00000  Uiso   1.00
O899   O     0.83333   0.43893   0.79510   0.00000  Uiso   1.00
O900   O     0.83334   0.56107   0.87157   0.00000  Uiso   1.00
O901   O     0.75725   0.50000   0.86261   0.00000  Uiso   1.00
O902   O     0.90942   0.50000   0.80405   0.00000  Uiso   1.00
O903   O     0.75725   0.50000   0.78617   0.00000  Uiso   1.00
O904   O     0.90942   0.50000   0.88050   0.00000  Uiso   1.00
Zn905  Zn    0.83333   0.49999   0.88437   0.00000  Uiso   1.00
Zn906  Zn    0.83333   0.50001   0.78229   0.00000  Uiso   1.00
Br907  Br    0.98459   0.44819   0.77506   0.00000  Uiso   1.00
Br908  Br    0.68207   0.55181   0.89161   0.00000  Uiso   1.00
Br909  Br    0.91381   0.56390   0.73198   0.00000  Uiso   1.00
Br910  Br    0.75286   0.43610   0.93468   0.00000  Uiso   1.00
Br911  Br    0.91116   0.56576   0.95494   0.00000  Uiso   1.00
Br912  Br    0.75551   0.43424   0.71173   0.00000  Uiso   1.00
C913   C     0.16672   0.75339   0.83332   0.00000  Uiso   1.00
C914   C     0.16661   0.91328   0.83335   0.00000  Uiso   1.00
C915   C     0.06722   0.83264   0.82174   0.00000  Uiso   1.00
C916   C     0.26611   0.83403   0.84492   0.00000  Uiso   1.00
C917   C     0.01279   0.82519   0.81746   0.00000  Uiso   1.00
C918   C     0.32054   0.84148   0.84920   0.00000  Uiso   1.00
C919   C     0.16937   0.68801   0.79283   0.00000  Uiso   1.00
C920   C     0.16396   0.97866   0.87383   0.00000  Uiso   1.00
C921   C     0.16906   0.97876   0.79280   0.00000  Uiso   1.00
C922   C     0.16427   0.68790   0.87387   0.00000  Uiso   1.00
C923   C     0.16650   0.95748   0.83332   0.00000  Uiso   1.00
C924   C     0.16684   0.70918   0.83335   0.00000  Uiso   1.00
C925   C     0.19944   0.85995   0.69471   0.00000  Uiso   1.00
C926   C     0.13390   0.80672   0.97196   0.00000  Uiso   1.00
C927   C     0.19915   0.86011   0.98025   0.00000  Uiso   1.00
C928   C     0.13418   0.80655   0.68642   0.00000  Uiso   1.00
H929   H     0.17166   0.70415   0.76126   0.00000  Uiso   1.00
H930   H     0.16167   0.96252   0.90540   0.00000  Uiso   1.00
H931   H     0.17089   0.96271   0.76115   0.00000  Uiso   1.00
H932   H     0.16245   0.70395   0.90551   0.00000  Uiso   1.00
N933   N     0.16665   0.83332   0.95240   0.00000  Uiso   1.00
N934   N     0.16668   0.83334   0.71427   0.00000  Uiso   1.00
O935   O     0.16666   0.77225   0.87154   0.00000  Uiso   1.00
O936   O     0.16667   0.89442   0.79513   0.00000  Uiso   1.00
O937   O     0.16666   0.77226   0.79510   0.00000  Uiso   1.00
O938   O     0.16667   0.89441   0.87157   0.00000  Uiso   1.00
O939   O     0.09058   0.83333   0.86261   0.00000  Uiso   1.00
O940   O     0.24275   0.83334   0.80405   0.00000  Uiso   1.00
O941   O     0.09058   0.83334   0.78617   0.00000  Uiso   1.00
O942   O     0.24275   0.83333   0.88050   0.00000  Uiso   1.00
Zn943  Zn    0.16667   0.83333   0.88437   0.00000  Uiso   1.00
Zn944  Zn    0.16667   0.83334   0.78229   0.00000  Uiso   1.00
Br945  Br    0.31793   0.78153   0.77506   0.00000  Uiso   1.00
Br946  Br    0.01541   0.88514   0.89161   0.00000  Uiso   1.00
Br947  Br    0.24714   0.89724   0.73198   0.00000  Uiso   1.00
Br948  Br    0.08619   0.76943   0.93468   0.00000  Uiso   1.00
Br949  Br    0.24449   0.89909   0.95494   0.00000  Uiso   1.00
Br950  Br    0.08884   0.76758   0.71173   0.00000  Uiso   1.00
C951   C     0.50006   0.75339   0.83332   0.00000  Uiso   1.00
C952   C     0.49994   0.91328   0.83335   0.00000  Uiso   1.00
C953   C     0.40056   0.83264   0.82174   0.00000  Uiso   1.00
C954   C     0.59944   0.83403   0.84492   0.00000  Uiso   1.00
C955   C     0.34612   0.82519   0.81746   0.00000  Uiso   1.00
C956   C     0.65388   0.84148   0.84920   0.00000  Uiso   1.00
C957   C     0.50270   0.68801   0.79283   0.00000  Uiso   1.00
C958   C     0.49730   0.97866   0.87383   0.00000  Uiso   1.00
C959   C     0.50239   0.97876   0.79280   0.00000  Uiso   1.00
C960   C     0.49761   0.68790   0.87387   0.00000  Uiso   1.00
C961   C     0.49983   0.95748   0.83332   0.00000  Uiso   1.00
C962   C     0.50017   0.70918   0.83335   0.00000  Uiso   1.00
C963   C     0.53277   0.85995   0.69471   0.00000  Uiso   1.00
C964   C     0.46723   0.80672   0.97196   0.00000  Uiso   1.00
C965   C     0.53249   0.86011   0.98025   0.00000  Uiso   1.00
C966   C     0.46751   0.80655   0.68642   0.00000  Uiso   1.00
H967   H     0.50499   0.70415   0.76126   0.00000  Uiso   1.00
H968   H     0.49501   0.96252   0.90540   0.00000  Uiso   1.00
H969   H     0.50422   0.96271   0.76115   0.00000  Uiso   1.00
H970   H     0.49578   0.70395   0.90551   0.00000  Uiso   1.00
N971   N     0.49999   0.83332   0.95240   0.00000  Uiso   1.00
N972   N     0.50001   0.83334   0.71427   0.00000  Uiso   1.00
O973   O     0.50000   0.77225   0.87154   0.00000  Uiso   1.00
O974   O     0.50000   0.89442   0.79513   0.00000  Uiso   1.00
O975   O     0.50000   0.77226   0.79510   0.00000  Uiso   1.00
O976   O     0.50000   0.89441   0.87157   0.00000  Uiso   1.00
O977   O     0.42392   0.83333   0.86261   0.00000  Uiso   1.00
O978   O     0.57608   0.83334   0.80405   0.00000  Uiso   1.00
O979   O     0.42392   0.83334   0.78617   0.00000  Uiso   1.00
O980   O     0.57608   0.83333   0.88050   0.00000  Uiso   1.00
Zn981  Zn    0.50000   0.83333   0.88437   0.00000  Uiso   1.00
Zn982  Zn    0.50000   0.83334   0.78229   0.00000  Uiso   1.00
Br983  Br    0.65126   0.78153   0.77506   0.00000  Uiso   1.00
Br984  Br    0.34874   0.88514   0.89161   0.00000  Uiso   1.00
Br985  Br    0.58047   0.89724   0.73198   0.00000  Uiso   1.00
Br986  Br    0.41953   0.76943   0.93468   0.00000  Uiso   1.00
Br987  Br    0.57783   0.89909   0.95494   0.00000  Uiso   1.00
Br988  Br    0.42217   0.76758   0.71173   0.00000  Uiso   1.00
C989   C     0.83339   0.75339   0.83332   0.00000  Uiso   1.00
C990   C     0.83328   0.91328   0.83335   0.00000  Uiso   1.00
C991   C     0.73389   0.83264   0.82174   0.00000  Uiso   1.00
C992   C     0.93278   0.83403   0.84492   0.00000  Uiso   1.00
C993   C     0.67946   0.82519   0.81746   0.00000  Uiso   1.00
C994   C     0.98721   0.84148   0.84920   0.00000  Uiso   1.00
C995   C     0.83604   0.68801   0.79283   0.00000  Uiso   1.00
C996   C     0.83063   0.97866   0.87383   0.00000  Uiso   1.00
C997   C     0.83573   0.97876   0.79280   0.00000  Uiso   1.00
C998   C     0.83094   0.68790   0.87387   0.00000  Uiso   1.00
C999   C     0.83316   0.95748   0.83332   0.00000  Uiso   1.00
C1000  C     0.83350   0.70918   0.83335   0.00000  Uiso   1.00
C1001  C     0.86610   0.85995   0.69471   0.00000  Uiso   1.00
C1002  C     0.80056   0.80672   0.97196   0.00000  Uiso   1.00
C1003  C     0.86582   0.86011   0.98025   0.00000  Uiso   1.00
C1004  C     0.80085   0.80655   0.68642   0.00000  Uiso   1.00
H1005  H     0.83833   0.70415   0.76126   0.00000  Uiso   1.00
H1006  H     0.82834   0.96252   0.90540   0.00000  Uiso   1.00
H1007  H     0.83755   0.96271   0.76115   0.00000  Uiso   1.00
H1008  H     0.82911   0.70395   0.90551   0.00000  Uiso   1.00
N1009  N     0.83332   0.83332   0.95240   0.00000  Uiso   1.00
N1010  N     0.83335   0.83334   0.71427   0.00000  Uiso   1.00
O1011  O     0.83333   0.77225   0.87154   0.00000  Uiso   1.00
O1012  O     0.83334   0.89442   0.79513   0.00000  Uiso   1.00
O1013  O     0.83333   0.77226   0.79510   0.00000  Uiso   1.00
O1014  O     0.83334   0.89441   0.87157   0.00000  Uiso   1.00
O1015  O     0.75725   0.83333   0.86261   0.00000  Uiso   1.00
O1016  O     0.90942   0.83334   0.80405   0.00000  Uiso   1.00
O1017  O     0.75725   0.83334   0.78617   0.00000  Uiso   1.00
O1018  O     0.90942   0.83333   0.88050   0.00000  Uiso   1.00
Zn1019 Zn    0.83333   0.83333   0.88437   0.00000  Uiso   1.00
Zn1020 Zn    0.83333   0.83334   0.78229   0.00000  Uiso   1.00
Br1021 Br    0.98459   0.78153   0.77506   0.00000  Uiso   1.00
Br1022 Br    0.68207   0.88514   0.89161   0.00000  Uiso   1.00
Br1023 Br    0.91381   0.89724   0.73198   0.00000  Uiso   1.00
Br1024 Br    0.75286   0.76943   0.93468   0.00000  Uiso   1.00
Br1025 Br    0.91116   0.89909   0.95494   0.00000  Uiso   1.00
Br1026 Br    0.75551   0.76758   0.71173   0.00000  Uiso   1.00
loop_
_geom_bond_atom_site_label_1
_geom_bond_atom_site_label_2
_geom_bond_distance
_geom_bond_site_symmetry_2
_ccdc_geom_bond_type
C1     O25     1.291   .     A
C1     C12     1.422   .     S
C1     O23     1.291   .     A
C2     O26     1.291   .     A
C2     C11     1.422   .     S
C2     O24     1.291   .     A
C3     O27     1.279   .     A
C3     O29     1.293   .     A
C3     C5      1.404   .     S
C4     O28     1.279   .     A
C4     C6      1.404   .     S
C4     O30     1.293   .     A
C5     C82     1.345   1_455 S
C5     Br109   1.940   1_455 S
C6     C43     1.345   .     S
C6     Br72    1.940   .     S
C7     C12     1.397   .     A
C7     H17     1.083   .     S
C7     C237    1.369   1_545 S
C8     H18     1.083   .     S
C8     C11     1.397   .     A
C8     C124    1.369   .     S
C9     C11     1.398   .     A
C9     H19     1.083   .     S
C9     C121    1.369   .     S
C10    C12     1.398   .     A
C10    H20     1.083   .     S
C10    C236    1.369   1_545 S
C13    Br35    1.922   .     S
C13    N22     1.372   .     A
C13    C699    1.424   1_554 S
C14    N21     1.372   .     A
C14    Br36    1.922   .     S
C14    C358    1.424   .     S
C15    N21     1.373   .     A
C15    Br37    1.915   .     S
C15    C355    1.424   .     S
C16    Br38    1.915   .     S
C16    N22     1.373   .     A
C16    C698    1.424   1_554 S
N21    Zn31    2.028   .     S
N22    Zn32    2.028   .     S
O23    Zn31    2.001   .     S
O24    Zn32    2.001   .     S
O25    Zn32    2.001   .     S
O26    Zn31    2.001   .     S
O27    Zn31    1.977   .     S
O28    Zn32    1.977   .     S
O29    Zn32    1.983   .     S
O30    Zn31    1.983   .     S
Br33   C43     1.940   .     S
Br34   C82     1.940   1_455 S
C39    O63     1.291   .     A
C39    C50     1.422   .     S
C39    O61     1.291   .     A
C40    O64     1.291   .     A
C40    C49     1.422   .     S
C40    O62     1.291   .     A
C41    O65     1.279   .     A
C41    O67     1.293   .     A
C41    C43     1.404   .     S
C42    O66     1.279   .     A
C42    C44     1.404   .     S
C42    O68     1.293   .     A
C44    C81     1.345   .     S
C44    Br110   1.940   .     S
C45    C50     1.397   .     A
C45    H55     1.083   .     S
C45    C275    1.369   1_545 S
C46    H56     1.083   .     S
C46    C49     1.397   .     A
C46    C162    1.369   .     S
C47    C49     1.398   .     A
C47    H57     1.083   .     S
C47    C159    1.369   .     S
C48    C50     1.398   .     A
C48    H58     1.083   .     S
C48    C274    1.369   1_545 S
C51    Br73    1.922   .     S
C51    N60     1.372   .     A
C51    C737    1.424   1_554 S
C52    N59     1.372   .     A
C52    Br74    1.922   .     S
C52    C396    1.424   .     S
C53    N59     1.373   .     A
C53    Br75    1.915   .     S
C53    C393    1.424   .     S
C54    Br76    1.915   .     S
C54    N60     1.373   .     A
C54    C736    1.424   1_554 S
N59    Zn69    2.028   .     S
N60    Zn70    2.028   .     S
O61    Zn69    2.001   .     S
O62    Zn70    2.001   .     S
O63    Zn70    2.001   .     S
O64    Zn69    2.001   .     S
O65    Zn69    1.977   .     S
O66    Zn70    1.977   .     S
O67    Zn70    1.983   .     S
O68    Zn69    1.983   .     S
Br71   C81     1.940   .     S
C77    O101    1.291   .     A
C77    C88     1.422   .     S
C77    O99     1.291   .     A
C78    O102    1.291   .     A
C78    C87     1.422   .     S
C78    O100    1.291   .     A
C79    O103    1.279   .     A
C79    O105    1.293   .     A
C79    C81     1.404   .     S
C80    O104    1.279   .     A
C80    C82     1.404   .     S
C80    O106    1.293   .     A
C82    C5      1.345   1_655 S
C82    Br34    1.940   1_655 S
C83    C88     1.397   .     A
C83    H93     1.083   .     S
C83    C313    1.369   1_545 S
C84    H94     1.083   .     S
C84    C87     1.397   .     A
C84    C200    1.369   .     S
C85    C87     1.398   .     A
C85    H95     1.083   .     S
C85    C197    1.369   .     S
C86    C88     1.398   .     A
C86    H96     1.083   .     S
C86    C312    1.369   1_545 S
C89    Br111   1.922   .     S
C89    N98     1.372   .     A
C89    C775    1.424   1_554 S
C90    N97     1.372   .     A
C90    Br112   1.922   .     S
C90    C434    1.424   .     S
C91    N97     1.373   .     A
C91    Br113   1.915   .     S
C91    C431    1.424   .     S
C92    Br114   1.915   .     S
C92    N98     1.373   .     A
C92    C774    1.424   1_554 S
N97    Zn107   2.028   .     S
N98    Zn108   2.028   .     S
O99    Zn107   2.001   .     S
O100   Zn108   2.001   .     S
O101   Zn108   2.001   .     S
O102   Zn107   2.001   .     S
O103   Zn107   1.977   .     S
O104   Zn108   1.977   .     S
O105   Zn108   1.983   .     S
O106   Zn107   1.983   .     S
Br109  C5      1.940   1_655 S
C115   O139    1.291   .     A
C115   C126    1.422   .     S
C115   O137    1.291   .     A
C116   O140    1.291   .     A
C116   C125    1.422   .     S
C116   O138    1.291   .     A
C117   O141    1.279   .     A
C117   O143    1.293   .     A
C117   C119    1.404   .     S
C118   O142    1.279   .     A
C118   C120    1.404   .     S
C118   O144    1.293   .     A
C119   C196    1.345   1_455 S
C119   Br223   1.940   1_455 S
C120   C157    1.345   .     S
C120   Br186   1.940   .     S
C121   C126    1.397   .     A
C121   H131    1.083   .     S
C122   H132    1.083   .     S
C122   C125    1.397   .     A
C122   C238    1.369   .     S
C123   C125    1.398   .     A
C123   H133    1.083   .     S
C123   C235    1.369   .     S
C124   C126    1.398   .     A
C124   H134    1.083   .     S
C127   Br149   1.922   .     S
C127   N136    1.372   .     A
C127   C813    1.424   1_554 S
C128   N135    1.372   .     A
C128   Br150   1.922   .     S
C128   C472    1.424   .     S
C129   N135    1.373   .     A
C129   Br151   1.915   .     S
C129   C469    1.424   .     S
C130   Br152   1.915   .     S
C130   N136    1.373   .     A
C130   C812    1.424   1_554 S
N135   Zn145   2.028   .     S
N136   Zn146   2.028   .     S
O137   Zn145   2.001   .     S
O138   Zn146   2.001   .     S
O139   Zn146   2.001   .     S
O140   Zn145   2.001   .     S
O141   Zn145   1.977   .     S
O142   Zn146   1.977   .     S
O143   Zn146   1.983   .     S
O144   Zn145   1.983   .     S
Br147  C157    1.940   .     S
Br148  C196    1.940   1_455 S
C153   O177    1.291   .     A
C153   C164    1.422   .     S
C153   O175    1.291   .     A
C154   O178    1.291   .     A
C154   C163    1.422   .     S
C154   O176    1.291   .     A
C155   O179    1.279   .     A
C155   O181    1.293   .     A
C155   C157    1.404   .     S
C156   O180    1.279   .     A
C156   C158    1.404   .     S
C156   O182    1.293   .     A
C158   C195    1.345   .     S
C158   Br224   1.940   .     S
C159   C164    1.397   .     A
C159   H169    1.083   .     S
C160   H170    1.083   .     S
C160   C163    1.397   .     A
C160   C276    1.369   .     S
C161   C163    1.398   .     A
C161   H171    1.083   .     S
C161   C273    1.369   .     S
C162   C164    1.398   .     A
C162   H172    1.083   .     S
C165   Br187   1.922   .     S
C165   N174    1.372   .     A
C165   C851    1.424   1_554 S
C166   N173    1.372   .     A
C166   Br188   1.922   .     S
C166   C510    1.424   .     S
C167   N173    1.373   .     A
C167   Br189   1.915   .     S
C167   C507    1.424   .     S
C168   Br190   1.915   .     S
C168   N174    1.373   .     A
C168   C850    1.424   1_554 S
N173   Zn183   2.028   .     S
N174   Zn184   2.028   .     S
O175   Zn183   2.001   .     S
O176   Zn184   2.001   .     S
O177   Zn184   2.001   .     S
O178   Zn183   2.001   .     S
O179   Zn183   1.977   .     S
O180   Zn184   1.977   .     S
O181   Zn184   1.983   .     S
O182   Zn183   1.983   .     S
Br185  C195    1.940   .     S
C191   O215    1.291   .     A
C191   C202    1.422   .     S
C191   O213    1.291   .     A
C192   O216    1.291   .     A
C192   C201    1.422   .     S
C192   O214    1.291   .     A
C193   O217    1.279   .     A
C193   O219    1.293   .     A
C193   C195    1.404   .     S
C194   O218    1.279   .     A
C194   C196    1.404   .     S
C194   O220    1.293   .     A
C196   C119    1.345   1_655 S
C196   Br148   1.940   1_655 S
C197   C202    1.397   .     A
C197   H207    1.083   .     S
C198   H208    1.083   .     S
C198   C201    1.397   .     A
C198   C314    1.369   .     S
C199   C201    1.398   .     A
C199   H209    1.083   .     S
C199   C311    1.369   .     S
C200   C202    1.398   .     A
C200   H210    1.083   .     S
C203   Br225   1.922   .     S
C203   N212    1.372   .     A
C203   C889    1.424   1_554 S
C204   N211    1.372   .     A
C204   Br226   1.922   .     S
C204   C548    1.424   .     S
C205   N211    1.373   .     A
C205   Br227   1.915   .     S
C205   C545    1.424   .     S
C206   Br228   1.915   .     S
C206   N212    1.373   .     A
C206   C888    1.424   1_554 S
N211   Zn221   2.028   .     S
N212   Zn222   2.028   .     S
O213   Zn221   2.001   .     S
O214   Zn222   2.001   .     S
O215   Zn222   2.001   .     S
O216   Zn221   2.001   .     S
O217   Zn221   1.977   .     S
O218   Zn222   1.977   .     S
O219   Zn222   1.983   .     S
O220   Zn221   1.983   .     S
Br223  C119    1.940   1_655 S
C229   O253    1.291   .     A
C229   C240    1.422   .     S
C229   O251    1.291   .     A
C230   O254    1.291   .     A
C230   C239    1.422   .     S
C230   O252    1.291   .     A
C231   O255    1.279   .     A
C231   O257    1.293   .     A
C231   C233    1.404   .     S
C232   O256    1.279   .     A
C232   C234    1.404   .     S
C232   O258    1.293   .     A
C233   C310    1.345   1_455 S
C233   Br337   1.940   1_455 S
C234   C271    1.345   .     S
C234   Br300   1.940   .     S
C235   C240    1.397   .     A
C235   H245    1.083   .     S
C236   H246    1.083   .     S
C236   C239    1.397   .     A
C236   C10     1.369   1_565 S
C237   C239    1.398   .     A
C237   H247    1.083   .     S
C237   C7      1.369   1_565 S
C238   C240    1.398   .     A
C238   H248    1.083   .     S
C241   Br263   1.922   .     S
C241   N250    1.372   .     A
C241   C927    1.424   1_554 S
C242   N249    1.372   .     A
C242   Br264   1.922   .     S
C242   C586    1.424   .     S
C243   N249    1.373   .     A
C243   Br265   1.915   .     S
C243   C583    1.424   .     S
C244   Br266   1.915   .     S
C244   N250    1.373   .     A
C244   C926    1.424   1_554 S
N249   Zn259   2.028   .     S
N250   Zn260   2.028   .     S
O251   Zn259   2.001   .     S
O252   Zn260   2.001   .     S
O253   Zn260   2.001   .     S
O254   Zn259   2.001   .     S
O255   Zn259   1.977   .     S
O256   Zn260   1.977   .     S
O257   Zn260   1.983   .     S
O258   Zn259   1.983   .     S
Br261  C271    1.940   .     S
Br262  C310    1.940   1_455 S
C267   O291    1.291   .     A
C267   C278    1.422   .     S
C267   O289    1.291   .     A
C268   O292    1.291   .     A
C268   C277    1.422   .     S
C268   O290    1.291   .     A
C269   O293    1.279   .     A
C269   O295    1.293   .     A
C269   C271    1.404   .     S
C270   O294    1.279   .     A
C270   C272    1.404   .     S
C270   O296    1.293   .     A
C272   C309    1.345   .     S
C272   Br338   1.940   .     S
C273   C278    1.397   .     A
C273   H283    1.083   .     S
C274   H284    1.083   .     S
C274   C277    1.397   .     A
C274   C48     1.369   1_565 S
C275   C277    1.398   .     A
C275   H285    1.083   .     S
C275   C45     1.369   1_565 S
C276   C278    1.398   .     A
C276   H286    1.083   .     S
C279   Br301   1.922   .     S
C279   N288    1.372   .     A
C279   C965    1.424   1_554 S
C280   N287    1.372   .     A
C280   Br302   1.922   .     S
C280   C624    1.424   .     S
C281   N287    1.373   .     A
C281   Br303   1.915   .     S
C281   C621    1.424   .     S
C282   Br304   1.915   .     S
C282   N288    1.373   .     A
C282   C964    1.424   1_554 S
N287   Zn297   2.028   .     S
N288   Zn298   2.028   .     S
O289   Zn297   2.001   .     S
O290   Zn298   2.001   .     S
O291   Zn298   2.001   .     S
O292   Zn297   2.001   .     S
O293   Zn297   1.977   .     S
O294   Zn298   1.977   .     S
O295   Zn298   1.983   .     S
O296   Zn297   1.983   .     S
Br299  C309    1.940   .     S
C305   O329    1.291   .     A
C305   C316    1.422   .     S
C305   O327    1.291   .     A
C306   O330    1.291   .     A
C306   C315    1.422   .     S
C306   O328    1.291   .     A
C307   O331    1.279   .     A
C307   O333    1.293   .     A
C307   C309    1.404   .     S
C308   O332    1.279   .     A
C308   C310    1.404   .     S
C308   O334    1.293   .     A
C310   C233    1.345   1_655 S
C310   Br262   1.940   1_655 S
C311   C316    1.397   .     A
C311   H321    1.083   .     S
C312   H322    1.083   .     S
C312   C315    1.397   .     A
C312   C86     1.369   1_565 S
C313   C315    1.398   .     A
C313   H323    1.083   .     S
C313   C83     1.369   1_565 S
C314   C316    1.398   .     A
C314   H324    1.083   .     S
C317   Br339   1.922   .     S
C317   N326    1.372   .     A
C317   C1003   1.424   1_554 S
C318   N325    1.372   .     A
C318   Br340   1.922   .     S
C318   C662    1.424   .     S
C319   N325    1.373   .     A
C319   Br341   1.915   .     S
C319   C659    1.424   .     S
C320   Br342   1.915   .     S
C320   N326    1.373   .     A
C320   C1002   1.424   1_554 S
N325   Zn335   2.028   .     S
N326   Zn336   2.028   .     S
O327   Zn335   2.001   .     S
O328   Zn336   2.001   .     S
O329   Zn336   2.001   .     S
O330   Zn335   2.001   .     S
O331   Zn335   1.977   .     S
O332   Zn336   1.977   .     S
O333   Zn336   1.983   .     S
O334   Zn335   1.983   .     S
Br337  C233    1.940   1_655 S
C343   O367    1.291   .     A
C343   C354    1.422   .     S
C343   O365    1.291   .     A
C344   O368    1.291   .     A
C344   C353    1.422   .     S
C344   O366    1.291   .     A
C345   O369    1.279   .     A
C345   O371    1.293   .     A
C345   C347    1.404   .     S
C346   O370    1.279   .     A
C346   C348    1.404   .     S
C346   O372    1.293   .     A
C347   C424    1.345   1_455 S
C347   Br451   1.940   1_455 S
C348   C385    1.345   .     S
C348   Br414   1.940   .     S
C349   C354    1.397   .     A
C349   H359    1.083   .     S
C349   C579    1.369   1_545 S
C350   H360    1.083   .     S
C350   C353    1.397   .     A
C350   C466    1.369   .     S
C351   C353    1.398   .     A
C351   H361    1.083   .     S
C351   C463    1.369   .     S
C352   C354    1.398   .     A
C352   H362    1.083   .     S
C352   C578    1.369   1_545 S
C355   Br377   1.922   .     S
C355   N364    1.372   .     A
C356   N363    1.372   .     A
C356   Br378   1.922   .     S
C356   C700    1.424   .     S
C357   N363    1.373   .     A
C357   Br379   1.915   .     S
C357   C697    1.424   .     S
C358   Br380   1.915   .     S
C358   N364    1.373   .     A
N363   Zn373   2.028   .     S
N364   Zn374   2.028   .     S
O365   Zn373   2.001   .     S
O366   Zn374   2.001   .     S
O367   Zn374   2.001   .     S
O368   Zn373   2.001   .     S
O369   Zn373   1.977   .     S
O370   Zn374   1.977   .     S
O371   Zn374   1.983   .     S
O372   Zn373   1.983   .     S
Br375  C385    1.940   .     S
Br376  C424    1.940   1_455 S
C381   O405    1.291   .     A
C381   C392    1.422   .     S
C381   O403    1.291   .     A
C382   O406    1.291   .     A
C382   C391    1.422   .     S
C382   O404    1.291   .     A
C383   O407    1.279   .     A
C383   O409    1.293   .     A
C383   C385    1.404   .     S
C384   O408    1.279   .     A
C384   C386    1.404   .     S
C384   O410    1.293   .     A
C386   C423    1.345   .     S
C386   Br452   1.940   .     S
C387   C392    1.397   .     A
C387   H397    1.083   .     S
C387   C617    1.369   1_545 S
C388   H398    1.083   .     S
C388   C391    1.397   .     A
C388   C504    1.369   .     S
C389   C391    1.398   .     A
C389   H399    1.083   .     S
C389   C501    1.369   .     S
C390   C392    1.398   .     A
C390   H400    1.083   .     S
C390   C616    1.369   1_545 S
C393   Br415   1.922   .     S
C393   N402    1.372   .     A
C394   N401    1.372   .     A
C394   Br416   1.922   .     S
C394   C738    1.424   .     S
C395   N401    1.373   .     A
C395   Br417   1.915   .     S
C395   C735    1.424   .     S
C396   Br418   1.915   .     S
C396   N402    1.373   .     A
N401   Zn411   2.028   .     S
N402   Zn412   2.028   .     S
O403   Zn411   2.001   .     S
O404   Zn412   2.001   .     S
O405   Zn412   2.001   .     S
O406   Zn411   2.001   .     S
O407   Zn411   1.977   .     S
O408   Zn412   1.977   .     S
O409   Zn412   1.983   .     S
O410   Zn411   1.983   .     S
Br413  C423    1.940   .     S
C419   O443    1.291   .     A
C419   C430    1.422   .     S
C419   O441    1.291   .     A
C420   O444    1.291   .     A
C420   C429    1.422   .     S
C420   O442    1.291   .     A
C421   O445    1.279   .     A
C421   O447    1.293   .     A
C421   C423    1.404   .     S
C422   O446    1.279   .     A
C422   C424    1.404   .     S
C422   O448    1.293   .     A
C424   C347    1.345   1_655 S
C424   Br376   1.940   1_655 S
C425   C430    1.397   .     A
C425   H435    1.083   .     S
C425   C655    1.369   1_545 S
C426   H436    1.083   .     S
C426   C429    1.397   .     A
C426   C542    1.369   .     S
C427   C429    1.398   .     A
C427   H437    1.083   .     S
C427   C539    1.369   .     S
C428   C430    1.398   .     A
C428   H438    1.083   .     S
C428   C654    1.369   1_545 S
C431   Br453   1.922   .     S
C431   N440    1.372   .     A
C432   N439    1.372   .     A
C432   Br454   1.922   .     S
C432   C776    1.424   .     S
C433   N439    1.373   .     A
C433   Br455   1.915   .     S
C433   C773    1.424   .     S
C434   Br456   1.915   .     S
C434   N440    1.373   .     A
N439   Zn449   2.028   .     S
N440   Zn450   2.028   .     S
O441   Zn449   2.001   .     S
O442   Zn450   2.001   .     S
O443   Zn450   2.001   .     S
O444   Zn449   2.001   .     S
O445   Zn449   1.977   .     S
O446   Zn450   1.977   .     S
O447   Zn450   1.983   .     S
O448   Zn449   1.983   .     S
Br451  C347    1.940   1_655 S
C457   O481    1.291   .     A
C457   C468    1.422   .     S
C457   O479    1.291   .     A
C458   O482    1.291   .     A
C458   C467    1.422   .     S
C458   O480    1.291   .     A
C459   O483    1.279   .     A
C459   O485    1.293   .     A
C459   C461    1.404   .     S
C460   O484    1.279   .     A
C460   C462    1.404   .     S
C460   O486    1.293   .     A
C461   C538    1.345   1_455 S
C461   Br565   1.940   1_455 S
C462   C499    1.345   .     S
C462   Br528   1.940   .     S
C463   C468    1.397   .     A
C463   H473    1.083   .     S
C464   H474    1.083   .     S
C464   C467    1.397   .     A
C464   C580    1.369   .     S
C465   C467    1.398   .     A
C465   H475    1.083   .     S
C465   C577    1.369   .     S
C466   C468    1.398   .     A
C466   H476    1.083   .     S
C469   Br491   1.922   .     S
C469   N478    1.372   .     A
C470   N477    1.372   .     A
C470   Br492   1.922   .     S
C470   C814    1.424   .     S
C471   N477    1.373   .     A
C471   Br493   1.915   .     S
C471   C811    1.424   .     S
C472   Br494   1.915   .     S
C472   N478    1.373   .     A
N477   Zn487   2.028   .     S
N478   Zn488   2.028   .     S
O479   Zn487   2.001   .     S
O480   Zn488   2.001   .     S
O481   Zn488   2.001   .     S
O482   Zn487   2.001   .     S
O483   Zn487   1.977   .     S
O484   Zn488   1.977   .     S
O485   Zn488   1.983   .     S
O486   Zn487   1.983   .     S
Br489  C499    1.940   .     S
Br490  C538    1.940   1_455 S
C495   O519    1.291   .     A
C495   C506    1.422   .     S
C495   O517    1.291   .     A
C496   O520    1.291   .     A
C496   C505    1.422   .     S
C496   O518    1.291   .     A
C497   O521    1.279   .     A
C497   O523    1.293   .     A
C497   C499    1.404   .     S
C498   O522    1.279   .     A
C498   C500    1.404   .     S
C498   O524    1.293   .     A
C500   C537    1.345   .     S
C500   Br566   1.940   .     S
C501   C506    1.397   .     A
C501   H511    1.083   .     S
C502   H512    1.083   .     S
C502   C505    1.397   .     A
C502   C618    1.369   .     S
C503   C505    1.398   .     A
C503   H513    1.083   .     S
C503   C615    1.369   .     S
C504   C506    1.398   .     A
C504   H514    1.083   .     S
C507   Br529   1.922   .     S
C507   N516    1.372   .     A
C508   N515    1.372   .     A
C508   Br530   1.922   .     S
C508   C852    1.424   .     S
C509   N515    1.373   .     A
C509   Br531   1.915   .     S
C509   C849    1.424   .     S
C510   Br532   1.915   .     S
C510   N516    1.373   .     A
N515   Zn525   2.028   .     S
N516   Zn526   2.028   .     S
O517   Zn525   2.001   .     S
O518   Zn526   2.001   .     S
O519   Zn526   2.001   .     S
O520   Zn525   2.001   .     S
O521   Zn525   1.977   .     S
O522   Zn526   1.977   .     S
O523   Zn526   1.983   .     S
O524   Zn525   1.983   .     S
Br527  C537    1.940   .     S
C533   O557    1.291   .     A
C533   C544    1.422   .     S
C533   O555    1.291   .     A
C534   O558    1.291   .     A
C534   C543    1.422   .     S
C534   O556    1.291   .     A
C535   O559    1.279   .     A
C535   O561    1.293   .     A
C535   C537    1.404   .     S
C536   O560    1.279   .     A
C536   C538    1.404   .     S
C536   O562    1.293   .     A
C538   C461    1.345   1_655 S
C538   Br490   1.940   1_655 S
C539   C544    1.397   .     A
C539   H549    1.083   .     S
C540   H550    1.083   .     S
C540   C543    1.397   .     A
C540   C656    1.369   .     S
C541   C543    1.398   .     A
C541   H551    1.083   .     S
C541   C653    1.369   .     S
C542   C544    1.398   .     A
C542   H552    1.083   .     S
C545   Br567   1.922   .     S
C545   N554    1.372   .     A
C546   N553    1.372   .     A
C546   Br568   1.922   .     S
C546   C890    1.424   .     S
C547   N553    1.373   .     A
C547   Br569   1.915   .     S
C547   C887    1.424   .     S
C548   Br570   1.915   .     S
C548   N554    1.373   .     A
N553   Zn563   2.028   .     S
N554   Zn564   2.028   .     S
O555   Zn563   2.001   .     S
O556   Zn564   2.001   .     S
O557   Zn564   2.001   .     S
O558   Zn563   2.001   .     S
O559   Zn563   1.977   .     S
O560   Zn564   1.977   .     S
O561   Zn564   1.983   .     S
O562   Zn563   1.983   .     S
Br565  C461    1.940   1_655 S
C571   O595    1.291   .     A
C571   C582    1.422   .     S
C571   O593    1.291   .     A
C572   O596    1.291   .     A
C572   C581    1.422   .     S
C572   O594    1.291   .     A
C573   O597    1.279   .     A
C573   O599    1.293   .     A
C573   C575    1.404   .     S
C574   O598    1.279   .     A
C574   C576    1.404   .     S
C574   O600    1.293   .     A
C575   C652    1.345   1_455 S
C575   Br679   1.940   1_455 S
C576   C613    1.345   .     S
C576   Br642   1.940   .     S
C577   C582    1.397   .     A
C577   H587    1.083   .     S
C578   H588    1.083   .     S
C578   C581    1.397   .     A
C578   C352    1.369   1_565 S
C579   C581    1.398   .     A
C579   H589    1.083   .     S
C579   C349    1.369   1_565 S
C580   C582    1.398   .     A
C580   H590    1.083   .     S
C583   Br605   1.922   .     S
C583   N592    1.372   .     A
C584   N591    1.372   .     A
C584   Br606   1.922   .     S
C584   C928    1.424   .     S
C585   N591    1.373   .     A
C585   Br607   1.915   .     S
C585   C925    1.424   .     S
C586   Br608   1.915   .     S
C586   N592    1.373   .     A
N591   Zn601   2.028   .     S
N592   Zn602   2.028   .     S
O593   Zn601   2.001   .     S
O594   Zn602   2.001   .     S
O595   Zn602   2.001   .     S
O596   Zn601   2.001   .     S
O597   Zn601   1.977   .     S
O598   Zn602   1.977   .     S
O599   Zn602   1.983   .     S
O600   Zn601   1.983   .     S
Br603  C613    1.940   .     S
Br604  C652    1.940   1_455 S
C609   O633    1.291   .     A
C609   C620    1.422   .     S
C609   O631    1.291   .     A
C610   O634    1.291   .     A
C610   C619    1.422   .     S
C610   O632    1.291   .     A
C611   O635    1.279   .     A
C611   O637    1.293   .     A
C611   C613    1.404   .     S
C612   O636    1.279   .     A
C612   C614    1.404   .     S
C612   O638    1.293   .     A
C614   C651    1.345   .     S
C614   Br680   1.940   .     S
C615   C620    1.397   .     A
C615   H625    1.083   .     S
C616   H626    1.083   .     S
C616   C619    1.397   .     A
C616   C390    1.369   1_565 S
C617   C619    1.398   .     A
C617   H627    1.083   .     S
C617   C387    1.369   1_565 S
C618   C620    1.398   .     A
C618   H628    1.083   .     S
C621   Br643   1.922   .     S
C621   N630    1.372   .     A
C622   N629    1.372   .     A
C622   Br644   1.922   .     S
C622   C966    1.424   .     S
C623   N629    1.373   .     A
C623   Br645   1.915   .     S
C623   C963    1.424   .     S
C624   Br646   1.915   .     S
C624   N630    1.373   .     A
N629   Zn639   2.028   .     S
N630   Zn640   2.028   .     S
O631   Zn639   2.001   .     S
O632   Zn640   2.001   .     S
O633   Zn640   2.001   .     S
O634   Zn639   2.001   .     S
O635   Zn639   1.977   .     S
O636   Zn640   1.977   .     S
O637   Zn640   1.983   .     S
O638   Zn639   1.983   .     S
Br641  C651    1.940   .     S
C647   O671    1.291   .     A
C647   C658    1.422   .     S
C647   O669    1.291   .     A
C648   O672    1.291   .     A
C648   C657    1.422   .     S
C648   O670    1.291   .     A
C649   O673    1.279   .     A
C649   O675    1.293   .     A
C649   C651    1.404   .     S
C650   O674    1.279   .     A
C650   C652    1.404   .     S
C650   O676    1.293   .     A
C652   C575    1.345   1_655 S
C652   Br604   1.940   1_655 S
C653   C658    1.397   .     A
C653   H663    1.083   .     S
C654   H664    1.083   .     S
C654   C657    1.397   .     A
C654   C428    1.369   1_565 S
C655   C657    1.398   .     A
C655   H665    1.083   .     S
C655   C425    1.369   1_565 S
C656   C658    1.398   .     A
C656   H666    1.083   .     S
C659   Br681   1.922   .     S
C659   N668    1.372   .     A
C660   N667    1.372   .     A
C660   Br682   1.922   .     S
C660   C1004   1.424   .     S
C661   N667    1.373   .     A
C661   Br683   1.915   .     S
C661   C1001   1.424   .     S
C662   Br684   1.915   .     S
C662   N668    1.373   .     A
N667   Zn677   2.028   .     S
N668   Zn678   2.028   .     S
O669   Zn677   2.001   .     S
O670   Zn678   2.001   .     S
O671   Zn678   2.001   .     S
O672   Zn677   2.001   .     S
O673   Zn677   1.977   .     S
O674   Zn678   1.977   .     S
O675   Zn678   1.983   .     S
O676   Zn677   1.983   .     S
Br679  C575    1.940   1_655 S
C685   O709    1.291   .     A
C685   C696    1.422   .     S
C685   O707    1.291   .     A
C686   O710    1.291   .     A
C686   C695    1.422   .     S
C686   O708    1.291   .     A
C687   O711    1.279   .     A
C687   O713    1.293   .     A
C687   C689    1.404   .     S
C688   O712    1.279   .     A
C688   C690    1.404   .     S
C688   O714    1.293   .     A
C689   C766    1.345   1_455 S
C689   Br793   1.940   1_455 S
C690   C727    1.345   .     S
C690   Br756   1.940   .     S
C691   C696    1.397   .     A
C691   H701    1.083   .     S
C691   C921    1.369   1_545 S
C692   H702    1.083   .     S
C692   C695    1.397   .     A
C692   C808    1.369   .     S
C693   C695    1.398   .     A
C693   H703    1.083   .     S
C693   C805    1.369   .     S
C694   C696    1.398   .     A
C694   H704    1.083   .     S
C694   C920    1.369   1_545 S
C697   Br719   1.922   .     S
C697   N706    1.372   .     A
C698   N705    1.372   .     A
C698   Br720   1.922   .     S
C698   C16     1.424   1_556 S
C699   N705    1.373   .     A
C699   Br721   1.915   .     S
C699   C13     1.424   1_556 S
C700   Br722   1.915   .     S
C700   N706    1.373   .     A
N705   Zn715   2.028   .     S
N706   Zn716   2.028   .     S
O707   Zn715   2.001   .     S
O708   Zn716   2.001   .     S
O709   Zn716   2.001   .     S
O710   Zn715   2.001   .     S
O711   Zn715   1.977   .     S
O712   Zn716   1.977   .     S
O713   Zn716   1.983   .     S
O714   Zn715   1.983   .     S
Br717  C727    1.940   .     S
Br718  C766    1.940   1_455 S
C723   O747    1.291   .     A
C723   C734    1.422   .     S
C723   O745    1.291   .     A
C724   O748    1.291   .     A
C724   C733    1.422   .     S
C724   O746    1.291   .     A
C725   O749    1.279   .     A
C725   O751    1.293   .     A
C725   C727    1.404   .     S
C726   O750    1.279   .     A
C726   C728    1.404   .     S
C726   O752    1.293   .     A
C728   C765    1.345   .     S
C728   Br794   1.940   .     S
C729   C734    1.397   .     A
C729   H739    1.083   .     S
C729   C959    1.369   1_545 S
C730   H740    1.083   .     S
C730   C733    1.397   .     A
C730   C846    1.369   .     S
C731   C733    1.398   .     A
C731   H741    1.083   .     S
C731   C843    1.369   .     S
C732   C734    1.398   .     A
C732   H742    1.083   .     S
C732   C958    1.369   1_545 S
C735   Br757   1.922   .     S
C735   N744    1.372   .     A
C736   N743    1.372   .     A
C736   Br758   1.922   .     S
C736   C54     1.424   1_556 S
C737   N743    1.373   .     A
C737   Br759   1.915   .     S
C737   C51     1.424   1_556 S
C738   Br760   1.915   .     S
C738   N744    1.373   .     A
N743   Zn753   2.028   .     S
N744   Zn754   2.028   .     S
O745   Zn753   2.001   .     S
O746   Zn754   2.001   .     S
O747   Zn754   2.001   .     S
O748   Zn753   2.001   .     S
O749   Zn753   1.977   .     S
O750   Zn754   1.977   .     S
O751   Zn754   1.983   .     S
O752   Zn753   1.983   .     S
Br755  C765    1.940   .     S
C761   O785    1.291   .     A
C761   C772    1.422   .     S
C761   O783    1.291   .     A
C762   O786    1.291   .     A
C762   C771    1.422   .     S
C762   O784    1.291   .     A
C763   O787    1.279   .     A
C763   O789    1.293   .     A
C763   C765    1.404   .     S
C764   O788    1.279   .     A
C764   C766    1.404   .     S
C764   O790    1.293   .     A
C766   C689    1.345   1_655 S
C766   Br718   1.940   1_655 S
C767   C772    1.397   .     A
C767   H777    1.083   .     S
C767   C997    1.369   1_545 S
C768   H778    1.083   .     S
C768   C771    1.397   .     A
C768   C884    1.369   .     S
C769   C771    1.398   .     A
C769   H779    1.083   .     S
C769   C881    1.369   .     S
C770   C772    1.398   .     A
C770   H780    1.083   .     S
C770   C996    1.369   1_545 S
C773   Br795   1.922   .     S
C773   N782    1.372   .     A
C774   N781    1.372   .     A
C774   Br796   1.922   .     S
C774   C92     1.424   1_556 S
C775   N781    1.373   .     A
C775   Br797   1.915   .     S
C775   C89     1.424   1_556 S
C776   Br798   1.915   .     S
C776   N782    1.373   .     A
N781   Zn791   2.028   .     S
N782   Zn792   2.028   .     S
O783   Zn791   2.001   .     S
O784   Zn792   2.001   .     S
O785   Zn792   2.001   .     S
O786   Zn791   2.001   .     S
O787   Zn791   1.977   .     S
O788   Zn792   1.977   .     S
O789   Zn792   1.983   .     S
O790   Zn791   1.983   .     S
Br793  C689    1.940   1_655 S
C799   O823    1.291   .     A
C799   C810    1.422   .     S
C799   O821    1.291   .     A
C800   O824    1.291   .     A
C800   C809    1.422   .     S
C800   O822    1.291   .     A
C801   O825    1.279   .     A
C801   O827    1.293   .     A
C801   C803    1.404   .     S
C802   O826    1.279   .     A
C802   C804    1.404   .     S
C802   O828    1.293   .     A
C803   C880    1.345   1_455 S
C803   Br907   1.940   1_455 S
C804   C841    1.345   .     S
C804   Br870   1.940   .     S
C805   C810    1.397   .     A
C805   H815    1.083   .     S
C806   H816    1.083   .     S
C806   C809    1.397   .     A
C806   C922    1.369   .     S
C807   C809    1.398   .     A
C807   H817    1.083   .     S
C807   C919    1.369   .     S
C808   C810    1.398   .     A
C808   H818    1.083   .     S
C811   Br833   1.922   .     S
C811   N820    1.372   .     A
C812   N819    1.372   .     A
C812   Br834   1.922   .     S
C812   C130    1.424   1_556 S
C813   N819    1.373   .     A
C813   Br835   1.915   .     S
C813   C127    1.424   1_556 S
C814   Br836   1.915   .     S
C814   N820    1.373   .     A
N819   Zn829   2.028   .     S
N820   Zn830   2.028   .     S
O821   Zn829   2.001   .     S
O822   Zn830   2.001   .     S
O823   Zn830   2.001   .     S
O824   Zn829   2.001   .     S
O825   Zn829   1.977   .     S
O826   Zn830   1.977   .     S
O827   Zn830   1.983   .     S
O828   Zn829   1.983   .     S
Br831  C841    1.940   .     S
Br832  C880    1.940   1_455 S
C837   O861    1.291   .     A
C837   C848    1.422   .     S
C837   O859    1.291   .     A
C838   O862    1.291   .     A
C838   C847    1.422   .     S
C838   O860    1.291   .     A
C839   O863    1.279   .     A
C839   O865    1.293   .     A
C839   C841    1.404   .     S
C840   O864    1.279   .     A
C840   C842    1.404   .     S
C840   O866    1.293   .     A
C842   C879    1.345   .     S
C842   Br908   1.940   .     S
C843   C848    1.397   .     A
C843   H853    1.083   .     S
C844   H854    1.083   .     S
C844   C847    1.397   .     A
C844   C960    1.369   .     S
C845   C847    1.398   .     A
C845   H855    1.083   .     S
C845   C957    1.369   .     S
C846   C848    1.398   .     A
C846   H856    1.083   .     S
C849   Br871   1.922   .     S
C849   N858    1.372   .     A
C850   N857    1.372   .     A
C850   Br872   1.922   .     S
C850   C168    1.424   1_556 S
C851   N857    1.373   .     A
C851   Br873   1.915   .     S
C851   C165    1.424   1_556 S
C852   Br874   1.915   .     S
C852   N858    1.373   .     A
N857   Zn867   2.028   .     S
N858   Zn868   2.028   .     S
O859   Zn867   2.001   .     S
O860   Zn868   2.001   .     S
O861   Zn868   2.001   .     S
O862   Zn867   2.001   .     S
O863   Zn867   1.977   .     S
O864   Zn868   1.977   .     S
O865   Zn868   1.983   .     S
O866   Zn867   1.983   .     S
Br869  C879    1.940   .     S
C875   O899    1.291   .     A
C875   C886    1.422   .     S
C875   O897    1.291   .     A
C876   O900    1.291   .     A
C876   C885    1.422   .     S
C876   O898    1.291   .     A
C877   O901    1.279   .     A
C877   O903    1.293   .     A
C877   C879    1.404   .     S
C878   O902    1.279   .     A
C878   C880    1.404   .     S
C878   O904    1.293   .     A
C880   C803    1.345   1_655 S
C880   Br832   1.940   1_655 S
C881   C886    1.397   .     A
C881   H891    1.083   .     S
C882   H892    1.083   .     S
C882   C885    1.397   .     A
C882   C998    1.369   .     S
C883   C885    1.398   .     A
C883   H893    1.083   .     S
C883   C995    1.369   .     S
C884   C886    1.398   .     A
C884   H894    1.083   .     S
C887   Br909   1.922   .     S
C887   N896    1.372   .     A
C888   N895    1.372   .     A
C888   Br910   1.922   .     S
C888   C206    1.424   1_556 S
C889   N895    1.373   .     A
C889   Br911   1.915   .     S
C889   C203    1.424   1_556 S
C890   Br912   1.915   .     S
C890   N896    1.373   .     A
N895   Zn905   2.028   .     S
N896   Zn906   2.028   .     S
O897   Zn905   2.001   .     S
O898   Zn906   2.001   .     S
O899   Zn906   2.001   .     S
O900   Zn905   2.001   .     S
O901   Zn905   1.977   .     S
O902   Zn906   1.977   .     S
O903   Zn906   1.983   .     S
O904   Zn905   1.983   .     S
Br907  C803    1.940   1_655 S
C913   O937    1.291   .     A
C913   C924    1.422   .     S
C913   O935    1.291   .     A
C914   O938    1.291   .     A
C914   C923    1.422   .     S
C914   O936    1.291   .     A
C915   O939    1.279   .     A
C915   O941    1.293   .     A
C915   C917    1.404   .     S
C916   O940    1.279   .     A
C916   C918    1.404   .     S
C916   O942    1.293   .     A
C917   C994    1.345   1_455 S
C917   Br1021  1.940   1_455 S
C918   C955    1.345   .     S
C918   Br984   1.940   .     S
C919   C924    1.397   .     A
C919   H929    1.083   .     S
C920   H930    1.083   .     S
C920   C923    1.397   .     A
C920   C694    1.369   1_565 S
C921   C923    1.398   .     A
C921   H931    1.083   .     S
C921   C691    1.369   1_565 S
C922   C924    1.398   .     A
C922   H932    1.083   .     S
C925   Br947   1.922   .     S
C925   N934    1.372   .     A
C926   N933    1.372   .     A
C926   Br948   1.922   .     S
C926   C244    1.424   1_556 S
C927   N933    1.373   .     A
C927   Br949   1.915   .     S
C927   C241    1.424   1_556 S
C928   Br950   1.915   .     S
C928   N934    1.373   .     A
N933   Zn943   2.028   .     S
N934   Zn944   2.028   .     S
O935   Zn943   2.001   .     S
O936   Zn944   2.001   .     S
O937   Zn944   2.001   .     S
O938   Zn943   2.001   .     S
O939   Zn943   1.977   .     S
O940   Zn944   1.977   .     S
O941   Zn944   1.983   .     S
O942   Zn943   1.983   .     S
Br945  C955    1.940   .     S
Br946  C994    1.940   1_455 S
C951   O975    1.291   .     A
C951   C962    1.422   .     S
C951   O973    1.291   .     A
C952   O976    1.291   .     A
C952   C961    1.422   .     S
C952   O974    1.291   .     A
C953   O977    1.279   .     A
C953   O979    1.293   .     A
C953   C955    1.404   .     S
C954   O978    1.279   .     A
C954   C956    1.404   .     S
C954   O980    1.293   .     A
C956   C993    1.345   .     S
C956   Br1022  1.940   .     S
C957   C962    1.397   .     A
C957   H967    1.083   .     S
C958   H968    1.083   .     S
C958   C961    1.397   .     A
C958   C732    1.369   1_565 S
C959   C961    1.398   .     A
C959   H969    1.083   .     S
C959   C729    1.369   1_565 S
C960   C962    1.398   .     A
C960   H970    1.083   .     S
C963   Br985   1.922   .     S
C963   N972    1.372   .     A
C964   N971    1.372   .     A
C964   Br986   1.922   .     S
C964   C282    1.424   1_556 S
C965   N971    1.373   .     A
C965   Br987   1.915   .     S
C965   C279    1.424   1_556 S
C966   Br988   1.915   .     S
C966   N972    1.373   .     A
N971   Zn981   2.028   .     S
N972   Zn982   2.028   .     S
O973   Zn981   2.001   .     S
O974   Zn982   2.001   .     S
O975   Zn982   2.001   .     S
O976   Zn981   2.001   .     S
O977   Zn981   1.977   .     S
O978   Zn982   1.977   .     S
O979   Zn982   1.983   .     S
O980   Zn981   1.983   .     S
Br983  C993    1.940   .     S
C989   O1013   1.291   .     A
C989   C1000   1.422   .     S
C989   O1011   1.291   .     A
C990   O1014   1.291   .     A
C990   C999    1.422   .     S
C990   O1012   1.291   .     A
C991   O1015   1.279   .     A
C991   O1017   1.293   .     A
C991   C993    1.404   .     S
C992   O1016   1.279   .     A
C992   C994    1.404   .     S
C992   O1018   1.293   .     A
C994   C917    1.345   1_655 S
C994   Br946   1.940   1_655 S
C995   C1000   1.397   .     A
C995   H1005   1.083   .     S
C996   H1006   1.083   .     S
C996   C999    1.397   .     A
C996   C770    1.369   1_565 S
C997   C999    1.398   .     A
C997   H1007   1.083   .     S
C997   C767    1.369   1_565 S
C998   C1000   1.398   .     A
C998   H1008   1.083   .     S
C1001  Br1023  1.922   .     S
C1001  N1010   1.372   .     A
C1002  N1009   1.372   .     A
C1002  Br1024  1.922   .     S
C1002  C320    1.424   1_556 S
C1003  N1009   1.373   .     A
C1003  Br1025  1.915   .     S
C1003  C317    1.424   1_556 S
C1004  Br1026  1.915   .     S
C1004  N1010   1.373   .     A
N1009  Zn1019  2.028   .     S
N1010  Zn1020  2.028   .     S
O1011  Zn1019  2.001   .     S
O1012  Zn1020  2.001   .     S
O1013  Zn1020  2.001   .     S
O1014  Zn1019  2.001   .     S
O1015  Zn1019  1.977   .     S
O1016  Zn1020  1.977   .     S
O1017  Zn1020  1.983   .     S
O1018  Zn1019  1.983   .     S
Br1021 C917    1.940   1_655 S
