data_str_m3_o1_o16_pcu_sym.108
_audit_creation_date              2020-01-03
_audit_creation_method            'Materials Studio'
_symmetry_space_group_name_H-M    'P1'
_symmetry_Int_Tables_number       1
_symmetry_cell_setting            triclinic
loop_
_symmetry_equiv_pos_as_xyz
  x,y,z
_cell_length_a                    29.5332
_cell_length_b                    32.0840
_cell_length_c                    26.2632
_cell_angle_alpha                 89.9295
_cell_angle_beta                  70.1600
_cell_angle_gamma                 90.3343
loop_
_atom_site_label
_atom_site_type_symbol
_atom_site_fract_x
_atom_site_fract_y
_atom_site_fract_z
_atom_site_U_iso_or_equiv
_atom_site_adp_type
_atom_site_occupancy
C1     C     0.16676   0.24663   0.25015   0.00000  Uiso   1.00
C2     C     0.14363   0.15797   0.49243   0.00000  Uiso   1.00
C3     C     0.15285   0.14661   0.43822   0.00000  Uiso   1.00
C4     C     0.18041   0.15188   0.01490   0.00000  Uiso   1.00
C5     C     0.22222   0.12833   0.48691   0.00000  Uiso   1.00
C6     C     0.22633   0.11155   0.43634   0.00000  Uiso   1.00
C7     C     0.19230   0.12061   0.41237   0.00000  Uiso   1.00
C8     C     0.17699   0.16984   0.06411   0.00000  Uiso   1.00
C9     C     0.25059   0.13707   0.06307   0.00000  Uiso   1.00
C10    C     0.12266   0.16215   0.41102   0.00000  Uiso   1.00
C11    C     0.20947   0.31247   0.22840   0.00000  Uiso   1.00
C12    C     0.14001   0.16472   0.35209   0.00000  Uiso   1.00
C13    C     0.20874   0.02183   0.22905   0.00000  Uiso   1.00
C14    C     0.16507   0.04241   0.25320   0.00000  Uiso   1.00
C15    C     0.12174   0.02027   0.27772   0.00000  Uiso   1.00
C16    C     0.12292   0.31085   0.27630   0.00000  Uiso   1.00
C17    C     0.16647   0.29066   0.25153   0.00000  Uiso   1.00
C18    C     0.32010   0.14298   0.21383   0.00000  Uiso   1.00
C19    C     0.03472   0.14297   0.21386   0.00000  Uiso   1.00
C20    C     0.01319   0.19024   0.28630   0.00000  Uiso   1.00
C21    C     0.29858   0.19025   0.28627   0.00000  Uiso   1.00
C22    C     0.16593   0.08663   0.25165   0.00000  Uiso   1.00
C23    C     0.19331   0.16641   0.14788   0.00000  Uiso   1.00
C24    C     0.25817   0.12191   0.01090   0.00000  Uiso   1.00
C25    C     0.20932   0.15992   0.08986   0.00000  Uiso   1.00
C26    C     0.07856   0.18050   0.44033   0.00000  Uiso   1.00
C27    C     0.06561   0.18544   0.49592   0.00000  Uiso   1.00
C28    C     0.09808   0.17520   0.02184   0.00000  Uiso   1.00
H29    H     0.27560   0.12964   0.08376   0.00000  Uiso   1.00
H30    H     0.24212   0.03872   0.20991   0.00000  Uiso   1.00
H31    H     0.08994   0.29335   0.29522   0.00000  Uiso   1.00
H32    H     0.31054   0.12406   0.18489   0.00000  Uiso   1.00
H33    H     0.06145   0.12399   0.18496   0.00000  Uiso   1.00
H34    H     0.02274   0.20910   0.31529   0.00000  Uiso   1.00
H35    H     0.27183   0.20917   0.31524   0.00000  Uiso   1.00
H36    H     0.25608   0.09194   0.41419   0.00000  Uiso   1.00
H37    H     0.14805   0.19073   0.08463   0.00000  Uiso   1.00
H38    H     0.05464   0.19196   0.42009   0.00000  Uiso   1.00
H39    H     0.08617   0.18016   0.06499   0.00000  Uiso   1.00
H40    H     0.03110   0.19882   0.01870   0.00000  Uiso   1.00
H41    H     0.19699   0.10659   0.37347   0.00000  Uiso   1.00
H42    H     0.24323   0.29658   0.20905   0.00000  Uiso   1.00
N43    N     0.04760   0.16668   0.25002   0.00000  Uiso   1.00
N44    N     0.28573   0.16665   0.25001   0.00000  Uiso   1.00
O45    O     0.12846   0.22775   0.25001   0.00000  Uiso   1.00
O46    O     0.20490   0.22774   0.25001   0.00000  Uiso   1.00
O47    O     0.10947   0.16666   0.32681   0.00000  Uiso   1.00
O48    O     0.18591   0.16665   0.32681   0.00000  Uiso   1.00
O49    O     0.12843   0.10559   0.25000   0.00000  Uiso   1.00
O50    O     0.20488   0.10558   0.25000   0.00000  Uiso   1.00
O51    O     0.14742   0.16668   0.17319   0.00000  Uiso   1.00
O52    O     0.22387   0.16667   0.17319   0.00000  Uiso   1.00
Zn53   Zn    0.11562   0.16667   0.25000   0.00000  Uiso   1.00
Zn54   Zn    0.21771   0.16666   0.25000   0.00000  Uiso   1.00
I55    I     0.05342   0.04696   0.32010   0.00000  Uiso   1.00
S56    S     0.31175   0.09400   0.47817   0.00000  Uiso   1.00
O57    O     0.00460   0.11430   0.42456   0.00000  Uiso   1.00
O58    O     0.01053   0.09377   0.01200   0.00000  Uiso   1.00
O59    O     0.29744   0.04465   0.46797   0.00000  Uiso   1.00
H60    H     0.32870   0.03020   0.45301   0.00000  Uiso   1.00
C61    C     0.50009   0.24663   0.25015   0.00000  Uiso   1.00
C62    C     0.47696   0.15797   0.49243   0.00000  Uiso   1.00
C63    C     0.48618   0.14661   0.43822   0.00000  Uiso   1.00
C64    C     0.51374   0.15188   0.01490   0.00000  Uiso   1.00
C65    C     0.55556   0.12833   0.48691   0.00000  Uiso   1.00
C66    C     0.55967   0.11155   0.43634   0.00000  Uiso   1.00
C67    C     0.52563   0.12061   0.41237   0.00000  Uiso   1.00
C68    C     0.51032   0.16984   0.06411   0.00000  Uiso   1.00
C69    C     0.58392   0.13707   0.06307   0.00000  Uiso   1.00
C70    C     0.45599   0.16215   0.41102   0.00000  Uiso   1.00
C71    C     0.54281   0.31247   0.22840   0.00000  Uiso   1.00
C72    C     0.47334   0.16472   0.35209   0.00000  Uiso   1.00
C73    C     0.54207   0.02183   0.22905   0.00000  Uiso   1.00
C74    C     0.49840   0.04241   0.25320   0.00000  Uiso   1.00
C75    C     0.45507   0.02027   0.27772   0.00000  Uiso   1.00
C76    C     0.45625   0.31085   0.27630   0.00000  Uiso   1.00
C77    C     0.49980   0.29066   0.25153   0.00000  Uiso   1.00
C78    C     0.65344   0.14298   0.21383   0.00000  Uiso   1.00
C79    C     0.36805   0.14297   0.21386   0.00000  Uiso   1.00
C80    C     0.34652   0.19024   0.28630   0.00000  Uiso   1.00
C81    C     0.63191   0.19025   0.28627   0.00000  Uiso   1.00
C82    C     0.49926   0.08663   0.25165   0.00000  Uiso   1.00
C83    C     0.52664   0.16641   0.14788   0.00000  Uiso   1.00
C84    C     0.59150   0.12191   0.01090   0.00000  Uiso   1.00
C85    C     0.54265   0.15992   0.08986   0.00000  Uiso   1.00
C86    C     0.41189   0.18050   0.44033   0.00000  Uiso   1.00
C87    C     0.39894   0.18544   0.49592   0.00000  Uiso   1.00
C88    C     0.43141   0.17520   0.02184   0.00000  Uiso   1.00
H89    H     0.60894   0.12964   0.08376   0.00000  Uiso   1.00
H90    H     0.57546   0.03872   0.20991   0.00000  Uiso   1.00
H91    H     0.42327   0.29335   0.29522   0.00000  Uiso   1.00
H92    H     0.64388   0.12406   0.18489   0.00000  Uiso   1.00
H93    H     0.39478   0.12399   0.18496   0.00000  Uiso   1.00
H94    H     0.35607   0.20910   0.31529   0.00000  Uiso   1.00
H95    H     0.60516   0.20917   0.31524   0.00000  Uiso   1.00
H96    H     0.58941   0.09194   0.41419   0.00000  Uiso   1.00
H97    H     0.48139   0.19073   0.08463   0.00000  Uiso   1.00
H98    H     0.38798   0.19196   0.42009   0.00000  Uiso   1.00
H99    H     0.41951   0.18016   0.06499   0.00000  Uiso   1.00
H100   H     0.36443   0.19882   0.01870   0.00000  Uiso   1.00
H101   H     0.53032   0.10659   0.37347   0.00000  Uiso   1.00
H102   H     0.57656   0.29658   0.20905   0.00000  Uiso   1.00
N103   N     0.38093   0.16668   0.25002   0.00000  Uiso   1.00
N104   N     0.61906   0.16665   0.25001   0.00000  Uiso   1.00
O105   O     0.46179   0.22775   0.25001   0.00000  Uiso   1.00
O106   O     0.53823   0.22774   0.25001   0.00000  Uiso   1.00
O107   O     0.44280   0.16666   0.32681   0.00000  Uiso   1.00
O108   O     0.51924   0.16665   0.32681   0.00000  Uiso   1.00
O109   O     0.46177   0.10559   0.25000   0.00000  Uiso   1.00
O110   O     0.53821   0.10558   0.25000   0.00000  Uiso   1.00
O111   O     0.48076   0.16668   0.17319   0.00000  Uiso   1.00
O112   O     0.55720   0.16667   0.17319   0.00000  Uiso   1.00
Zn113  Zn    0.44896   0.16667   0.25000   0.00000  Uiso   1.00
Zn114  Zn    0.55104   0.16666   0.25000   0.00000  Uiso   1.00
I115   I     0.38676   0.04696   0.32010   0.00000  Uiso   1.00
S116   S     0.64508   0.09400   0.47817   0.00000  Uiso   1.00
O117   O     0.33794   0.11430   0.42456   0.00000  Uiso   1.00
O118   O     0.34387   0.09377   0.01200   0.00000  Uiso   1.00
O119   O     0.63077   0.04465   0.46797   0.00000  Uiso   1.00
H120   H     0.66203   0.03020   0.45301   0.00000  Uiso   1.00
C121   C     0.83342   0.24663   0.25015   0.00000  Uiso   1.00
C122   C     0.81030   0.15797   0.49243   0.00000  Uiso   1.00
C123   C     0.81951   0.14661   0.43822   0.00000  Uiso   1.00
C124   C     0.84708   0.15188   0.01490   0.00000  Uiso   1.00
C125   C     0.88889   0.12833   0.48691   0.00000  Uiso   1.00
C126   C     0.89300   0.11155   0.43634   0.00000  Uiso   1.00
C127   C     0.85897   0.12061   0.41237   0.00000  Uiso   1.00
C128   C     0.84365   0.16984   0.06411   0.00000  Uiso   1.00
C129   C     0.91725   0.13707   0.06307   0.00000  Uiso   1.00
C130   C     0.78932   0.16215   0.41102   0.00000  Uiso   1.00
C131   C     0.87614   0.31247   0.22840   0.00000  Uiso   1.00
C132   C     0.80667   0.16472   0.35209   0.00000  Uiso   1.00
C133   C     0.87540   0.02183   0.22905   0.00000  Uiso   1.00
C134   C     0.83173   0.04241   0.25320   0.00000  Uiso   1.00
C135   C     0.78840   0.02027   0.27772   0.00000  Uiso   1.00
C136   C     0.78959   0.31085   0.27630   0.00000  Uiso   1.00
C137   C     0.83314   0.29066   0.25153   0.00000  Uiso   1.00
C138   C     0.98677   0.14298   0.21383   0.00000  Uiso   1.00
C139   C     0.70138   0.14297   0.21386   0.00000  Uiso   1.00
C140   C     0.67986   0.19024   0.28630   0.00000  Uiso   1.00
C141   C     0.96525   0.19025   0.28627   0.00000  Uiso   1.00
C142   C     0.83259   0.08663   0.25165   0.00000  Uiso   1.00
C143   C     0.85998   0.16641   0.14788   0.00000  Uiso   1.00
C144   C     0.92483   0.12191   0.01090   0.00000  Uiso   1.00
C145   C     0.87598   0.15992   0.08986   0.00000  Uiso   1.00
C146   C     0.74522   0.18050   0.44033   0.00000  Uiso   1.00
C147   C     0.73228   0.18544   0.49592   0.00000  Uiso   1.00
C148   C     0.76474   0.17520   0.02184   0.00000  Uiso   1.00
H149   H     0.94227   0.12964   0.08376   0.00000  Uiso   1.00
H150   H     0.90879   0.03872   0.20991   0.00000  Uiso   1.00
H151   H     0.75661   0.29335   0.29522   0.00000  Uiso   1.00
H152   H     0.97721   0.12406   0.18489   0.00000  Uiso   1.00
H153   H     0.72812   0.12399   0.18496   0.00000  Uiso   1.00
H154   H     0.68940   0.20910   0.31529   0.00000  Uiso   1.00
H155   H     0.93850   0.20917   0.31524   0.00000  Uiso   1.00
H156   H     0.92274   0.09194   0.41419   0.00000  Uiso   1.00
H157   H     0.81472   0.19073   0.08463   0.00000  Uiso   1.00
H158   H     0.72131   0.19196   0.42009   0.00000  Uiso   1.00
H159   H     0.75284   0.18016   0.06499   0.00000  Uiso   1.00
H160   H     0.69777   0.19882   0.01870   0.00000  Uiso   1.00
H161   H     0.86365   0.10659   0.37347   0.00000  Uiso   1.00
H162   H     0.90990   0.29658   0.20905   0.00000  Uiso   1.00
N163   N     0.71426   0.16668   0.25002   0.00000  Uiso   1.00
N164   N     0.95239   0.16665   0.25001   0.00000  Uiso   1.00
O165   O     0.79512   0.22775   0.25001   0.00000  Uiso   1.00
O166   O     0.87157   0.22774   0.25001   0.00000  Uiso   1.00
O167   O     0.77613   0.16666   0.32681   0.00000  Uiso   1.00
O168   O     0.85258   0.16665   0.32681   0.00000  Uiso   1.00
O169   O     0.79510   0.10559   0.25000   0.00000  Uiso   1.00
O170   O     0.87154   0.10558   0.25000   0.00000  Uiso   1.00
O171   O     0.81409   0.16668   0.17319   0.00000  Uiso   1.00
O172   O     0.89053   0.16667   0.17319   0.00000  Uiso   1.00
Zn173  Zn    0.78229   0.16667   0.25000   0.00000  Uiso   1.00
Zn174  Zn    0.88438   0.16666   0.25000   0.00000  Uiso   1.00
I175   I     0.72009   0.04696   0.32010   0.00000  Uiso   1.00
S176   S     0.97842   0.09400   0.47817   0.00000  Uiso   1.00
O177   O     0.67127   0.11430   0.42456   0.00000  Uiso   1.00
O178   O     0.67720   0.09377   0.01200   0.00000  Uiso   1.00
O179   O     0.96410   0.04465   0.46797   0.00000  Uiso   1.00
H180   H     0.99537   0.03020   0.45301   0.00000  Uiso   1.00
C181   C     0.16676   0.57997   0.25015   0.00000  Uiso   1.00
C182   C     0.14363   0.49131   0.49243   0.00000  Uiso   1.00
C183   C     0.15285   0.47994   0.43822   0.00000  Uiso   1.00
C184   C     0.18041   0.48521   0.01490   0.00000  Uiso   1.00
C185   C     0.22222   0.46166   0.48691   0.00000  Uiso   1.00
C186   C     0.22633   0.44489   0.43634   0.00000  Uiso   1.00
C187   C     0.19230   0.45394   0.41237   0.00000  Uiso   1.00
C188   C     0.17699   0.50318   0.06411   0.00000  Uiso   1.00
C189   C     0.25059   0.47041   0.06307   0.00000  Uiso   1.00
C190   C     0.12266   0.49548   0.41102   0.00000  Uiso   1.00
C191   C     0.20947   0.64581   0.22840   0.00000  Uiso   1.00
C192   C     0.14001   0.49806   0.35209   0.00000  Uiso   1.00
C193   C     0.20874   0.35516   0.22905   0.00000  Uiso   1.00
C194   C     0.16507   0.37574   0.25320   0.00000  Uiso   1.00
C195   C     0.12174   0.35361   0.27772   0.00000  Uiso   1.00
C196   C     0.12292   0.64419   0.27630   0.00000  Uiso   1.00
C197   C     0.16647   0.62399   0.25153   0.00000  Uiso   1.00
C198   C     0.32010   0.47631   0.21383   0.00000  Uiso   1.00
C199   C     0.03472   0.47631   0.21386   0.00000  Uiso   1.00
C200   C     0.01319   0.52358   0.28630   0.00000  Uiso   1.00
C201   C     0.29858   0.52359   0.28627   0.00000  Uiso   1.00
C202   C     0.16593   0.41996   0.25165   0.00000  Uiso   1.00
C203   C     0.19331   0.49974   0.14788   0.00000  Uiso   1.00
C204   C     0.25817   0.45524   0.01090   0.00000  Uiso   1.00
C205   C     0.20932   0.49325   0.08986   0.00000  Uiso   1.00
C206   C     0.07856   0.51384   0.44033   0.00000  Uiso   1.00
C207   C     0.06561   0.51877   0.49592   0.00000  Uiso   1.00
C208   C     0.09808   0.50854   0.02184   0.00000  Uiso   1.00
H209   H     0.27560   0.46297   0.08376   0.00000  Uiso   1.00
H210   H     0.24212   0.37206   0.20991   0.00000  Uiso   1.00
H211   H     0.08994   0.62668   0.29522   0.00000  Uiso   1.00
H212   H     0.31054   0.45739   0.18489   0.00000  Uiso   1.00
H213   H     0.06145   0.45733   0.18496   0.00000  Uiso   1.00
H214   H     0.02274   0.54244   0.31529   0.00000  Uiso   1.00
H215   H     0.27183   0.54250   0.31524   0.00000  Uiso   1.00
H216   H     0.25608   0.42527   0.41419   0.00000  Uiso   1.00
H217   H     0.14805   0.52406   0.08463   0.00000  Uiso   1.00
H218   H     0.05464   0.52529   0.42009   0.00000  Uiso   1.00
H219   H     0.08617   0.51350   0.06499   0.00000  Uiso   1.00
H220   H     0.03110   0.53215   0.01870   0.00000  Uiso   1.00
H221   H     0.19699   0.43993   0.37347   0.00000  Uiso   1.00
H222   H     0.24323   0.62992   0.20905   0.00000  Uiso   1.00
N223   N     0.04760   0.50001   0.25002   0.00000  Uiso   1.00
N224   N     0.28573   0.49998   0.25001   0.00000  Uiso   1.00
O225   O     0.12846   0.56108   0.25001   0.00000  Uiso   1.00
O226   O     0.20490   0.56107   0.25001   0.00000  Uiso   1.00
O227   O     0.10947   0.50000   0.32681   0.00000  Uiso   1.00
O228   O     0.18591   0.49999   0.32681   0.00000  Uiso   1.00
O229   O     0.12843   0.43893   0.25000   0.00000  Uiso   1.00
O230   O     0.20488   0.43892   0.25000   0.00000  Uiso   1.00
O231   O     0.14742   0.50001   0.17319   0.00000  Uiso   1.00
O232   O     0.22387   0.50000   0.17319   0.00000  Uiso   1.00
Zn233  Zn    0.11562   0.50001   0.25000   0.00000  Uiso   1.00
Zn234  Zn    0.21771   0.49999   0.25000   0.00000  Uiso   1.00
I235   I     0.05342   0.38030   0.32010   0.00000  Uiso   1.00
S236   S     0.31175   0.42734   0.47817   0.00000  Uiso   1.00
O237   O     0.00460   0.44763   0.42456   0.00000  Uiso   1.00
O238   O     0.01053   0.42710   0.01200   0.00000  Uiso   1.00
O239   O     0.29744   0.37798   0.46797   0.00000  Uiso   1.00
H240   H     0.32870   0.36353   0.45301   0.00000  Uiso   1.00
C241   C     0.50009   0.57997   0.25015   0.00000  Uiso   1.00
C242   C     0.47696   0.49131   0.49243   0.00000  Uiso   1.00
C243   C     0.48618   0.47994   0.43822   0.00000  Uiso   1.00
C244   C     0.51374   0.48521   0.01490   0.00000  Uiso   1.00
C245   C     0.55556   0.46166   0.48691   0.00000  Uiso   1.00
C246   C     0.55967   0.44489   0.43634   0.00000  Uiso   1.00
C247   C     0.52563   0.45394   0.41237   0.00000  Uiso   1.00
C248   C     0.51032   0.50318   0.06411   0.00000  Uiso   1.00
C249   C     0.58392   0.47041   0.06307   0.00000  Uiso   1.00
C250   C     0.45599   0.49548   0.41102   0.00000  Uiso   1.00
C251   C     0.54281   0.64581   0.22840   0.00000  Uiso   1.00
C252   C     0.47334   0.49806   0.35209   0.00000  Uiso   1.00
C253   C     0.54207   0.35516   0.22905   0.00000  Uiso   1.00
C254   C     0.49840   0.37574   0.25320   0.00000  Uiso   1.00
C255   C     0.45507   0.35361   0.27772   0.00000  Uiso   1.00
C256   C     0.45625   0.64419   0.27630   0.00000  Uiso   1.00
C257   C     0.49980   0.62399   0.25153   0.00000  Uiso   1.00
C258   C     0.65344   0.47631   0.21383   0.00000  Uiso   1.00
C259   C     0.36805   0.47631   0.21386   0.00000  Uiso   1.00
C260   C     0.34652   0.52358   0.28630   0.00000  Uiso   1.00
C261   C     0.63191   0.52359   0.28627   0.00000  Uiso   1.00
C262   C     0.49926   0.41996   0.25165   0.00000  Uiso   1.00
C263   C     0.52664   0.49974   0.14788   0.00000  Uiso   1.00
C264   C     0.59150   0.45524   0.01090   0.00000  Uiso   1.00
C265   C     0.54265   0.49325   0.08986   0.00000  Uiso   1.00
C266   C     0.41189   0.51384   0.44033   0.00000  Uiso   1.00
C267   C     0.39894   0.51877   0.49592   0.00000  Uiso   1.00
C268   C     0.43141   0.50854   0.02184   0.00000  Uiso   1.00
H269   H     0.60894   0.46297   0.08376   0.00000  Uiso   1.00
H270   H     0.57546   0.37206   0.20991   0.00000  Uiso   1.00
H271   H     0.42327   0.62668   0.29522   0.00000  Uiso   1.00
H272   H     0.64388   0.45739   0.18489   0.00000  Uiso   1.00
H273   H     0.39478   0.45733   0.18496   0.00000  Uiso   1.00
H274   H     0.35607   0.54244   0.31529   0.00000  Uiso   1.00
H275   H     0.60516   0.54250   0.31524   0.00000  Uiso   1.00
H276   H     0.58941   0.42527   0.41419   0.00000  Uiso   1.00
H277   H     0.48139   0.52406   0.08463   0.00000  Uiso   1.00
H278   H     0.38798   0.52529   0.42009   0.00000  Uiso   1.00
H279   H     0.41951   0.51350   0.06499   0.00000  Uiso   1.00
H280   H     0.36443   0.53215   0.01870   0.00000  Uiso   1.00
H281   H     0.53032   0.43993   0.37347   0.00000  Uiso   1.00
H282   H     0.57656   0.62992   0.20905   0.00000  Uiso   1.00
N283   N     0.38093   0.50001   0.25002   0.00000  Uiso   1.00
N284   N     0.61906   0.49998   0.25001   0.00000  Uiso   1.00
O285   O     0.46179   0.56108   0.25001   0.00000  Uiso   1.00
O286   O     0.53823   0.56107   0.25001   0.00000  Uiso   1.00
O287   O     0.44280   0.50000   0.32681   0.00000  Uiso   1.00
O288   O     0.51924   0.49999   0.32681   0.00000  Uiso   1.00
O289   O     0.46177   0.43893   0.25000   0.00000  Uiso   1.00
O290   O     0.53821   0.43892   0.25000   0.00000  Uiso   1.00
O291   O     0.48076   0.50001   0.17319   0.00000  Uiso   1.00
O292   O     0.55720   0.50000   0.17319   0.00000  Uiso   1.00
Zn293  Zn    0.44896   0.50001   0.25000   0.00000  Uiso   1.00
Zn294  Zn    0.55104   0.49999   0.25000   0.00000  Uiso   1.00
I295   I     0.38676   0.38030   0.32010   0.00000  Uiso   1.00
S296   S     0.64508   0.42734   0.47817   0.00000  Uiso   1.00
O297   O     0.33794   0.44763   0.42456   0.00000  Uiso   1.00
O298   O     0.34387   0.42710   0.01200   0.00000  Uiso   1.00
O299   O     0.63077   0.37798   0.46797   0.00000  Uiso   1.00
H300   H     0.66203   0.36353   0.45301   0.00000  Uiso   1.00
C301   C     0.83342   0.57997   0.25015   0.00000  Uiso   1.00
C302   C     0.81030   0.49131   0.49243   0.00000  Uiso   1.00
C303   C     0.81951   0.47994   0.43822   0.00000  Uiso   1.00
C304   C     0.84708   0.48521   0.01490   0.00000  Uiso   1.00
C305   C     0.88889   0.46166   0.48691   0.00000  Uiso   1.00
C306   C     0.89300   0.44489   0.43634   0.00000  Uiso   1.00
C307   C     0.85897   0.45394   0.41237   0.00000  Uiso   1.00
C308   C     0.84365   0.50318   0.06411   0.00000  Uiso   1.00
C309   C     0.91725   0.47041   0.06307   0.00000  Uiso   1.00
C310   C     0.78932   0.49548   0.41102   0.00000  Uiso   1.00
C311   C     0.87614   0.64581   0.22840   0.00000  Uiso   1.00
C312   C     0.80667   0.49806   0.35209   0.00000  Uiso   1.00
C313   C     0.87540   0.35516   0.22905   0.00000  Uiso   1.00
C314   C     0.83173   0.37574   0.25320   0.00000  Uiso   1.00
C315   C     0.78840   0.35361   0.27772   0.00000  Uiso   1.00
C316   C     0.78959   0.64419   0.27630   0.00000  Uiso   1.00
C317   C     0.83314   0.62399   0.25153   0.00000  Uiso   1.00
C318   C     0.98677   0.47631   0.21383   0.00000  Uiso   1.00
C319   C     0.70138   0.47631   0.21386   0.00000  Uiso   1.00
C320   C     0.67986   0.52358   0.28630   0.00000  Uiso   1.00
C321   C     0.96525   0.52359   0.28627   0.00000  Uiso   1.00
C322   C     0.83259   0.41996   0.25165   0.00000  Uiso   1.00
C323   C     0.85998   0.49974   0.14788   0.00000  Uiso   1.00
C324   C     0.92483   0.45524   0.01090   0.00000  Uiso   1.00
C325   C     0.87598   0.49325   0.08986   0.00000  Uiso   1.00
C326   C     0.74522   0.51384   0.44033   0.00000  Uiso   1.00
C327   C     0.73228   0.51877   0.49592   0.00000  Uiso   1.00
C328   C     0.76474   0.50854   0.02184   0.00000  Uiso   1.00
H329   H     0.94227   0.46297   0.08376   0.00000  Uiso   1.00
H330   H     0.90879   0.37206   0.20991   0.00000  Uiso   1.00
H331   H     0.75661   0.62668   0.29522   0.00000  Uiso   1.00
H332   H     0.97721   0.45739   0.18489   0.00000  Uiso   1.00
H333   H     0.72812   0.45733   0.18496   0.00000  Uiso   1.00
H334   H     0.68940   0.54244   0.31529   0.00000  Uiso   1.00
H335   H     0.93850   0.54250   0.31524   0.00000  Uiso   1.00
H336   H     0.92274   0.42527   0.41419   0.00000  Uiso   1.00
H337   H     0.81472   0.52406   0.08463   0.00000  Uiso   1.00
H338   H     0.72131   0.52529   0.42009   0.00000  Uiso   1.00
H339   H     0.75284   0.51350   0.06499   0.00000  Uiso   1.00
H340   H     0.69777   0.53215   0.01870   0.00000  Uiso   1.00
H341   H     0.86365   0.43993   0.37347   0.00000  Uiso   1.00
H342   H     0.90990   0.62992   0.20905   0.00000  Uiso   1.00
N343   N     0.71426   0.50001   0.25002   0.00000  Uiso   1.00
N344   N     0.95239   0.49998   0.25001   0.00000  Uiso   1.00
O345   O     0.79512   0.56108   0.25001   0.00000  Uiso   1.00
O346   O     0.87157   0.56107   0.25001   0.00000  Uiso   1.00
O347   O     0.77613   0.50000   0.32681   0.00000  Uiso   1.00
O348   O     0.85258   0.49999   0.32681   0.00000  Uiso   1.00
O349   O     0.79510   0.43893   0.25000   0.00000  Uiso   1.00
O350   O     0.87154   0.43892   0.25000   0.00000  Uiso   1.00
O351   O     0.81409   0.50001   0.17319   0.00000  Uiso   1.00
O352   O     0.89053   0.50000   0.17319   0.00000  Uiso   1.00
Zn353  Zn    0.78229   0.50001   0.25000   0.00000  Uiso   1.00
Zn354  Zn    0.88438   0.49999   0.25000   0.00000  Uiso   1.00
I355   I     0.72009   0.38030   0.32010   0.00000  Uiso   1.00
S356   S     0.97842   0.42734   0.47817   0.00000  Uiso   1.00
O357   O     0.67127   0.44763   0.42456   0.00000  Uiso   1.00
O358   O     0.67720   0.42710   0.01200   0.00000  Uiso   1.00
O359   O     0.96410   0.37798   0.46797   0.00000  Uiso   1.00
H360   H     0.99537   0.36353   0.45301   0.00000  Uiso   1.00
C361   C     0.16676   0.91330   0.25015   0.00000  Uiso   1.00
C362   C     0.14363   0.82464   0.49243   0.00000  Uiso   1.00
C363   C     0.15285   0.81327   0.43822   0.00000  Uiso   1.00
C364   C     0.18041   0.81855   0.01490   0.00000  Uiso   1.00
C365   C     0.22222   0.79499   0.48691   0.00000  Uiso   1.00
C366   C     0.22633   0.77822   0.43634   0.00000  Uiso   1.00
C367   C     0.19230   0.78728   0.41237   0.00000  Uiso   1.00
C368   C     0.17699   0.83651   0.06411   0.00000  Uiso   1.00
C369   C     0.25059   0.80374   0.06307   0.00000  Uiso   1.00
C370   C     0.12266   0.82882   0.41102   0.00000  Uiso   1.00
C371   C     0.20947   0.97914   0.22840   0.00000  Uiso   1.00
C372   C     0.14001   0.83139   0.35209   0.00000  Uiso   1.00
C373   C     0.20874   0.68850   0.22905   0.00000  Uiso   1.00
C374   C     0.16507   0.70908   0.25320   0.00000  Uiso   1.00
C375   C     0.12174   0.68694   0.27772   0.00000  Uiso   1.00
C376   C     0.12292   0.97752   0.27630   0.00000  Uiso   1.00
C377   C     0.16647   0.95732   0.25153   0.00000  Uiso   1.00
C378   C     0.32010   0.80965   0.21383   0.00000  Uiso   1.00
C379   C     0.03472   0.80964   0.21386   0.00000  Uiso   1.00
C380   C     0.01319   0.85691   0.28630   0.00000  Uiso   1.00
C381   C     0.29858   0.85692   0.28627   0.00000  Uiso   1.00
C382   C     0.16593   0.75330   0.25165   0.00000  Uiso   1.00
C383   C     0.19331   0.83307   0.14788   0.00000  Uiso   1.00
C384   C     0.25817   0.78858   0.01090   0.00000  Uiso   1.00
C385   C     0.20932   0.82658   0.08986   0.00000  Uiso   1.00
C386   C     0.07856   0.84717   0.44033   0.00000  Uiso   1.00
C387   C     0.06561   0.85210   0.49592   0.00000  Uiso   1.00
C388   C     0.09808   0.84187   0.02184   0.00000  Uiso   1.00
H389   H     0.27560   0.79630   0.08376   0.00000  Uiso   1.00
H390   H     0.24212   0.70539   0.20991   0.00000  Uiso   1.00
H391   H     0.08994   0.96002   0.29522   0.00000  Uiso   1.00
H392   H     0.31054   0.79073   0.18489   0.00000  Uiso   1.00
H393   H     0.06145   0.79066   0.18496   0.00000  Uiso   1.00
H394   H     0.02274   0.87577   0.31529   0.00000  Uiso   1.00
H395   H     0.27183   0.87584   0.31524   0.00000  Uiso   1.00
H396   H     0.25608   0.75861   0.41419   0.00000  Uiso   1.00
H397   H     0.14805   0.85740   0.08463   0.00000  Uiso   1.00
H398   H     0.05464   0.85863   0.42009   0.00000  Uiso   1.00
H399   H     0.08617   0.84683   0.06499   0.00000  Uiso   1.00
H400   H     0.03110   0.86548   0.01870   0.00000  Uiso   1.00
H401   H     0.19699   0.77326   0.37347   0.00000  Uiso   1.00
H402   H     0.24323   0.96325   0.20905   0.00000  Uiso   1.00
N403   N     0.04760   0.83334   0.25002   0.00000  Uiso   1.00
N404   N     0.28573   0.83331   0.25001   0.00000  Uiso   1.00
O405   O     0.12846   0.89442   0.25001   0.00000  Uiso   1.00
O406   O     0.20490   0.89441   0.25001   0.00000  Uiso   1.00
O407   O     0.10947   0.83333   0.32681   0.00000  Uiso   1.00
O408   O     0.18591   0.83332   0.32681   0.00000  Uiso   1.00
O409   O     0.12843   0.77226   0.25000   0.00000  Uiso   1.00
O410   O     0.20488   0.77225   0.25000   0.00000  Uiso   1.00
O411   O     0.14742   0.83335   0.17319   0.00000  Uiso   1.00
O412   O     0.22387   0.83334   0.17319   0.00000  Uiso   1.00
Zn413  Zn    0.11562   0.83334   0.25000   0.00000  Uiso   1.00
Zn414  Zn    0.21771   0.83333   0.25000   0.00000  Uiso   1.00
I415   I     0.05342   0.71363   0.32010   0.00000  Uiso   1.00
S416   S     0.31175   0.76067   0.47817   0.00000  Uiso   1.00
O417   O     0.00460   0.78096   0.42456   0.00000  Uiso   1.00
O418   O     0.01053   0.76043   0.01200   0.00000  Uiso   1.00
O419   O     0.29744   0.71132   0.46797   0.00000  Uiso   1.00
H420   H     0.32870   0.69686   0.45301   0.00000  Uiso   1.00
C421   C     0.50009   0.91330   0.25015   0.00000  Uiso   1.00
C422   C     0.47696   0.82464   0.49243   0.00000  Uiso   1.00
C423   C     0.48618   0.81327   0.43822   0.00000  Uiso   1.00
C424   C     0.51374   0.81855   0.01490   0.00000  Uiso   1.00
C425   C     0.55556   0.79499   0.48691   0.00000  Uiso   1.00
C426   C     0.55967   0.77822   0.43634   0.00000  Uiso   1.00
C427   C     0.52563   0.78728   0.41237   0.00000  Uiso   1.00
C428   C     0.51032   0.83651   0.06411   0.00000  Uiso   1.00
C429   C     0.58392   0.80374   0.06307   0.00000  Uiso   1.00
C430   C     0.45599   0.82882   0.41102   0.00000  Uiso   1.00
C431   C     0.54281   0.97914   0.22840   0.00000  Uiso   1.00
C432   C     0.47334   0.83139   0.35209   0.00000  Uiso   1.00
C433   C     0.54207   0.68850   0.22905   0.00000  Uiso   1.00
C434   C     0.49840   0.70908   0.25320   0.00000  Uiso   1.00
C435   C     0.45507   0.68694   0.27772   0.00000  Uiso   1.00
C436   C     0.45625   0.97752   0.27630   0.00000  Uiso   1.00
C437   C     0.49980   0.95732   0.25153   0.00000  Uiso   1.00
C438   C     0.65344   0.80965   0.21383   0.00000  Uiso   1.00
C439   C     0.36805   0.80964   0.21386   0.00000  Uiso   1.00
C440   C     0.34652   0.85691   0.28630   0.00000  Uiso   1.00
C441   C     0.63191   0.85692   0.28627   0.00000  Uiso   1.00
C442   C     0.49926   0.75330   0.25165   0.00000  Uiso   1.00
C443   C     0.52664   0.83307   0.14788   0.00000  Uiso   1.00
C444   C     0.59150   0.78858   0.01090   0.00000  Uiso   1.00
C445   C     0.54265   0.82658   0.08986   0.00000  Uiso   1.00
C446   C     0.41189   0.84717   0.44033   0.00000  Uiso   1.00
C447   C     0.39894   0.85210   0.49592   0.00000  Uiso   1.00
C448   C     0.43141   0.84187   0.02184   0.00000  Uiso   1.00
H449   H     0.60894   0.79630   0.08376   0.00000  Uiso   1.00
H450   H     0.57546   0.70539   0.20991   0.00000  Uiso   1.00
H451   H     0.42327   0.96002   0.29522   0.00000  Uiso   1.00
H452   H     0.64388   0.79073   0.18489   0.00000  Uiso   1.00
H453   H     0.39478   0.79066   0.18496   0.00000  Uiso   1.00
H454   H     0.35607   0.87577   0.31529   0.00000  Uiso   1.00
H455   H     0.60516   0.87584   0.31524   0.00000  Uiso   1.00
H456   H     0.58941   0.75861   0.41419   0.00000  Uiso   1.00
H457   H     0.48139   0.85740   0.08463   0.00000  Uiso   1.00
H458   H     0.38798   0.85863   0.42009   0.00000  Uiso   1.00
H459   H     0.41951   0.84683   0.06499   0.00000  Uiso   1.00
H460   H     0.36443   0.86548   0.01870   0.00000  Uiso   1.00
H461   H     0.53032   0.77326   0.37347   0.00000  Uiso   1.00
H462   H     0.57656   0.96325   0.20905   0.00000  Uiso   1.00
N463   N     0.38093   0.83334   0.25002   0.00000  Uiso   1.00
N464   N     0.61906   0.83331   0.25001   0.00000  Uiso   1.00
O465   O     0.46179   0.89442   0.25001   0.00000  Uiso   1.00
O466   O     0.53823   0.89441   0.25001   0.00000  Uiso   1.00
O467   O     0.44280   0.83333   0.32681   0.00000  Uiso   1.00
O468   O     0.51924   0.83332   0.32681   0.00000  Uiso   1.00
O469   O     0.46177   0.77226   0.25000   0.00000  Uiso   1.00
O470   O     0.53821   0.77225   0.25000   0.00000  Uiso   1.00
O471   O     0.48076   0.83335   0.17319   0.00000  Uiso   1.00
O472   O     0.55720   0.83334   0.17319   0.00000  Uiso   1.00
Zn473  Zn    0.44896   0.83334   0.25000   0.00000  Uiso   1.00
Zn474  Zn    0.55104   0.83333   0.25000   0.00000  Uiso   1.00
I475   I     0.38676   0.71363   0.32010   0.00000  Uiso   1.00
S476   S     0.64508   0.76067   0.47817   0.00000  Uiso   1.00
O477   O     0.33794   0.78096   0.42456   0.00000  Uiso   1.00
O478   O     0.34387   0.76043   0.01200   0.00000  Uiso   1.00
O479   O     0.63077   0.71132   0.46797   0.00000  Uiso   1.00
H480   H     0.66203   0.69686   0.45301   0.00000  Uiso   1.00
C481   C     0.83342   0.91330   0.25015   0.00000  Uiso   1.00
C482   C     0.81030   0.82464   0.49243   0.00000  Uiso   1.00
C483   C     0.81951   0.81327   0.43822   0.00000  Uiso   1.00
C484   C     0.84708   0.81855   0.01490   0.00000  Uiso   1.00
C485   C     0.88889   0.79499   0.48691   0.00000  Uiso   1.00
C486   C     0.89300   0.77822   0.43634   0.00000  Uiso   1.00
C487   C     0.85897   0.78728   0.41237   0.00000  Uiso   1.00
C488   C     0.84365   0.83651   0.06411   0.00000  Uiso   1.00
C489   C     0.91725   0.80374   0.06307   0.00000  Uiso   1.00
C490   C     0.78932   0.82882   0.41102   0.00000  Uiso   1.00
C491   C     0.87614   0.97914   0.22840   0.00000  Uiso   1.00
C492   C     0.80667   0.83139   0.35209   0.00000  Uiso   1.00
C493   C     0.87540   0.68850   0.22905   0.00000  Uiso   1.00
C494   C     0.83173   0.70908   0.25320   0.00000  Uiso   1.00
C495   C     0.78840   0.68694   0.27772   0.00000  Uiso   1.00
C496   C     0.78959   0.97752   0.27630   0.00000  Uiso   1.00
C497   C     0.83314   0.95732   0.25153   0.00000  Uiso   1.00
C498   C     0.98677   0.80965   0.21383   0.00000  Uiso   1.00
C499   C     0.70138   0.80964   0.21386   0.00000  Uiso   1.00
C500   C     0.67986   0.85691   0.28630   0.00000  Uiso   1.00
C501   C     0.96525   0.85692   0.28627   0.00000  Uiso   1.00
C502   C     0.83259   0.75330   0.25165   0.00000  Uiso   1.00
C503   C     0.85998   0.83307   0.14788   0.00000  Uiso   1.00
C504   C     0.92483   0.78858   0.01090   0.00000  Uiso   1.00
C505   C     0.87598   0.82658   0.08986   0.00000  Uiso   1.00
C506   C     0.74522   0.84717   0.44033   0.00000  Uiso   1.00
C507   C     0.73228   0.85210   0.49592   0.00000  Uiso   1.00
C508   C     0.76474   0.84187   0.02184   0.00000  Uiso   1.00
H509   H     0.94227   0.79630   0.08376   0.00000  Uiso   1.00
H510   H     0.90879   0.70539   0.20991   0.00000  Uiso   1.00
H511   H     0.75661   0.96002   0.29522   0.00000  Uiso   1.00
H512   H     0.97721   0.79073   0.18489   0.00000  Uiso   1.00
H513   H     0.72812   0.79066   0.18496   0.00000  Uiso   1.00
H514   H     0.68940   0.87577   0.31529   0.00000  Uiso   1.00
H515   H     0.93850   0.87584   0.31524   0.00000  Uiso   1.00
H516   H     0.92274   0.75861   0.41419   0.00000  Uiso   1.00
H517   H     0.81472   0.85740   0.08463   0.00000  Uiso   1.00
H518   H     0.72131   0.85863   0.42009   0.00000  Uiso   1.00
H519   H     0.75284   0.84683   0.06499   0.00000  Uiso   1.00
H520   H     0.69777   0.86548   0.01870   0.00000  Uiso   1.00
H521   H     0.86365   0.77326   0.37347   0.00000  Uiso   1.00
H522   H     0.90990   0.96325   0.20905   0.00000  Uiso   1.00
N523   N     0.71426   0.83334   0.25002   0.00000  Uiso   1.00
N524   N     0.95239   0.83331   0.25001   0.00000  Uiso   1.00
O525   O     0.79512   0.89442   0.25001   0.00000  Uiso   1.00
O526   O     0.87157   0.89441   0.25001   0.00000  Uiso   1.00
O527   O     0.77613   0.83333   0.32681   0.00000  Uiso   1.00
O528   O     0.85258   0.83332   0.32681   0.00000  Uiso   1.00
O529   O     0.79510   0.77226   0.25000   0.00000  Uiso   1.00
O530   O     0.87154   0.77225   0.25000   0.00000  Uiso   1.00
O531   O     0.81409   0.83335   0.17319   0.00000  Uiso   1.00
O532   O     0.89053   0.83334   0.17319   0.00000  Uiso   1.00
Zn533  Zn    0.78229   0.83334   0.25000   0.00000  Uiso   1.00
Zn534  Zn    0.88438   0.83333   0.25000   0.00000  Uiso   1.00
I535   I     0.72009   0.71363   0.32010   0.00000  Uiso   1.00
S536   S     0.97842   0.76067   0.47817   0.00000  Uiso   1.00
O537   O     0.67127   0.78096   0.42456   0.00000  Uiso   1.00
O538   O     0.67720   0.76043   0.01200   0.00000  Uiso   1.00
O539   O     0.96410   0.71132   0.46797   0.00000  Uiso   1.00
H540   H     0.99537   0.69686   0.45301   0.00000  Uiso   1.00
C541   C     0.16676   0.24663   0.75015   0.00000  Uiso   1.00
C542   C     0.14363   0.15797   0.99243   0.00000  Uiso   1.00
C543   C     0.15285   0.14661   0.93822   0.00000  Uiso   1.00
C544   C     0.18041   0.15188   0.51490   0.00000  Uiso   1.00
C545   C     0.22222   0.12833   0.98691   0.00000  Uiso   1.00
C546   C     0.22633   0.11155   0.93634   0.00000  Uiso   1.00
C547   C     0.19230   0.12061   0.91237   0.00000  Uiso   1.00
C548   C     0.17699   0.16984   0.56411   0.00000  Uiso   1.00
C549   C     0.25059   0.13707   0.56307   0.00000  Uiso   1.00
C550   C     0.12266   0.16215   0.91102   0.00000  Uiso   1.00
C551   C     0.20947   0.31247   0.72840   0.00000  Uiso   1.00
C552   C     0.14001   0.16472   0.85209   0.00000  Uiso   1.00
C553   C     0.20874   0.02183   0.72905   0.00000  Uiso   1.00
C554   C     0.16507   0.04241   0.75320   0.00000  Uiso   1.00
C555   C     0.12174   0.02027   0.77772   0.00000  Uiso   1.00
C556   C     0.12292   0.31085   0.77630   0.00000  Uiso   1.00
C557   C     0.16647   0.29066   0.75153   0.00000  Uiso   1.00
C558   C     0.32010   0.14298   0.71383   0.00000  Uiso   1.00
C559   C     0.03472   0.14297   0.71386   0.00000  Uiso   1.00
C560   C     0.01319   0.19024   0.78630   0.00000  Uiso   1.00
C561   C     0.29858   0.19025   0.78627   0.00000  Uiso   1.00
C562   C     0.16593   0.08663   0.75165   0.00000  Uiso   1.00
C563   C     0.19331   0.16641   0.64788   0.00000  Uiso   1.00
C564   C     0.25817   0.12191   0.51090   0.00000  Uiso   1.00
C565   C     0.20932   0.15992   0.58986   0.00000  Uiso   1.00
C566   C     0.07856   0.18050   0.94033   0.00000  Uiso   1.00
C567   C     0.06561   0.18544   0.99592   0.00000  Uiso   1.00
C568   C     0.09808   0.17520   0.52184   0.00000  Uiso   1.00
H569   H     0.27560   0.12964   0.58376   0.00000  Uiso   1.00
H570   H     0.24212   0.03872   0.70991   0.00000  Uiso   1.00
H571   H     0.08994   0.29335   0.79522   0.00000  Uiso   1.00
H572   H     0.31054   0.12406   0.68489   0.00000  Uiso   1.00
H573   H     0.06145   0.12399   0.68496   0.00000  Uiso   1.00
H574   H     0.02274   0.20910   0.81529   0.00000  Uiso   1.00
H575   H     0.27183   0.20917   0.81524   0.00000  Uiso   1.00
H576   H     0.25608   0.09194   0.91419   0.00000  Uiso   1.00
H577   H     0.14805   0.19073   0.58463   0.00000  Uiso   1.00
H578   H     0.05464   0.19196   0.92009   0.00000  Uiso   1.00
H579   H     0.08617   0.18016   0.56499   0.00000  Uiso   1.00
H580   H     0.03110   0.19882   0.51870   0.00000  Uiso   1.00
H581   H     0.19699   0.10659   0.87347   0.00000  Uiso   1.00
H582   H     0.24323   0.29658   0.70905   0.00000  Uiso   1.00
N583   N     0.04760   0.16668   0.75002   0.00000  Uiso   1.00
N584   N     0.28573   0.16665   0.75001   0.00000  Uiso   1.00
O585   O     0.12846   0.22775   0.75001   0.00000  Uiso   1.00
O586   O     0.20490   0.22774   0.75001   0.00000  Uiso   1.00
O587   O     0.10947   0.16666   0.82681   0.00000  Uiso   1.00
O588   O     0.18591   0.16665   0.82681   0.00000  Uiso   1.00
O589   O     0.12843   0.10559   0.75000   0.00000  Uiso   1.00
O590   O     0.20488   0.10558   0.75000   0.00000  Uiso   1.00
O591   O     0.14742   0.16668   0.67319   0.00000  Uiso   1.00
O592   O     0.22387   0.16667   0.67319   0.00000  Uiso   1.00
Zn593  Zn    0.11562   0.16667   0.75000   0.00000  Uiso   1.00
Zn594  Zn    0.21771   0.16666   0.75000   0.00000  Uiso   1.00
I595   I     0.05342   0.04696   0.82010   0.00000  Uiso   1.00
S596   S     0.31175   0.09400   0.97817   0.00000  Uiso   1.00
O597   O     0.00460   0.11430   0.92456   0.00000  Uiso   1.00
O598   O     0.01053   0.09377   0.51200   0.00000  Uiso   1.00
O599   O     0.29744   0.04465   0.96797   0.00000  Uiso   1.00
H600   H     0.32870   0.03020   0.95301   0.00000  Uiso   1.00
C601   C     0.50009   0.24663   0.75015   0.00000  Uiso   1.00
C602   C     0.47696   0.15797   0.99243   0.00000  Uiso   1.00
C603   C     0.48618   0.14661   0.93822   0.00000  Uiso   1.00
C604   C     0.51374   0.15188   0.51490   0.00000  Uiso   1.00
C605   C     0.55556   0.12833   0.98691   0.00000  Uiso   1.00
C606   C     0.55967   0.11155   0.93634   0.00000  Uiso   1.00
C607   C     0.52563   0.12061   0.91237   0.00000  Uiso   1.00
C608   C     0.51032   0.16984   0.56411   0.00000  Uiso   1.00
C609   C     0.58392   0.13707   0.56307   0.00000  Uiso   1.00
C610   C     0.45599   0.16215   0.91102   0.00000  Uiso   1.00
C611   C     0.54281   0.31247   0.72840   0.00000  Uiso   1.00
C612   C     0.47334   0.16472   0.85209   0.00000  Uiso   1.00
C613   C     0.54207   0.02183   0.72905   0.00000  Uiso   1.00
C614   C     0.49840   0.04241   0.75320   0.00000  Uiso   1.00
C615   C     0.45507   0.02027   0.77772   0.00000  Uiso   1.00
C616   C     0.45625   0.31085   0.77630   0.00000  Uiso   1.00
C617   C     0.49980   0.29066   0.75153   0.00000  Uiso   1.00
C618   C     0.65344   0.14298   0.71383   0.00000  Uiso   1.00
C619   C     0.36805   0.14297   0.71386   0.00000  Uiso   1.00
C620   C     0.34652   0.19024   0.78630   0.00000  Uiso   1.00
C621   C     0.63191   0.19025   0.78627   0.00000  Uiso   1.00
C622   C     0.49926   0.08663   0.75165   0.00000  Uiso   1.00
C623   C     0.52664   0.16641   0.64788   0.00000  Uiso   1.00
C624   C     0.59150   0.12191   0.51090   0.00000  Uiso   1.00
C625   C     0.54265   0.15992   0.58986   0.00000  Uiso   1.00
C626   C     0.41189   0.18050   0.94033   0.00000  Uiso   1.00
C627   C     0.39894   0.18544   0.99592   0.00000  Uiso   1.00
C628   C     0.43141   0.17520   0.52184   0.00000  Uiso   1.00
H629   H     0.60894   0.12964   0.58376   0.00000  Uiso   1.00
H630   H     0.57546   0.03872   0.70991   0.00000  Uiso   1.00
H631   H     0.42327   0.29335   0.79522   0.00000  Uiso   1.00
H632   H     0.64388   0.12406   0.68489   0.00000  Uiso   1.00
H633   H     0.39478   0.12399   0.68496   0.00000  Uiso   1.00
H634   H     0.35607   0.20910   0.81529   0.00000  Uiso   1.00
H635   H     0.60516   0.20917   0.81524   0.00000  Uiso   1.00
H636   H     0.58941   0.09194   0.91419   0.00000  Uiso   1.00
H637   H     0.48139   0.19073   0.58463   0.00000  Uiso   1.00
H638   H     0.38798   0.19196   0.92009   0.00000  Uiso   1.00
H639   H     0.41951   0.18016   0.56499   0.00000  Uiso   1.00
H640   H     0.36443   0.19882   0.51870   0.00000  Uiso   1.00
H641   H     0.53032   0.10659   0.87347   0.00000  Uiso   1.00
H642   H     0.57656   0.29658   0.70905   0.00000  Uiso   1.00
N643   N     0.38093   0.16668   0.75002   0.00000  Uiso   1.00
N644   N     0.61906   0.16665   0.75001   0.00000  Uiso   1.00
O645   O     0.46179   0.22775   0.75001   0.00000  Uiso   1.00
O646   O     0.53823   0.22774   0.75001   0.00000  Uiso   1.00
O647   O     0.44280   0.16666   0.82681   0.00000  Uiso   1.00
O648   O     0.51924   0.16665   0.82681   0.00000  Uiso   1.00
O649   O     0.46177   0.10559   0.75000   0.00000  Uiso   1.00
O650   O     0.53821   0.10558   0.75000   0.00000  Uiso   1.00
O651   O     0.48076   0.16668   0.67319   0.00000  Uiso   1.00
O652   O     0.55720   0.16667   0.67319   0.00000  Uiso   1.00
Zn653  Zn    0.44896   0.16667   0.75000   0.00000  Uiso   1.00
Zn654  Zn    0.55104   0.16666   0.75000   0.00000  Uiso   1.00
I655   I     0.38676   0.04696   0.82010   0.00000  Uiso   1.00
S656   S     0.64508   0.09400   0.97817   0.00000  Uiso   1.00
O657   O     0.33794   0.11430   0.92456   0.00000  Uiso   1.00
O658   O     0.34387   0.09377   0.51200   0.00000  Uiso   1.00
O659   O     0.63077   0.04465   0.96797   0.00000  Uiso   1.00
H660   H     0.66203   0.03020   0.95301   0.00000  Uiso   1.00
C661   C     0.83342   0.24663   0.75015   0.00000  Uiso   1.00
C662   C     0.81030   0.15797   0.99243   0.00000  Uiso   1.00
C663   C     0.81951   0.14661   0.93822   0.00000  Uiso   1.00
C664   C     0.84708   0.15188   0.51490   0.00000  Uiso   1.00
C665   C     0.88889   0.12833   0.98691   0.00000  Uiso   1.00
C666   C     0.89300   0.11155   0.93634   0.00000  Uiso   1.00
C667   C     0.85897   0.12061   0.91237   0.00000  Uiso   1.00
C668   C     0.84365   0.16984   0.56411   0.00000  Uiso   1.00
C669   C     0.91725   0.13707   0.56307   0.00000  Uiso   1.00
C670   C     0.78932   0.16215   0.91102   0.00000  Uiso   1.00
C671   C     0.87614   0.31247   0.72840   0.00000  Uiso   1.00
C672   C     0.80667   0.16472   0.85209   0.00000  Uiso   1.00
C673   C     0.87540   0.02183   0.72905   0.00000  Uiso   1.00
C674   C     0.83173   0.04241   0.75320   0.00000  Uiso   1.00
C675   C     0.78840   0.02027   0.77772   0.00000  Uiso   1.00
C676   C     0.78959   0.31085   0.77630   0.00000  Uiso   1.00
C677   C     0.83314   0.29066   0.75153   0.00000  Uiso   1.00
C678   C     0.98677   0.14298   0.71383   0.00000  Uiso   1.00
C679   C     0.70138   0.14297   0.71386   0.00000  Uiso   1.00
C680   C     0.67986   0.19024   0.78630   0.00000  Uiso   1.00
C681   C     0.96525   0.19025   0.78627   0.00000  Uiso   1.00
C682   C     0.83259   0.08663   0.75165   0.00000  Uiso   1.00
C683   C     0.85998   0.16641   0.64788   0.00000  Uiso   1.00
C684   C     0.92483   0.12191   0.51090   0.00000  Uiso   1.00
C685   C     0.87598   0.15992   0.58986   0.00000  Uiso   1.00
C686   C     0.74522   0.18050   0.94033   0.00000  Uiso   1.00
C687   C     0.73228   0.18544   0.99592   0.00000  Uiso   1.00
C688   C     0.76474   0.17520   0.52184   0.00000  Uiso   1.00
H689   H     0.94227   0.12964   0.58376   0.00000  Uiso   1.00
H690   H     0.90879   0.03872   0.70991   0.00000  Uiso   1.00
H691   H     0.75661   0.29335   0.79522   0.00000  Uiso   1.00
H692   H     0.97721   0.12406   0.68489   0.00000  Uiso   1.00
H693   H     0.72812   0.12399   0.68496   0.00000  Uiso   1.00
H694   H     0.68940   0.20910   0.81529   0.00000  Uiso   1.00
H695   H     0.93850   0.20917   0.81524   0.00000  Uiso   1.00
H696   H     0.92274   0.09194   0.91419   0.00000  Uiso   1.00
H697   H     0.81472   0.19073   0.58463   0.00000  Uiso   1.00
H698   H     0.72131   0.19196   0.92009   0.00000  Uiso   1.00
H699   H     0.75284   0.18016   0.56499   0.00000  Uiso   1.00
H700   H     0.69777   0.19882   0.51870   0.00000  Uiso   1.00
H701   H     0.86365   0.10659   0.87347   0.00000  Uiso   1.00
H702   H     0.90990   0.29658   0.70905   0.00000  Uiso   1.00
N703   N     0.71426   0.16668   0.75002   0.00000  Uiso   1.00
N704   N     0.95239   0.16665   0.75001   0.00000  Uiso   1.00
O705   O     0.79512   0.22775   0.75001   0.00000  Uiso   1.00
O706   O     0.87157   0.22774   0.75001   0.00000  Uiso   1.00
O707   O     0.77613   0.16666   0.82681   0.00000  Uiso   1.00
O708   O     0.85258   0.16665   0.82681   0.00000  Uiso   1.00
O709   O     0.79510   0.10559   0.75000   0.00000  Uiso   1.00
O710   O     0.87154   0.10558   0.75000   0.00000  Uiso   1.00
O711   O     0.81409   0.16668   0.67319   0.00000  Uiso   1.00
O712   O     0.89053   0.16667   0.67319   0.00000  Uiso   1.00
Zn713  Zn    0.78229   0.16667   0.75000   0.00000  Uiso   1.00
Zn714  Zn    0.88438   0.16666   0.75000   0.00000  Uiso   1.00
I715   I     0.72009   0.04696   0.82010   0.00000  Uiso   1.00
S716   S     0.97842   0.09400   0.97817   0.00000  Uiso   1.00
O717   O     0.67127   0.11430   0.92456   0.00000  Uiso   1.00
O718   O     0.67720   0.09377   0.51200   0.00000  Uiso   1.00
O719   O     0.96410   0.04465   0.96797   0.00000  Uiso   1.00
H720   H     0.99537   0.03020   0.95301   0.00000  Uiso   1.00
C721   C     0.16676   0.57997   0.75015   0.00000  Uiso   1.00
C722   C     0.14363   0.49131   0.99243   0.00000  Uiso   1.00
C723   C     0.15285   0.47994   0.93822   0.00000  Uiso   1.00
C724   C     0.18041   0.48521   0.51490   0.00000  Uiso   1.00
C725   C     0.22222   0.46166   0.98691   0.00000  Uiso   1.00
C726   C     0.22633   0.44489   0.93634   0.00000  Uiso   1.00
C727   C     0.19230   0.45394   0.91237   0.00000  Uiso   1.00
C728   C     0.17699   0.50318   0.56411   0.00000  Uiso   1.00
C729   C     0.25059   0.47041   0.56307   0.00000  Uiso   1.00
C730   C     0.12266   0.49548   0.91102   0.00000  Uiso   1.00
C731   C     0.20947   0.64581   0.72840   0.00000  Uiso   1.00
C732   C     0.14001   0.49806   0.85209   0.00000  Uiso   1.00
C733   C     0.20874   0.35516   0.72905   0.00000  Uiso   1.00
C734   C     0.16507   0.37574   0.75320   0.00000  Uiso   1.00
C735   C     0.12174   0.35361   0.77772   0.00000  Uiso   1.00
C736   C     0.12292   0.64419   0.77630   0.00000  Uiso   1.00
C737   C     0.16647   0.62399   0.75153   0.00000  Uiso   1.00
C738   C     0.32010   0.47631   0.71383   0.00000  Uiso   1.00
C739   C     0.03472   0.47631   0.71386   0.00000  Uiso   1.00
C740   C     0.01319   0.52358   0.78630   0.00000  Uiso   1.00
C741   C     0.29858   0.52359   0.78627   0.00000  Uiso   1.00
C742   C     0.16593   0.41996   0.75165   0.00000  Uiso   1.00
C743   C     0.19331   0.49974   0.64788   0.00000  Uiso   1.00
C744   C     0.25817   0.45524   0.51090   0.00000  Uiso   1.00
C745   C     0.20932   0.49325   0.58986   0.00000  Uiso   1.00
C746   C     0.07856   0.51384   0.94033   0.00000  Uiso   1.00
C747   C     0.06561   0.51877   0.99592   0.00000  Uiso   1.00
C748   C     0.09808   0.50854   0.52184   0.00000  Uiso   1.00
H749   H     0.27560   0.46297   0.58376   0.00000  Uiso   1.00
H750   H     0.24212   0.37206   0.70991   0.00000  Uiso   1.00
H751   H     0.08994   0.62668   0.79522   0.00000  Uiso   1.00
H752   H     0.31054   0.45739   0.68489   0.00000  Uiso   1.00
H753   H     0.06145   0.45733   0.68496   0.00000  Uiso   1.00
H754   H     0.02274   0.54244   0.81529   0.00000  Uiso   1.00
H755   H     0.27183   0.54250   0.81524   0.00000  Uiso   1.00
H756   H     0.25608   0.42527   0.91419   0.00000  Uiso   1.00
H757   H     0.14805   0.52406   0.58463   0.00000  Uiso   1.00
H758   H     0.05464   0.52529   0.92009   0.00000  Uiso   1.00
H759   H     0.08617   0.51350   0.56499   0.00000  Uiso   1.00
H760   H     0.03110   0.53215   0.51870   0.00000  Uiso   1.00
H761   H     0.19699   0.43993   0.87347   0.00000  Uiso   1.00
H762   H     0.24323   0.62992   0.70905   0.00000  Uiso   1.00
N763   N     0.04760   0.50001   0.75002   0.00000  Uiso   1.00
N764   N     0.28573   0.49998   0.75001   0.00000  Uiso   1.00
O765   O     0.12846   0.56108   0.75001   0.00000  Uiso   1.00
O766   O     0.20490   0.56107   0.75001   0.00000  Uiso   1.00
O767   O     0.10947   0.50000   0.82681   0.00000  Uiso   1.00
O768   O     0.18591   0.49999   0.82681   0.00000  Uiso   1.00
O769   O     0.12843   0.43893   0.75000   0.00000  Uiso   1.00
O770   O     0.20488   0.43892   0.75000   0.00000  Uiso   1.00
O771   O     0.14742   0.50001   0.67319   0.00000  Uiso   1.00
O772   O     0.22387   0.50000   0.67319   0.00000  Uiso   1.00
Zn773  Zn    0.11562   0.50001   0.75000   0.00000  Uiso   1.00
Zn774  Zn    0.21771   0.49999   0.75000   0.00000  Uiso   1.00
I775   I     0.05342   0.38030   0.82010   0.00000  Uiso   1.00
S776   S     0.31175   0.42734   0.97817   0.00000  Uiso   1.00
O777   O     0.00460   0.44763   0.92456   0.00000  Uiso   1.00
O778   O     0.01053   0.42710   0.51200   0.00000  Uiso   1.00
O779   O     0.29744   0.37798   0.96797   0.00000  Uiso   1.00
H780   H     0.32870   0.36353   0.95301   0.00000  Uiso   1.00
C781   C     0.50009   0.57997   0.75015   0.00000  Uiso   1.00
C782   C     0.47696   0.49131   0.99243   0.00000  Uiso   1.00
C783   C     0.48618   0.47994   0.93822   0.00000  Uiso   1.00
C784   C     0.51374   0.48521   0.51490   0.00000  Uiso   1.00
C785   C     0.55556   0.46166   0.98691   0.00000  Uiso   1.00
C786   C     0.55967   0.44489   0.93634   0.00000  Uiso   1.00
C787   C     0.52563   0.45394   0.91237   0.00000  Uiso   1.00
C788   C     0.51032   0.50318   0.56411   0.00000  Uiso   1.00
C789   C     0.58392   0.47041   0.56307   0.00000  Uiso   1.00
C790   C     0.45599   0.49548   0.91102   0.00000  Uiso   1.00
C791   C     0.54281   0.64581   0.72840   0.00000  Uiso   1.00
C792   C     0.47334   0.49806   0.85209   0.00000  Uiso   1.00
C793   C     0.54207   0.35516   0.72905   0.00000  Uiso   1.00
C794   C     0.49840   0.37574   0.75320   0.00000  Uiso   1.00
C795   C     0.45507   0.35361   0.77772   0.00000  Uiso   1.00
C796   C     0.45625   0.64419   0.77630   0.00000  Uiso   1.00
C797   C     0.49980   0.62399   0.75153   0.00000  Uiso   1.00
C798   C     0.65344   0.47631   0.71383   0.00000  Uiso   1.00
C799   C     0.36805   0.47631   0.71386   0.00000  Uiso   1.00
C800   C     0.34652   0.52358   0.78630   0.00000  Uiso   1.00
C801   C     0.63191   0.52359   0.78627   0.00000  Uiso   1.00
C802   C     0.49926   0.41996   0.75165   0.00000  Uiso   1.00
C803   C     0.52664   0.49974   0.64788   0.00000  Uiso   1.00
C804   C     0.59150   0.45524   0.51090   0.00000  Uiso   1.00
C805   C     0.54265   0.49325   0.58986   0.00000  Uiso   1.00
C806   C     0.41189   0.51384   0.94033   0.00000  Uiso   1.00
C807   C     0.39894   0.51877   0.99592   0.00000  Uiso   1.00
C808   C     0.43141   0.50854   0.52184   0.00000  Uiso   1.00
H809   H     0.60894   0.46297   0.58376   0.00000  Uiso   1.00
H810   H     0.57546   0.37206   0.70991   0.00000  Uiso   1.00
H811   H     0.42327   0.62668   0.79522   0.00000  Uiso   1.00
H812   H     0.64388   0.45739   0.68489   0.00000  Uiso   1.00
H813   H     0.39478   0.45733   0.68496   0.00000  Uiso   1.00
H814   H     0.35607   0.54244   0.81529   0.00000  Uiso   1.00
H815   H     0.60516   0.54250   0.81524   0.00000  Uiso   1.00
H816   H     0.58941   0.42527   0.91419   0.00000  Uiso   1.00
H817   H     0.48139   0.52406   0.58463   0.00000  Uiso   1.00
H818   H     0.38798   0.52529   0.92009   0.00000  Uiso   1.00
H819   H     0.41951   0.51350   0.56499   0.00000  Uiso   1.00
H820   H     0.36443   0.53215   0.51870   0.00000  Uiso   1.00
H821   H     0.53032   0.43993   0.87347   0.00000  Uiso   1.00
H822   H     0.57656   0.62992   0.70905   0.00000  Uiso   1.00
N823   N     0.38093   0.50001   0.75002   0.00000  Uiso   1.00
N824   N     0.61906   0.49998   0.75001   0.00000  Uiso   1.00
O825   O     0.46179   0.56108   0.75001   0.00000  Uiso   1.00
O826   O     0.53823   0.56107   0.75001   0.00000  Uiso   1.00
O827   O     0.44280   0.50000   0.82681   0.00000  Uiso   1.00
O828   O     0.51924   0.49999   0.82681   0.00000  Uiso   1.00
O829   O     0.46177   0.43893   0.75000   0.00000  Uiso   1.00
O830   O     0.53821   0.43892   0.75000   0.00000  Uiso   1.00
O831   O     0.48076   0.50001   0.67319   0.00000  Uiso   1.00
O832   O     0.55720   0.50000   0.67319   0.00000  Uiso   1.00
Zn833  Zn    0.44896   0.50001   0.75000   0.00000  Uiso   1.00
Zn834  Zn    0.55104   0.49999   0.75000   0.00000  Uiso   1.00
I835   I     0.38676   0.38030   0.82010   0.00000  Uiso   1.00
S836   S     0.64508   0.42734   0.97817   0.00000  Uiso   1.00
O837   O     0.33794   0.44763   0.92456   0.00000  Uiso   1.00
O838   O     0.34387   0.42710   0.51200   0.00000  Uiso   1.00
O839   O     0.63077   0.37798   0.96797   0.00000  Uiso   1.00
H840   H     0.66203   0.36353   0.95301   0.00000  Uiso   1.00
C841   C     0.83342   0.57997   0.75015   0.00000  Uiso   1.00
C842   C     0.81030   0.49131   0.99243   0.00000  Uiso   1.00
C843   C     0.81951   0.47994   0.93822   0.00000  Uiso   1.00
C844   C     0.84708   0.48521   0.51490   0.00000  Uiso   1.00
C845   C     0.88889   0.46166   0.98691   0.00000  Uiso   1.00
C846   C     0.89300   0.44489   0.93634   0.00000  Uiso   1.00
C847   C     0.85897   0.45394   0.91237   0.00000  Uiso   1.00
C848   C     0.84365   0.50318   0.56411   0.00000  Uiso   1.00
C849   C     0.91725   0.47041   0.56307   0.00000  Uiso   1.00
C850   C     0.78932   0.49548   0.91102   0.00000  Uiso   1.00
C851   C     0.87614   0.64581   0.72840   0.00000  Uiso   1.00
C852   C     0.80667   0.49806   0.85209   0.00000  Uiso   1.00
C853   C     0.87540   0.35516   0.72905   0.00000  Uiso   1.00
C854   C     0.83173   0.37574   0.75320   0.00000  Uiso   1.00
C855   C     0.78840   0.35361   0.77772   0.00000  Uiso   1.00
C856   C     0.78959   0.64419   0.77630   0.00000  Uiso   1.00
C857   C     0.83314   0.62399   0.75153   0.00000  Uiso   1.00
C858   C     0.98677   0.47631   0.71383   0.00000  Uiso   1.00
C859   C     0.70138   0.47631   0.71386   0.00000  Uiso   1.00
C860   C     0.67986   0.52358   0.78630   0.00000  Uiso   1.00
C861   C     0.96525   0.52359   0.78627   0.00000  Uiso   1.00
C862   C     0.83259   0.41996   0.75165   0.00000  Uiso   1.00
C863   C     0.85998   0.49974   0.64788   0.00000  Uiso   1.00
C864   C     0.92483   0.45524   0.51090   0.00000  Uiso   1.00
C865   C     0.87598   0.49325   0.58986   0.00000  Uiso   1.00
C866   C     0.74522   0.51384   0.94033   0.00000  Uiso   1.00
C867   C     0.73228   0.51877   0.99592   0.00000  Uiso   1.00
C868   C     0.76474   0.50854   0.52184   0.00000  Uiso   1.00
H869   H     0.94227   0.46297   0.58376   0.00000  Uiso   1.00
H870   H     0.90879   0.37206   0.70991   0.00000  Uiso   1.00
H871   H     0.75661   0.62668   0.79522   0.00000  Uiso   1.00
H872   H     0.97721   0.45739   0.68489   0.00000  Uiso   1.00
H873   H     0.72812   0.45733   0.68496   0.00000  Uiso   1.00
H874   H     0.68940   0.54244   0.81529   0.00000  Uiso   1.00
H875   H     0.93850   0.54250   0.81524   0.00000  Uiso   1.00
H876   H     0.92274   0.42527   0.91419   0.00000  Uiso   1.00
H877   H     0.81472   0.52406   0.58463   0.00000  Uiso   1.00
H878   H     0.72131   0.52529   0.92009   0.00000  Uiso   1.00
H879   H     0.75284   0.51350   0.56499   0.00000  Uiso   1.00
H880   H     0.69777   0.53215   0.51870   0.00000  Uiso   1.00
H881   H     0.86365   0.43993   0.87347   0.00000  Uiso   1.00
H882   H     0.90990   0.62992   0.70905   0.00000  Uiso   1.00
N883   N     0.71426   0.50001   0.75002   0.00000  Uiso   1.00
N884   N     0.95239   0.49998   0.75001   0.00000  Uiso   1.00
O885   O     0.79512   0.56108   0.75001   0.00000  Uiso   1.00
O886   O     0.87157   0.56107   0.75001   0.00000  Uiso   1.00
O887   O     0.77613   0.50000   0.82681   0.00000  Uiso   1.00
O888   O     0.85258   0.49999   0.82681   0.00000  Uiso   1.00
O889   O     0.79510   0.43893   0.75000   0.00000  Uiso   1.00
O890   O     0.87154   0.43892   0.75000   0.00000  Uiso   1.00
O891   O     0.81409   0.50001   0.67319   0.00000  Uiso   1.00
O892   O     0.89053   0.50000   0.67319   0.00000  Uiso   1.00
Zn893  Zn    0.78229   0.50001   0.75000   0.00000  Uiso   1.00
Zn894  Zn    0.88438   0.49999   0.75000   0.00000  Uiso   1.00
I895   I     0.72009   0.38030   0.82010   0.00000  Uiso   1.00
S896   S     0.97842   0.42734   0.97817   0.00000  Uiso   1.00
O897   O     0.67127   0.44763   0.92456   0.00000  Uiso   1.00
O898   O     0.67720   0.42710   0.51200   0.00000  Uiso   1.00
O899   O     0.96410   0.37798   0.96797   0.00000  Uiso   1.00
H900   H     0.99537   0.36353   0.95301   0.00000  Uiso   1.00
C901   C     0.16676   0.91330   0.75015   0.00000  Uiso   1.00
C902   C     0.14363   0.82464   0.99243   0.00000  Uiso   1.00
C903   C     0.15285   0.81327   0.93822   0.00000  Uiso   1.00
C904   C     0.18041   0.81855   0.51490   0.00000  Uiso   1.00
C905   C     0.22222   0.79499   0.98691   0.00000  Uiso   1.00
C906   C     0.22633   0.77822   0.93634   0.00000  Uiso   1.00
C907   C     0.19230   0.78728   0.91237   0.00000  Uiso   1.00
C908   C     0.17699   0.83651   0.56411   0.00000  Uiso   1.00
C909   C     0.25059   0.80374   0.56307   0.00000  Uiso   1.00
C910   C     0.12266   0.82882   0.91102   0.00000  Uiso   1.00
C911   C     0.20947   0.97914   0.72840   0.00000  Uiso   1.00
C912   C     0.14001   0.83139   0.85209   0.00000  Uiso   1.00
C913   C     0.20874   0.68850   0.72905   0.00000  Uiso   1.00
C914   C     0.16507   0.70908   0.75320   0.00000  Uiso   1.00
C915   C     0.12174   0.68694   0.77772   0.00000  Uiso   1.00
C916   C     0.12292   0.97752   0.77630   0.00000  Uiso   1.00
C917   C     0.16647   0.95732   0.75153   0.00000  Uiso   1.00
C918   C     0.32010   0.80965   0.71383   0.00000  Uiso   1.00
C919   C     0.03472   0.80964   0.71386   0.00000  Uiso   1.00
C920   C     0.01319   0.85691   0.78630   0.00000  Uiso   1.00
C921   C     0.29858   0.85692   0.78627   0.00000  Uiso   1.00
C922   C     0.16593   0.75330   0.75165   0.00000  Uiso   1.00
C923   C     0.19331   0.83307   0.64788   0.00000  Uiso   1.00
C924   C     0.25817   0.78858   0.51090   0.00000  Uiso   1.00
C925   C     0.20932   0.82658   0.58986   0.00000  Uiso   1.00
C926   C     0.07856   0.84717   0.94033   0.00000  Uiso   1.00
C927   C     0.06561   0.85210   0.99592   0.00000  Uiso   1.00
C928   C     0.09808   0.84187   0.52184   0.00000  Uiso   1.00
H929   H     0.27560   0.79630   0.58376   0.00000  Uiso   1.00
H930   H     0.24212   0.70539   0.70991   0.00000  Uiso   1.00
H931   H     0.08994   0.96002   0.79522   0.00000  Uiso   1.00
H932   H     0.31054   0.79073   0.68489   0.00000  Uiso   1.00
H933   H     0.06145   0.79066   0.68496   0.00000  Uiso   1.00
H934   H     0.02274   0.87577   0.81529   0.00000  Uiso   1.00
H935   H     0.27183   0.87584   0.81524   0.00000  Uiso   1.00
H936   H     0.25608   0.75861   0.91419   0.00000  Uiso   1.00
H937   H     0.14805   0.85740   0.58463   0.00000  Uiso   1.00
H938   H     0.05464   0.85863   0.92009   0.00000  Uiso   1.00
H939   H     0.08617   0.84683   0.56499   0.00000  Uiso   1.00
H940   H     0.03110   0.86548   0.51870   0.00000  Uiso   1.00
H941   H     0.19699   0.77326   0.87347   0.00000  Uiso   1.00
H942   H     0.24323   0.96325   0.70905   0.00000  Uiso   1.00
N943   N     0.04760   0.83334   0.75002   0.00000  Uiso   1.00
N944   N     0.28573   0.83331   0.75001   0.00000  Uiso   1.00
O945   O     0.12846   0.89442   0.75001   0.00000  Uiso   1.00
O946   O     0.20490   0.89441   0.75001   0.00000  Uiso   1.00
O947   O     0.10947   0.83333   0.82681   0.00000  Uiso   1.00
O948   O     0.18591   0.83332   0.82681   0.00000  Uiso   1.00
O949   O     0.12843   0.77226   0.75000   0.00000  Uiso   1.00
O950   O     0.20488   0.77225   0.75000   0.00000  Uiso   1.00
O951   O     0.14742   0.83335   0.67319   0.00000  Uiso   1.00
O952   O     0.22387   0.83334   0.67319   0.00000  Uiso   1.00
Zn953  Zn    0.11562   0.83334   0.75000   0.00000  Uiso   1.00
Zn954  Zn    0.21771   0.83333   0.75000   0.00000  Uiso   1.00
I955   I     0.05342   0.71363   0.82010   0.00000  Uiso   1.00
S956   S     0.31175   0.76067   0.97817   0.00000  Uiso   1.00
O957   O     0.00460   0.78096   0.92456   0.00000  Uiso   1.00
O958   O     0.01053   0.76043   0.51200   0.00000  Uiso   1.00
O959   O     0.29744   0.71132   0.96797   0.00000  Uiso   1.00
H960   H     0.32870   0.69686   0.95301   0.00000  Uiso   1.00
C961   C     0.50009   0.91330   0.75015   0.00000  Uiso   1.00
C962   C     0.47696   0.82464   0.99243   0.00000  Uiso   1.00
C963   C     0.48618   0.81327   0.93822   0.00000  Uiso   1.00
C964   C     0.51374   0.81855   0.51490   0.00000  Uiso   1.00
C965   C     0.55556   0.79499   0.98691   0.00000  Uiso   1.00
C966   C     0.55967   0.77822   0.93634   0.00000  Uiso   1.00
C967   C     0.52563   0.78728   0.91237   0.00000  Uiso   1.00
C968   C     0.51032   0.83651   0.56411   0.00000  Uiso   1.00
C969   C     0.58392   0.80374   0.56307   0.00000  Uiso   1.00
C970   C     0.45599   0.82882   0.91102   0.00000  Uiso   1.00
C971   C     0.54281   0.97914   0.72840   0.00000  Uiso   1.00
C972   C     0.47334   0.83139   0.85209   0.00000  Uiso   1.00
C973   C     0.54207   0.68850   0.72905   0.00000  Uiso   1.00
C974   C     0.49840   0.70908   0.75320   0.00000  Uiso   1.00
C975   C     0.45507   0.68694   0.77772   0.00000  Uiso   1.00
C976   C     0.45625   0.97752   0.77630   0.00000  Uiso   1.00
C977   C     0.49980   0.95732   0.75153   0.00000  Uiso   1.00
C978   C     0.65344   0.80965   0.71383   0.00000  Uiso   1.00
C979   C     0.36805   0.80964   0.71386   0.00000  Uiso   1.00
C980   C     0.34652   0.85691   0.78630   0.00000  Uiso   1.00
C981   C     0.63191   0.85692   0.78627   0.00000  Uiso   1.00
C982   C     0.49926   0.75330   0.75165   0.00000  Uiso   1.00
C983   C     0.52664   0.83307   0.64788   0.00000  Uiso   1.00
C984   C     0.59150   0.78858   0.51090   0.00000  Uiso   1.00
C985   C     0.54265   0.82658   0.58986   0.00000  Uiso   1.00
C986   C     0.41189   0.84717   0.94033   0.00000  Uiso   1.00
C987   C     0.39894   0.85210   0.99592   0.00000  Uiso   1.00
C988   C     0.43141   0.84187   0.52184   0.00000  Uiso   1.00
H989   H     0.60894   0.79630   0.58376   0.00000  Uiso   1.00
H990   H     0.57546   0.70539   0.70991   0.00000  Uiso   1.00
H991   H     0.42327   0.96002   0.79522   0.00000  Uiso   1.00
H992   H     0.64388   0.79073   0.68489   0.00000  Uiso   1.00
H993   H     0.39478   0.79066   0.68496   0.00000  Uiso   1.00
H994   H     0.35607   0.87577   0.81529   0.00000  Uiso   1.00
H995   H     0.60516   0.87584   0.81524   0.00000  Uiso   1.00
H996   H     0.58941   0.75861   0.91419   0.00000  Uiso   1.00
H997   H     0.48139   0.85740   0.58463   0.00000  Uiso   1.00
H998   H     0.38798   0.85863   0.92009   0.00000  Uiso   1.00
H999   H     0.41951   0.84683   0.56499   0.00000  Uiso   1.00
H1000  H     0.36443   0.86548   0.51870   0.00000  Uiso   1.00
H1001  H     0.53032   0.77326   0.87347   0.00000  Uiso   1.00
H1002  H     0.57656   0.96325   0.70905   0.00000  Uiso   1.00
N1003  N     0.38093   0.83334   0.75002   0.00000  Uiso   1.00
N1004  N     0.61906   0.83331   0.75001   0.00000  Uiso   1.00
O1005  O     0.46179   0.89442   0.75001   0.00000  Uiso   1.00
O1006  O     0.53823   0.89441   0.75001   0.00000  Uiso   1.00
O1007  O     0.44280   0.83333   0.82681   0.00000  Uiso   1.00
O1008  O     0.51924   0.83332   0.82681   0.00000  Uiso   1.00
O1009  O     0.46177   0.77226   0.75000   0.00000  Uiso   1.00
O1010  O     0.53821   0.77225   0.75000   0.00000  Uiso   1.00
O1011  O     0.48076   0.83335   0.67319   0.00000  Uiso   1.00
O1012  O     0.55720   0.83334   0.67319   0.00000  Uiso   1.00
Zn1013 Zn    0.44896   0.83334   0.75000   0.00000  Uiso   1.00
Zn1014 Zn    0.55104   0.83333   0.75000   0.00000  Uiso   1.00
I1015  I     0.38676   0.71363   0.82010   0.00000  Uiso   1.00
S1016  S     0.64508   0.76067   0.97817   0.00000  Uiso   1.00
O1017  O     0.33794   0.78096   0.92456   0.00000  Uiso   1.00
O1018  O     0.34387   0.76043   0.51200   0.00000  Uiso   1.00
O1019  O     0.63077   0.71132   0.96797   0.00000  Uiso   1.00
H1020  H     0.66203   0.69686   0.95301   0.00000  Uiso   1.00
C1021  C     0.83342   0.91330   0.75015   0.00000  Uiso   1.00
C1022  C     0.81030   0.82464   0.99243   0.00000  Uiso   1.00
C1023  C     0.81951   0.81327   0.93822   0.00000  Uiso   1.00
C1024  C     0.84708   0.81855   0.51490   0.00000  Uiso   1.00
C1025  C     0.88889   0.79499   0.98691   0.00000  Uiso   1.00
C1026  C     0.89300   0.77822   0.93634   0.00000  Uiso   1.00
C1027  C     0.85897   0.78728   0.91237   0.00000  Uiso   1.00
C1028  C     0.84365   0.83651   0.56411   0.00000  Uiso   1.00
C1029  C     0.91725   0.80374   0.56307   0.00000  Uiso   1.00
C1030  C     0.78932   0.82882   0.91102   0.00000  Uiso   1.00
C1031  C     0.87614   0.97914   0.72840   0.00000  Uiso   1.00
C1032  C     0.80667   0.83139   0.85209   0.00000  Uiso   1.00
C1033  C     0.87540   0.68850   0.72905   0.00000  Uiso   1.00
C1034  C     0.83173   0.70908   0.75320   0.00000  Uiso   1.00
C1035  C     0.78840   0.68694   0.77772   0.00000  Uiso   1.00
C1036  C     0.78959   0.97752   0.77630   0.00000  Uiso   1.00
C1037  C     0.83314   0.95732   0.75153   0.00000  Uiso   1.00
C1038  C     0.98677   0.80965   0.71383   0.00000  Uiso   1.00
C1039  C     0.70138   0.80964   0.71386   0.00000  Uiso   1.00
C1040  C     0.67986   0.85691   0.78630   0.00000  Uiso   1.00
C1041  C     0.96525   0.85692   0.78627   0.00000  Uiso   1.00
C1042  C     0.83259   0.75330   0.75165   0.00000  Uiso   1.00
C1043  C     0.85998   0.83307   0.64788   0.00000  Uiso   1.00
C1044  C     0.92483   0.78858   0.51090   0.00000  Uiso   1.00
C1045  C     0.87598   0.82658   0.58986   0.00000  Uiso   1.00
C1046  C     0.74522   0.84717   0.94033   0.00000  Uiso   1.00
C1047  C     0.73228   0.85210   0.99592   0.00000  Uiso   1.00
C1048  C     0.76474   0.84187   0.52184   0.00000  Uiso   1.00
H1049  H     0.94227   0.79630   0.58376   0.00000  Uiso   1.00
H1050  H     0.90879   0.70539   0.70991   0.00000  Uiso   1.00
H1051  H     0.75661   0.96002   0.79522   0.00000  Uiso   1.00
H1052  H     0.97721   0.79073   0.68489   0.00000  Uiso   1.00
H1053  H     0.72812   0.79066   0.68496   0.00000  Uiso   1.00
H1054  H     0.68940   0.87577   0.81529   0.00000  Uiso   1.00
H1055  H     0.93850   0.87584   0.81524   0.00000  Uiso   1.00
H1056  H     0.92274   0.75861   0.91419   0.00000  Uiso   1.00
H1057  H     0.81472   0.85740   0.58463   0.00000  Uiso   1.00
H1058  H     0.72131   0.85863   0.92009   0.00000  Uiso   1.00
H1059  H     0.75284   0.84683   0.56499   0.00000  Uiso   1.00
H1060  H     0.69777   0.86548   0.51870   0.00000  Uiso   1.00
H1061  H     0.86365   0.77326   0.87347   0.00000  Uiso   1.00
H1062  H     0.90990   0.96325   0.70905   0.00000  Uiso   1.00
N1063  N     0.71426   0.83334   0.75002   0.00000  Uiso   1.00
N1064  N     0.95239   0.83331   0.75001   0.00000  Uiso   1.00
O1065  O     0.79512   0.89442   0.75001   0.00000  Uiso   1.00
O1066  O     0.87157   0.89441   0.75001   0.00000  Uiso   1.00
O1067  O     0.77613   0.83333   0.82681   0.00000  Uiso   1.00
O1068  O     0.85258   0.83332   0.82681   0.00000  Uiso   1.00
O1069  O     0.79510   0.77226   0.75000   0.00000  Uiso   1.00
O1070  O     0.87154   0.77225   0.75000   0.00000  Uiso   1.00
O1071  O     0.81409   0.83335   0.67319   0.00000  Uiso   1.00
O1072  O     0.89053   0.83334   0.67319   0.00000  Uiso   1.00
Zn1073 Zn    0.78229   0.83334   0.75000   0.00000  Uiso   1.00
Zn1074 Zn    0.88438   0.83333   0.75000   0.00000  Uiso   1.00
I1075  I     0.72009   0.71363   0.82010   0.00000  Uiso   1.00
S1076  S     0.97842   0.76067   0.97817   0.00000  Uiso   1.00
O1077  O     0.67127   0.78096   0.92456   0.00000  Uiso   1.00
O1078  O     0.67720   0.76043   0.51200   0.00000  Uiso   1.00
O1079  O     0.96410   0.71132   0.96797   0.00000  Uiso   1.00
H1080  H     0.99537   0.69686   0.95301   0.00000  Uiso   1.00
loop_
_geom_bond_atom_site_label_1
_geom_bond_atom_site_label_2
_geom_bond_distance
_geom_bond_site_symmetry_2
_ccdc_geom_bond_type
C1     C17     1.413   .     S
C1     O45     1.281   .     A
C1     O46     1.281   .     A
C2     C3      1.405   .     A
C2     C544    1.416   .     S
C2     C568    1.420   .     S
C3     C10     1.411   .     A
C3     C7      1.411   .     A
C4     C8      1.388   .     A
C4     C542    1.416   1_554 S
C4     C545    1.426   1_554 S
C5     C6      1.400   .     A
C5     C544    1.426   .     S
C5     C564    1.422   .     S
C6     C7      1.387   .     A
C6     H36     1.080   .     S
C7     H41     1.082   .     S
C8     C25     1.383   .     A
C8     H37     1.079   .     S
C9     C24     1.400   .     A
C9     H29     1.083   .     S
C9     C25     1.395   .     A
C10    C26     1.402   .     A
C10    C12     1.458   .     S
C11    H42     1.084   .     S
C11    C17     1.392   .     A
C11    C193    1.370   .     S
C12    O48     1.292   .     A
C12    O47     1.290   .     A
C13    H30     1.084   .     S
C13    C14     1.399   .     A
C13    C371    1.370   1_545 S
C14    C22     1.419   .     S
C14    C15     1.409   .     A
C15    I55     2.131   .     S
C15    C376    1.373   1_545 S
C16    H31     1.084   .     S
C16    C17     1.393   .     A
C16    C195    1.373   .     S
C18    N44     1.366   .     A
C18    H32     1.082   .     S
C18    C79     1.416   .     S
C19    H33     1.082   .     S
C19    N43     1.367   .     A
C19    C138    1.416   1_455 S
C20    H34     1.082   .     S
C20    N43     1.366   .     A
C20    C141    1.416   1_455 S
C21    H35     1.082   .     S
C21    N44     1.367   .     A
C21    C80     1.416   .     S
C22    O50     1.286   .     A
C22    O49     1.280   .     A
C23    O52     1.290   .     A
C23    C25     1.450   .     S
C23    O51     1.291   .     A
C24    C545    1.422   1_554 S
C24    S596    1.772   1_554 S
C26    C27     1.388   .     A
C26    H38     1.083   .     S
C27    C568    1.392   .     S
C27    H580    1.083   .     S
C28    H39     1.079   .     S
C28    C567    1.392   1_554 S
C28    C542    1.420   1_554 S
H40    C567    1.083   1_554 S
N43    Zn53    2.009   .     S
N44    Zn54    2.009   .     S
O45    Zn53    1.994   .     S
O46    Zn54    1.998   .     S
O47    Zn53    1.963   .     S
O48    Zn54    1.915   .     S
O49    Zn53    1.998   .     S
O50    Zn54    1.994   .     S
O51    Zn53    1.915   .     S
O52    Zn54    1.963   .     S
S56    O59     1.682   .     S
S56    C564    1.772   .     S
S56    O117    1.502   .     S
S56    O658    1.504   .     S
O57    S176    1.502   1_455 S
O58    S716    1.504   1_454 S
O59    H60     0.991   .     S
C61    C77     1.413   .     S
C61    O105    1.281   .     A
C61    O106    1.281   .     A
C62    C63     1.405   .     A
C62    C604    1.416   .     S
C62    C628    1.420   .     S
C63    C70     1.411   .     A
C63    C67     1.411   .     A
C64    C68     1.388   .     A
C64    C602    1.416   1_554 S
C64    C605    1.426   1_554 S
C65    C66     1.400   .     A
C65    C604    1.426   .     S
C65    C624    1.422   .     S
C66    C67     1.387   .     A
C66    H96     1.080   .     S
C67    H101    1.082   .     S
C68    C85     1.383   .     A
C68    H97     1.079   .     S
C69    C84     1.400   .     A
C69    H89     1.083   .     S
C69    C85     1.395   .     A
C70    C86     1.402   .     A
C70    C72     1.458   .     S
C71    H102    1.084   .     S
C71    C77     1.392   .     A
C71    C253    1.370   .     S
C72    O108    1.292   .     A
C72    O107    1.290   .     A
C73    H90     1.084   .     S
C73    C74     1.399   .     A
C73    C431    1.370   1_545 S
C74    C82     1.419   .     S
C74    C75     1.409   .     A
C75    I115    2.131   .     S
C75    C436    1.373   1_545 S
C76    H91     1.084   .     S
C76    C77     1.393   .     A
C76    C255    1.373   .     S
C78    N104    1.366   .     A
C78    H92     1.082   .     S
C78    C139    1.416   .     S
C79    H93     1.082   .     S
C79    N103    1.367   .     A
C80    H94     1.082   .     S
C80    N103    1.366   .     A
C81    H95     1.082   .     S
C81    N104    1.367   .     A
C81    C140    1.416   .     S
C82    O110    1.286   .     A
C82    O109    1.280   .     A
C83    O112    1.290   .     A
C83    C85     1.450   .     S
C83    O111    1.291   .     A
C84    C605    1.422   1_554 S
C84    S656    1.772   1_554 S
C86    C87     1.388   .     A
C86    H98     1.083   .     S
C87    C628    1.392   .     S
C87    H640    1.083   .     S
C88    H99     1.079   .     S
C88    C627    1.392   1_554 S
C88    C602    1.420   1_554 S
H100   C627    1.083   1_554 S
N103   Zn113   2.009   .     S
N104   Zn114   2.009   .     S
O105   Zn113   1.994   .     S
O106   Zn114   1.998   .     S
O107   Zn113   1.963   .     S
O108   Zn114   1.915   .     S
O109   Zn113   1.998   .     S
O110   Zn114   1.994   .     S
O111   Zn113   1.915   .     S
O112   Zn114   1.963   .     S
S116   O119    1.682   .     S
S116   C624    1.772   .     S
S116   O177    1.502   .     S
S116   O718    1.504   .     S
O118   S596    1.504   1_554 S
O119   H120    0.991   .     S
C121   C137    1.413   .     S
C121   O165    1.281   .     A
C121   O166    1.281   .     A
C122   C123    1.405   .     A
C122   C664    1.416   .     S
C122   C688    1.420   .     S
C123   C130    1.411   .     A
C123   C127    1.411   .     A
C124   C128    1.388   .     A
C124   C662    1.416   1_554 S
C124   C665    1.426   1_554 S
C125   C126    1.400   .     A
C125   C664    1.426   .     S
C125   C684    1.422   .     S
C126   C127    1.387   .     A
C126   H156    1.080   .     S
C127   H161    1.082   .     S
C128   C145    1.383   .     A
C128   H157    1.079   .     S
C129   C144    1.400   .     A
C129   H149    1.083   .     S
C129   C145    1.395   .     A
C130   C146    1.402   .     A
C130   C132    1.458   .     S
C131   H162    1.084   .     S
C131   C137    1.392   .     A
C131   C313    1.370   .     S
C132   O168    1.292   .     A
C132   O167    1.290   .     A
C133   H150    1.084   .     S
C133   C134    1.399   .     A
C133   C491    1.370   1_545 S
C134   C142    1.419   .     S
C134   C135    1.409   .     A
C135   I175    2.131   .     S
C135   C496    1.373   1_545 S
C136   H151    1.084   .     S
C136   C137    1.393   .     A
C136   C315    1.373   .     S
C138   N164    1.366   .     A
C138   H152    1.082   .     S
C138   C19     1.416   1_655 S
C139   H153    1.082   .     S
C139   N163    1.367   .     A
C140   H154    1.082   .     S
C140   N163    1.366   .     A
C141   H155    1.082   .     S
C141   N164    1.367   .     A
C141   C20     1.416   1_655 S
C142   O170    1.286   .     A
C142   O169    1.280   .     A
C143   O172    1.290   .     A
C143   C145    1.450   .     S
C143   O171    1.291   .     A
C144   C665    1.422   1_554 S
C144   S716    1.772   1_554 S
C146   C147    1.388   .     A
C146   H158    1.083   .     S
C147   C688    1.392   .     S
C147   H700    1.083   .     S
C148   H159    1.079   .     S
C148   C687    1.392   1_554 S
C148   C662    1.420   1_554 S
H160   C687    1.083   1_554 S
N163   Zn173   2.009   .     S
N164   Zn174   2.009   .     S
O165   Zn173   1.994   .     S
O166   Zn174   1.998   .     S
O167   Zn173   1.963   .     S
O168   Zn174   1.915   .     S
O169   Zn173   1.998   .     S
O170   Zn174   1.994   .     S
O171   Zn173   1.915   .     S
O172   Zn174   1.963   .     S
S176   O179    1.682   .     S
S176   C684    1.772   .     S
S176   O57     1.502   1_655 S
S176   O598    1.504   1_655 S
O178   S656    1.504   1_554 S
O179   H180    0.991   .     S
C181   C197    1.413   .     S
C181   O225    1.281   .     A
C181   O226    1.281   .     A
C182   C183    1.405   .     A
C182   C724    1.416   .     S
C182   C748    1.420   .     S
C183   C190    1.411   .     A
C183   C187    1.411   .     A
C184   C188    1.388   .     A
C184   C722    1.416   1_554 S
C184   C725    1.426   1_554 S
C185   C186    1.400   .     A
C185   C724    1.426   .     S
C185   C744    1.422   .     S
C186   C187    1.387   .     A
C186   H216    1.080   .     S
C187   H221    1.082   .     S
C188   C205    1.383   .     A
C188   H217    1.079   .     S
C189   C204    1.400   .     A
C189   H209    1.083   .     S
C189   C205    1.395   .     A
C190   C206    1.402   .     A
C190   C192    1.458   .     S
C191   H222    1.084   .     S
C191   C197    1.392   .     A
C191   C373    1.370   .     S
C192   O228    1.292   .     A
C192   O227    1.290   .     A
C193   H210    1.084   .     S
C193   C194    1.399   .     A
C194   C202    1.419   .     S
C194   C195    1.409   .     A
C195   I235    2.131   .     S
C196   H211    1.084   .     S
C196   C197    1.393   .     A
C196   C375    1.373   .     S
C198   N224    1.366   .     A
C198   H212    1.082   .     S
C198   C259    1.416   .     S
C199   H213    1.082   .     S
C199   N223    1.367   .     A
C199   C318    1.416   1_455 S
C200   H214    1.082   .     S
C200   N223    1.366   .     A
C200   C321    1.416   1_455 S
C201   H215    1.082   .     S
C201   N224    1.367   .     A
C201   C260    1.416   .     S
C202   O230    1.286   .     A
C202   O229    1.280   .     A
C203   O232    1.290   .     A
C203   C205    1.450   .     S
C203   O231    1.291   .     A
C204   C725    1.422   1_554 S
C204   S776    1.772   1_554 S
C206   C207    1.388   .     A
C206   H218    1.083   .     S
C207   C748    1.392   .     S
C207   H760    1.083   .     S
C208   H219    1.079   .     S
C208   C747    1.392   1_554 S
C208   C722    1.420   1_554 S
H220   C747    1.083   1_554 S
N223   Zn233   2.009   .     S
N224   Zn234   2.009   .     S
O225   Zn233   1.994   .     S
O226   Zn234   1.998   .     S
O227   Zn233   1.963   .     S
O228   Zn234   1.915   .     S
O229   Zn233   1.998   .     S
O230   Zn234   1.994   .     S
O231   Zn233   1.915   .     S
O232   Zn234   1.963   .     S
S236   O239    1.682   .     S
S236   C744    1.772   .     S
S236   O297    1.502   .     S
S236   O838    1.504   .     S
O237   S356    1.502   1_455 S
O238   S896    1.504   1_454 S
O239   H240    0.991   .     S
C241   C257    1.413   .     S
C241   O285    1.281   .     A
C241   O286    1.281   .     A
C242   C243    1.405   .     A
C242   C784    1.416   .     S
C242   C808    1.420   .     S
C243   C250    1.411   .     A
C243   C247    1.411   .     A
C244   C248    1.388   .     A
C244   C782    1.416   1_554 S
C244   C785    1.426   1_554 S
C245   C246    1.400   .     A
C245   C784    1.426   .     S
C245   C804    1.422   .     S
C246   C247    1.387   .     A
C246   H276    1.080   .     S
C247   H281    1.082   .     S
C248   C265    1.383   .     A
C248   H277    1.079   .     S
C249   C264    1.400   .     A
C249   H269    1.083   .     S
C249   C265    1.395   .     A
C250   C266    1.402   .     A
C250   C252    1.458   .     S
C251   H282    1.084   .     S
C251   C257    1.392   .     A
C251   C433    1.370   .     S
C252   O288    1.292   .     A
C252   O287    1.290   .     A
C253   H270    1.084   .     S
C253   C254    1.399   .     A
C254   C262    1.419   .     S
C254   C255    1.409   .     A
C255   I295    2.131   .     S
C256   H271    1.084   .     S
C256   C257    1.393   .     A
C256   C435    1.373   .     S
C258   N284    1.366   .     A
C258   H272    1.082   .     S
C258   C319    1.416   .     S
C259   H273    1.082   .     S
C259   N283    1.367   .     A
C260   H274    1.082   .     S
C260   N283    1.366   .     A
C261   H275    1.082   .     S
C261   N284    1.367   .     A
C261   C320    1.416   .     S
C262   O290    1.286   .     A
C262   O289    1.280   .     A
C263   O292    1.290   .     A
C263   C265    1.450   .     S
C263   O291    1.291   .     A
C264   C785    1.422   1_554 S
C264   S836    1.772   1_554 S
C266   C267    1.388   .     A
C266   H278    1.083   .     S
C267   C808    1.392   .     S
C267   H820    1.083   .     S
C268   H279    1.079   .     S
C268   C807    1.392   1_554 S
C268   C782    1.420   1_554 S
H280   C807    1.083   1_554 S
N283   Zn293   2.009   .     S
N284   Zn294   2.009   .     S
O285   Zn293   1.994   .     S
O286   Zn294   1.998   .     S
O287   Zn293   1.963   .     S
O288   Zn294   1.915   .     S
O289   Zn293   1.998   .     S
O290   Zn294   1.994   .     S
O291   Zn293   1.915   .     S
O292   Zn294   1.963   .     S
S296   O299    1.682   .     S
S296   C804    1.772   .     S
S296   O357    1.502   .     S
S296   O898    1.504   .     S
O298   S776    1.504   1_554 S
O299   H300    0.991   .     S
C301   C317    1.413   .     S
C301   O345    1.281   .     A
C301   O346    1.281   .     A
C302   C303    1.405   .     A
C302   C844    1.416   .     S
C302   C868    1.420   .     S
C303   C310    1.411   .     A
C303   C307    1.411   .     A
C304   C308    1.388   .     A
C304   C842    1.416   1_554 S
C304   C845    1.426   1_554 S
C305   C306    1.400   .     A
C305   C844    1.426   .     S
C305   C864    1.422   .     S
C306   C307    1.387   .     A
C306   H336    1.080   .     S
C307   H341    1.082   .     S
C308   C325    1.383   .     A
C308   H337    1.079   .     S
C309   C324    1.400   .     A
C309   H329    1.083   .     S
C309   C325    1.395   .     A
C310   C326    1.402   .     A
C310   C312    1.458   .     S
C311   H342    1.084   .     S
C311   C317    1.392   .     A
C311   C493    1.370   .     S
C312   O348    1.292   .     A
C312   O347    1.290   .     A
C313   H330    1.084   .     S
C313   C314    1.399   .     A
C314   C322    1.419   .     S
C314   C315    1.409   .     A
C315   I355    2.131   .     S
C316   H331    1.084   .     S
C316   C317    1.393   .     A
C316   C495    1.373   .     S
C318   N344    1.366   .     A
C318   H332    1.082   .     S
C318   C199    1.416   1_655 S
C319   H333    1.082   .     S
C319   N343    1.367   .     A
C320   H334    1.082   .     S
C320   N343    1.366   .     A
C321   H335    1.082   .     S
C321   N344    1.367   .     A
C321   C200    1.416   1_655 S
C322   O350    1.286   .     A
C322   O349    1.280   .     A
C323   O352    1.290   .     A
C323   C325    1.450   .     S
C323   O351    1.291   .     A
C324   C845    1.422   1_554 S
C324   S896    1.772   1_554 S
C326   C327    1.388   .     A
C326   H338    1.083   .     S
C327   C868    1.392   .     S
C327   H880    1.083   .     S
C328   H339    1.079   .     S
C328   C867    1.392   1_554 S
C328   C842    1.420   1_554 S
H340   C867    1.083   1_554 S
N343   Zn353   2.009   .     S
N344   Zn354   2.009   .     S
O345   Zn353   1.994   .     S
O346   Zn354   1.998   .     S
O347   Zn353   1.963   .     S
O348   Zn354   1.915   .     S
O349   Zn353   1.998   .     S
O350   Zn354   1.994   .     S
O351   Zn353   1.915   .     S
O352   Zn354   1.963   .     S
S356   O359    1.682   .     S
S356   C864    1.772   .     S
S356   O237    1.502   1_655 S
S356   O778    1.504   1_655 S
O358   S836    1.504   1_554 S
O359   H360    0.991   .     S
C361   C377    1.413   .     S
C361   O405    1.281   .     A
C361   O406    1.281   .     A
C362   C363    1.405   .     A
C362   C904    1.416   .     S
C362   C928    1.420   .     S
C363   C370    1.411   .     A
C363   C367    1.411   .     A
C364   C368    1.388   .     A
C364   C902    1.416   1_554 S
C364   C905    1.426   1_554 S
C365   C366    1.400   .     A
C365   C904    1.426   .     S
C365   C924    1.422   .     S
C366   C367    1.387   .     A
C366   H396    1.080   .     S
C367   H401    1.082   .     S
C368   C385    1.383   .     A
C368   H397    1.079   .     S
C369   C384    1.400   .     A
C369   H389    1.083   .     S
C369   C385    1.395   .     A
C370   C386    1.402   .     A
C370   C372    1.458   .     S
C371   H402    1.084   .     S
C371   C377    1.392   .     A
C371   C13     1.370   1_565 S
C372   O408    1.292   .     A
C372   O407    1.290   .     A
C373   H390    1.084   .     S
C373   C374    1.399   .     A
C374   C382    1.419   .     S
C374   C375    1.409   .     A
C375   I415    2.131   .     S
C376   H391    1.084   .     S
C376   C377    1.393   .     A
C376   C15     1.373   1_565 S
C378   N404    1.366   .     A
C378   H392    1.082   .     S
C378   C439    1.416   .     S
C379   H393    1.082   .     S
C379   N403    1.367   .     A
C379   C498    1.416   1_455 S
C380   H394    1.082   .     S
C380   N403    1.366   .     A
C380   C501    1.416   1_455 S
C381   H395    1.082   .     S
C381   N404    1.367   .     A
C381   C440    1.416   .     S
C382   O410    1.286   .     A
C382   O409    1.280   .     A
C383   O412    1.290   .     A
C383   C385    1.450   .     S
C383   O411    1.291   .     A
C384   C905    1.422   1_554 S
C384   S956    1.772   1_554 S
C386   C387    1.388   .     A
C386   H398    1.083   .     S
C387   C928    1.392   .     S
C387   H940    1.083   .     S
C388   H399    1.079   .     S
C388   C927    1.392   1_554 S
C388   C902    1.420   1_554 S
H400   C927    1.083   1_554 S
N403   Zn413   2.009   .     S
N404   Zn414   2.009   .     S
O405   Zn413   1.994   .     S
O406   Zn414   1.998   .     S
O407   Zn413   1.963   .     S
O408   Zn414   1.915   .     S
O409   Zn413   1.998   .     S
O410   Zn414   1.994   .     S
O411   Zn413   1.915   .     S
O412   Zn414   1.963   .     S
S416   O419    1.682   .     S
S416   C924    1.772   .     S
S416   O477    1.502   .     S
S416   O1018   1.504   .     S
O417   S536    1.502   1_455 S
O418   S1076   1.504   1_454 S
O419   H420    0.991   .     S
C421   C437    1.413   .     S
C421   O465    1.281   .     A
C421   O466    1.281   .     A
C422   C423    1.405   .     A
C422   C964    1.416   .     S
C422   C988    1.420   .     S
C423   C430    1.411   .     A
C423   C427    1.411   .     A
C424   C428    1.388   .     A
C424   C962    1.416   1_554 S
C424   C965    1.426   1_554 S
C425   C426    1.400   .     A
C425   C964    1.426   .     S
C425   C984    1.422   .     S
C426   C427    1.387   .     A
C426   H456    1.080   .     S
C427   H461    1.082   .     S
C428   C445    1.383   .     A
C428   H457    1.079   .     S
C429   C444    1.400   .     A
C429   H449    1.083   .     S
C429   C445    1.395   .     A
C430   C446    1.402   .     A
C430   C432    1.458   .     S
C431   H462    1.084   .     S
C431   C437    1.392   .     A
C431   C73     1.370   1_565 S
C432   O468    1.292   .     A
C432   O467    1.290   .     A
C433   H450    1.084   .     S
C433   C434    1.399   .     A
C434   C442    1.419   .     S
C434   C435    1.409   .     A
C435   I475    2.131   .     S
C436   H451    1.084   .     S
C436   C437    1.393   .     A
C436   C75     1.373   1_565 S
C438   N464    1.366   .     A
C438   H452    1.082   .     S
C438   C499    1.416   .     S
C439   H453    1.082   .     S
C439   N463    1.367   .     A
C440   H454    1.082   .     S
C440   N463    1.366   .     A
C441   H455    1.082   .     S
C441   N464    1.367   .     A
C441   C500    1.416   .     S
C442   O470    1.286   .     A
C442   O469    1.280   .     A
C443   O472    1.290   .     A
C443   C445    1.450   .     S
C443   O471    1.291   .     A
C444   C965    1.422   1_554 S
C444   S1016   1.772   1_554 S
C446   C447    1.388   .     A
C446   H458    1.083   .     S
C447   C988    1.392   .     S
C447   H1000   1.083   .     S
C448   H459    1.079   .     S
C448   C987    1.392   1_554 S
C448   C962    1.420   1_554 S
H460   C987    1.083   1_554 S
N463   Zn473   2.009   .     S
N464   Zn474   2.009   .     S
O465   Zn473   1.994   .     S
O466   Zn474   1.998   .     S
O467   Zn473   1.963   .     S
O468   Zn474   1.915   .     S
O469   Zn473   1.998   .     S
O470   Zn474   1.994   .     S
O471   Zn473   1.915   .     S
O472   Zn474   1.963   .     S
S476   O479    1.682   .     S
S476   C984    1.772   .     S
S476   O537    1.502   .     S
S476   O1078   1.504   .     S
O478   S956    1.504   1_554 S
O479   H480    0.991   .     S
C481   C497    1.413   .     S
C481   O525    1.281   .     A
C481   O526    1.281   .     A
C482   C483    1.405   .     A
C482   C1024   1.416   .     S
C482   C1048   1.420   .     S
C483   C490    1.411   .     A
C483   C487    1.411   .     A
C484   C488    1.388   .     A
C484   C1022   1.416   1_554 S
C484   C1025   1.426   1_554 S
C485   C486    1.400   .     A
C485   C1024   1.426   .     S
C485   C1044   1.422   .     S
C486   C487    1.387   .     A
C486   H516    1.080   .     S
C487   H521    1.082   .     S
C488   C505    1.383   .     A
C488   H517    1.079   .     S
C489   C504    1.400   .     A
C489   H509    1.083   .     S
C489   C505    1.395   .     A
C490   C506    1.402   .     A
C490   C492    1.458   .     S
C491   H522    1.084   .     S
C491   C497    1.392   .     A
C491   C133    1.370   1_565 S
C492   O528    1.292   .     A
C492   O527    1.290   .     A
C493   H510    1.084   .     S
C493   C494    1.399   .     A
C494   C502    1.419   .     S
C494   C495    1.409   .     A
C495   I535    2.131   .     S
C496   H511    1.084   .     S
C496   C497    1.393   .     A
C496   C135    1.373   1_565 S
C498   N524    1.366   .     A
C498   H512    1.082   .     S
C498   C379    1.416   1_655 S
C499   H513    1.082   .     S
C499   N523    1.367   .     A
C500   H514    1.082   .     S
C500   N523    1.366   .     A
C501   H515    1.082   .     S
C501   N524    1.367   .     A
C501   C380    1.416   1_655 S
C502   O530    1.286   .     A
C502   O529    1.280   .     A
C503   O532    1.290   .     A
C503   C505    1.450   .     S
C503   O531    1.291   .     A
C504   C1025   1.422   1_554 S
C504   S1076   1.772   1_554 S
C506   C507    1.388   .     A
C506   H518    1.083   .     S
C507   C1048   1.392   .     S
C507   H1060   1.083   .     S
C508   H519    1.079   .     S
C508   C1047   1.392   1_554 S
C508   C1022   1.420   1_554 S
H520   C1047   1.083   1_554 S
N523   Zn533   2.009   .     S
N524   Zn534   2.009   .     S
O525   Zn533   1.994   .     S
O526   Zn534   1.998   .     S
O527   Zn533   1.963   .     S
O528   Zn534   1.915   .     S
O529   Zn533   1.998   .     S
O530   Zn534   1.994   .     S
O531   Zn533   1.915   .     S
O532   Zn534   1.963   .     S
S536   O539    1.682   .     S
S536   C1044   1.772   .     S
S536   O417    1.502   1_655 S
S536   O958    1.504   1_655 S
O538   S1016   1.504   1_554 S
O539   H540    0.991   .     S
C541   C557    1.413   .     S
C541   O585    1.281   .     A
C541   O586    1.281   .     A
C542   C543    1.405   .     A
C542   C4      1.416   1_556 S
C542   C28     1.420   1_556 S
C543   C550    1.411   .     A
C543   C547    1.411   .     A
C544   C548    1.388   .     A
C545   C546    1.400   .     A
C545   C4      1.426   1_556 S
C545   C24     1.422   1_556 S
C546   C547    1.387   .     A
C546   H576    1.080   .     S
C547   H581    1.082   .     S
C548   C565    1.383   .     A
C548   H577    1.079   .     S
C549   C564    1.400   .     A
C549   H569    1.083   .     S
C549   C565    1.395   .     A
C550   C566    1.402   .     A
C550   C552    1.458   .     S
C551   H582    1.084   .     S
C551   C557    1.392   .     A
C551   C733    1.370   .     S
C552   O588    1.292   .     A
C552   O587    1.290   .     A
C553   H570    1.084   .     S
C553   C554    1.399   .     A
C553   C911    1.370   1_545 S
C554   C562    1.419   .     S
C554   C555    1.409   .     A
C555   I595    2.131   .     S
C555   C916    1.373   1_545 S
C556   H571    1.084   .     S
C556   C557    1.393   .     A
C556   C735    1.373   .     S
C558   N584    1.366   .     A
C558   H572    1.082   .     S
C558   C619    1.416   .     S
C559   H573    1.082   .     S
C559   N583    1.367   .     A
C559   C678    1.416   1_455 S
C560   H574    1.082   .     S
C560   N583    1.366   .     A
C560   C681    1.416   1_455 S
C561   H575    1.082   .     S
C561   N584    1.367   .     A
C561   C620    1.416   .     S
C562   O590    1.286   .     A
C562   O589    1.280   .     A
C563   O592    1.290   .     A
C563   C565    1.450   .     S
C563   O591    1.291   .     A
C566   C567    1.388   .     A
C566   H578    1.083   .     S
C567   C28     1.392   1_556 S
C567   H40     1.083   1_556 S
C568   H579    1.079   .     S
N583   Zn593   2.009   .     S
N584   Zn594   2.009   .     S
O585   Zn593   1.994   .     S
O586   Zn594   1.998   .     S
O587   Zn593   1.963   .     S
O588   Zn594   1.915   .     S
O589   Zn593   1.998   .     S
O590   Zn594   1.994   .     S
O591   Zn593   1.915   .     S
O592   Zn594   1.963   .     S
S596   O599    1.682   .     S
S596   C24     1.772   1_556 S
S596   O657    1.502   .     S
S596   O118    1.504   1_556 S
O597   S716    1.502   1_455 S
O598   S176    1.504   1_455 S
O599   H600    0.991   .     S
C601   C617    1.413   .     S
C601   O645    1.281   .     A
C601   O646    1.281   .     A
C602   C603    1.405   .     A
C602   C64     1.416   1_556 S
C602   C88     1.420   1_556 S
C603   C610    1.411   .     A
C603   C607    1.411   .     A
C604   C608    1.388   .     A
C605   C606    1.400   .     A
C605   C64     1.426   1_556 S
C605   C84     1.422   1_556 S
C606   C607    1.387   .     A
C606   H636    1.080   .     S
C607   H641    1.082   .     S
C608   C625    1.383   .     A
C608   H637    1.079   .     S
C609   C624    1.400   .     A
C609   H629    1.083   .     S
C609   C625    1.395   .     A
C610   C626    1.402   .     A
C610   C612    1.458   .     S
C611   H642    1.084   .     S
C611   C617    1.392   .     A
C611   C793    1.370   .     S
C612   O648    1.292   .     A
C612   O647    1.290   .     A
C613   H630    1.084   .     S
C613   C614    1.399   .     A
C613   C971    1.370   1_545 S
C614   C622    1.419   .     S
C614   C615    1.409   .     A
C615   I655    2.131   .     S
C615   C976    1.373   1_545 S
C616   H631    1.084   .     S
C616   C617    1.393   .     A
C616   C795    1.373   .     S
C618   N644    1.366   .     A
C618   H632    1.082   .     S
C618   C679    1.416   .     S
C619   H633    1.082   .     S
C619   N643    1.367   .     A
C620   H634    1.082   .     S
C620   N643    1.366   .     A
C621   H635    1.082   .     S
C621   N644    1.367   .     A
C621   C680    1.416   .     S
C622   O650    1.286   .     A
C622   O649    1.280   .     A
C623   O652    1.290   .     A
C623   C625    1.450   .     S
C623   O651    1.291   .     A
C626   C627    1.388   .     A
C626   H638    1.083   .     S
C627   C88     1.392   1_556 S
C627   H100    1.083   1_556 S
C628   H639    1.079   .     S
N643   Zn653   2.009   .     S
N644   Zn654   2.009   .     S
O645   Zn653   1.994   .     S
O646   Zn654   1.998   .     S
O647   Zn653   1.963   .     S
O648   Zn654   1.915   .     S
O649   Zn653   1.998   .     S
O650   Zn654   1.994   .     S
O651   Zn653   1.915   .     S
O652   Zn654   1.963   .     S
S656   O659    1.682   .     S
S656   C84     1.772   1_556 S
S656   O717    1.502   .     S
S656   O178    1.504   1_556 S
O659   H660    0.991   .     S
C661   C677    1.413   .     S
C661   O705    1.281   .     A
C661   O706    1.281   .     A
C662   C663    1.405   .     A
C662   C124    1.416   1_556 S
C662   C148    1.420   1_556 S
C663   C670    1.411   .     A
C663   C667    1.411   .     A
C664   C668    1.388   .     A
C665   C666    1.400   .     A
C665   C124    1.426   1_556 S
C665   C144    1.422   1_556 S
C666   C667    1.387   .     A
C666   H696    1.080   .     S
C667   H701    1.082   .     S
C668   C685    1.383   .     A
C668   H697    1.079   .     S
C669   C684    1.400   .     A
C669   H689    1.083   .     S
C669   C685    1.395   .     A
C670   C686    1.402   .     A
C670   C672    1.458   .     S
C671   H702    1.084   .     S
C671   C677    1.392   .     A
C671   C853    1.370   .     S
C672   O708    1.292   .     A
C672   O707    1.290   .     A
C673   H690    1.084   .     S
C673   C674    1.399   .     A
C673   C1031   1.370   1_545 S
C674   C682    1.419   .     S
C674   C675    1.409   .     A
C675   I715    2.131   .     S
C675   C1036   1.373   1_545 S
C676   H691    1.084   .     S
C676   C677    1.393   .     A
C676   C855    1.373   .     S
C678   N704    1.366   .     A
C678   H692    1.082   .     S
C678   C559    1.416   1_655 S
C679   H693    1.082   .     S
C679   N703    1.367   .     A
C680   H694    1.082   .     S
C680   N703    1.366   .     A
C681   H695    1.082   .     S
C681   N704    1.367   .     A
C681   C560    1.416   1_655 S
C682   O710    1.286   .     A
C682   O709    1.280   .     A
C683   O712    1.290   .     A
C683   C685    1.450   .     S
C683   O711    1.291   .     A
C686   C687    1.388   .     A
C686   H698    1.083   .     S
C687   C148    1.392   1_556 S
C687   H160    1.083   1_556 S
C688   H699    1.079   .     S
N703   Zn713   2.009   .     S
N704   Zn714   2.009   .     S
O705   Zn713   1.994   .     S
O706   Zn714   1.998   .     S
O707   Zn713   1.963   .     S
O708   Zn714   1.915   .     S
O709   Zn713   1.998   .     S
O710   Zn714   1.994   .     S
O711   Zn713   1.915   .     S
O712   Zn714   1.963   .     S
S716   O719    1.682   .     S
S716   C144    1.772   1_556 S
S716   O597    1.502   1_655 S
S716   O58     1.504   1_656 S
O719   H720    0.991   .     S
C721   C737    1.413   .     S
C721   O765    1.281   .     A
C721   O766    1.281   .     A
C722   C723    1.405   .     A
C722   C184    1.416   1_556 S
C722   C208    1.420   1_556 S
C723   C730    1.411   .     A
C723   C727    1.411   .     A
C724   C728    1.388   .     A
C725   C726    1.400   .     A
C725   C184    1.426   1_556 S
C725   C204    1.422   1_556 S
C726   C727    1.387   .     A
C726   H756    1.080   .     S
C727   H761    1.082   .     S
C728   C745    1.383   .     A
C728   H757    1.079   .     S
C729   C744    1.400   .     A
C729   H749    1.083   .     S
C729   C745    1.395   .     A
C730   C746    1.402   .     A
C730   C732    1.458   .     S
C731   H762    1.084   .     S
C731   C737    1.392   .     A
C731   C913    1.370   .     S
C732   O768    1.292   .     A
C732   O767    1.290   .     A
C733   H750    1.084   .     S
C733   C734    1.399   .     A
C734   C742    1.419   .     S
C734   C735    1.409   .     A
C735   I775    2.131   .     S
C736   H751    1.084   .     S
C736   C737    1.393   .     A
C736   C915    1.373   .     S
C738   N764    1.366   .     A
C738   H752    1.082   .     S
C738   C799    1.416   .     S
C739   H753    1.082   .     S
C739   N763    1.367   .     A
C739   C858    1.416   1_455 S
C740   H754    1.082   .     S
C740   N763    1.366   .     A
C740   C861    1.416   1_455 S
C741   H755    1.082   .     S
C741   N764    1.367   .     A
C741   C800    1.416   .     S
C742   O770    1.286   .     A
C742   O769    1.280   .     A
C743   O772    1.290   .     A
C743   C745    1.450   .     S
C743   O771    1.291   .     A
C746   C747    1.388   .     A
C746   H758    1.083   .     S
C747   C208    1.392   1_556 S
C747   H220    1.083   1_556 S
C748   H759    1.079   .     S
N763   Zn773   2.009   .     S
N764   Zn774   2.009   .     S
O765   Zn773   1.994   .     S
O766   Zn774   1.998   .     S
O767   Zn773   1.963   .     S
O768   Zn774   1.915   .     S
O769   Zn773   1.998   .     S
O770   Zn774   1.994   .     S
O771   Zn773   1.915   .     S
O772   Zn774   1.963   .     S
S776   O779    1.682   .     S
S776   C204    1.772   1_556 S
S776   O837    1.502   .     S
S776   O298    1.504   1_556 S
O777   S896    1.502   1_455 S
O778   S356    1.504   1_455 S
O779   H780    0.991   .     S
C781   C797    1.413   .     S
C781   O825    1.281   .     A
C781   O826    1.281   .     A
C782   C783    1.405   .     A
C782   C244    1.416   1_556 S
C782   C268    1.420   1_556 S
C783   C790    1.411   .     A
C783   C787    1.411   .     A
C784   C788    1.388   .     A
C785   C786    1.400   .     A
C785   C244    1.426   1_556 S
C785   C264    1.422   1_556 S
C786   C787    1.387   .     A
C786   H816    1.080   .     S
C787   H821    1.082   .     S
C788   C805    1.383   .     A
C788   H817    1.079   .     S
C789   C804    1.400   .     A
C789   H809    1.083   .     S
C789   C805    1.395   .     A
C790   C806    1.402   .     A
C790   C792    1.458   .     S
C791   H822    1.084   .     S
C791   C797    1.392   .     A
C791   C973    1.370   .     S
C792   O828    1.292   .     A
C792   O827    1.290   .     A
C793   H810    1.084   .     S
C793   C794    1.399   .     A
C794   C802    1.419   .     S
C794   C795    1.409   .     A
C795   I835    2.131   .     S
C796   H811    1.084   .     S
C796   C797    1.393   .     A
C796   C975    1.373   .     S
C798   N824    1.366   .     A
C798   H812    1.082   .     S
C798   C859    1.416   .     S
C799   H813    1.082   .     S
C799   N823    1.367   .     A
C800   H814    1.082   .     S
C800   N823    1.366   .     A
C801   H815    1.082   .     S
C801   N824    1.367   .     A
C801   C860    1.416   .     S
C802   O830    1.286   .     A
C802   O829    1.280   .     A
C803   O832    1.290   .     A
C803   C805    1.450   .     S
C803   O831    1.291   .     A
C806   C807    1.388   .     A
C806   H818    1.083   .     S
C807   C268    1.392   1_556 S
C807   H280    1.083   1_556 S
C808   H819    1.079   .     S
N823   Zn833   2.009   .     S
N824   Zn834   2.009   .     S
O825   Zn833   1.994   .     S
O826   Zn834   1.998   .     S
O827   Zn833   1.963   .     S
O828   Zn834   1.915   .     S
O829   Zn833   1.998   .     S
O830   Zn834   1.994   .     S
O831   Zn833   1.915   .     S
O832   Zn834   1.963   .     S
S836   O839    1.682   .     S
S836   C264    1.772   1_556 S
S836   O897    1.502   .     S
S836   O358    1.504   1_556 S
O839   H840    0.991   .     S
C841   C857    1.413   .     S
C841   O885    1.281   .     A
C841   O886    1.281   .     A
C842   C843    1.405   .     A
C842   C304    1.416   1_556 S
C842   C328    1.420   1_556 S
C843   C850    1.411   .     A
C843   C847    1.411   .     A
C844   C848    1.388   .     A
C845   C846    1.400   .     A
C845   C304    1.426   1_556 S
C845   C324    1.422   1_556 S
C846   C847    1.387   .     A
C846   H876    1.080   .     S
C847   H881    1.082   .     S
C848   C865    1.383   .     A
C848   H877    1.079   .     S
C849   C864    1.400   .     A
C849   H869    1.083   .     S
C849   C865    1.395   .     A
C850   C866    1.402   .     A
C850   C852    1.458   .     S
C851   H882    1.084   .     S
C851   C857    1.392   .     A
C851   C1033   1.370   .     S
C852   O888    1.292   .     A
C852   O887    1.290   .     A
C853   H870    1.084   .     S
C853   C854    1.399   .     A
C854   C862    1.419   .     S
C854   C855    1.409   .     A
C855   I895    2.131   .     S
C856   H871    1.084   .     S
C856   C857    1.393   .     A
C856   C1035   1.373   .     S
C858   N884    1.366   .     A
C858   H872    1.082   .     S
C858   C739    1.416   1_655 S
C859   H873    1.082   .     S
C859   N883    1.367   .     A
C860   H874    1.082   .     S
C860   N883    1.366   .     A
C861   H875    1.082   .     S
C861   N884    1.367   .     A
C861   C740    1.416   1_655 S
C862   O890    1.286   .     A
C862   O889    1.280   .     A
C863   O892    1.290   .     A
C863   C865    1.450   .     S
C863   O891    1.291   .     A
C866   C867    1.388   .     A
C866   H878    1.083   .     S
C867   C328    1.392   1_556 S
C867   H340    1.083   1_556 S
C868   H879    1.079   .     S
N883   Zn893   2.009   .     S
N884   Zn894   2.009   .     S
O885   Zn893   1.994   .     S
O886   Zn894   1.998   .     S
O887   Zn893   1.963   .     S
O888   Zn894   1.915   .     S
O889   Zn893   1.998   .     S
O890   Zn894   1.994   .     S
O891   Zn893   1.915   .     S
O892   Zn894   1.963   .     S
S896   O899    1.682   .     S
S896   C324    1.772   1_556 S
S896   O777    1.502   1_655 S
S896   O238    1.504   1_656 S
O899   H900    0.991   .     S
C901   C917    1.413   .     S
C901   O945    1.281   .     A
C901   O946    1.281   .     A
C902   C903    1.405   .     A
C902   C364    1.416   1_556 S
C902   C388    1.420   1_556 S
C903   C910    1.411   .     A
C903   C907    1.411   .     A
C904   C908    1.388   .     A
C905   C906    1.400   .     A
C905   C364    1.426   1_556 S
C905   C384    1.422   1_556 S
C906   C907    1.387   .     A
C906   H936    1.080   .     S
C907   H941    1.082   .     S
C908   C925    1.383   .     A
C908   H937    1.079   .     S
C909   C924    1.400   .     A
C909   H929    1.083   .     S
C909   C925    1.395   .     A
C910   C926    1.402   .     A
C910   C912    1.458   .     S
C911   H942    1.084   .     S
C911   C917    1.392   .     A
C911   C553    1.370   1_565 S
C912   O948    1.292   .     A
C912   O947    1.290   .     A
C913   H930    1.084   .     S
C913   C914    1.399   .     A
C914   C922    1.419   .     S
C914   C915    1.409   .     A
C915   I955    2.131   .     S
C916   H931    1.084   .     S
C916   C917    1.393   .     A
C916   C555    1.373   1_565 S
C918   N944    1.366   .     A
C918   H932    1.082   .     S
C918   C979    1.416   .     S
C919   H933    1.082   .     S
C919   N943    1.367   .     A
C919   C1038   1.416   1_455 S
C920   H934    1.082   .     S
C920   N943    1.366   .     A
C920   C1041   1.416   1_455 S
C921   H935    1.082   .     S
C921   N944    1.367   .     A
C921   C980    1.416   .     S
C922   O950    1.286   .     A
C922   O949    1.280   .     A
C923   O952    1.290   .     A
C923   C925    1.450   .     S
C923   O951    1.291   .     A
C926   C927    1.388   .     A
C926   H938    1.083   .     S
C927   C388    1.392   1_556 S
C927   H400    1.083   1_556 S
C928   H939    1.079   .     S
N943   Zn953   2.009   .     S
N944   Zn954   2.009   .     S
O945   Zn953   1.994   .     S
O946   Zn954   1.998   .     S
O947   Zn953   1.963   .     S
O948   Zn954   1.915   .     S
O949   Zn953   1.998   .     S
O950   Zn954   1.994   .     S
O951   Zn953   1.915   .     S
O952   Zn954   1.963   .     S
S956   O959    1.682   .     S
S956   C384    1.772   1_556 S
S956   O1017   1.502   .     S
S956   O478    1.504   1_556 S
O957   S1076   1.502   1_455 S
O958   S536    1.504   1_455 S
O959   H960    0.991   .     S
C961   C977    1.413   .     S
C961   O1005   1.281   .     A
C961   O1006   1.281   .     A
C962   C963    1.405   .     A
C962   C424    1.416   1_556 S
C962   C448    1.420   1_556 S
C963   C970    1.411   .     A
C963   C967    1.411   .     A
C964   C968    1.388   .     A
C965   C966    1.400   .     A
C965   C424    1.426   1_556 S
C965   C444    1.422   1_556 S
C966   C967    1.387   .     A
C966   H996    1.080   .     S
C967   H1001   1.082   .     S
C968   C985    1.383   .     A
C968   H997    1.079   .     S
C969   C984    1.400   .     A
C969   H989    1.083   .     S
C969   C985    1.395   .     A
C970   C986    1.402   .     A
C970   C972    1.458   .     S
C971   H1002   1.084   .     S
C971   C977    1.392   .     A
C971   C613    1.370   1_565 S
C972   O1008   1.292   .     A
C972   O1007   1.290   .     A
C973   H990    1.084   .     S
C973   C974    1.399   .     A
C974   C982    1.419   .     S
C974   C975    1.409   .     A
C975   I1015   2.131   .     S
C976   H991    1.084   .     S
C976   C977    1.393   .     A
C976   C615    1.373   1_565 S
C978   N1004   1.366   .     A
C978   H992    1.082   .     S
C978   C1039   1.416   .     S
C979   H993    1.082   .     S
C979   N1003   1.367   .     A
C980   H994    1.082   .     S
C980   N1003   1.366   .     A
C981   H995    1.082   .     S
C981   N1004   1.367   .     A
C981   C1040   1.416   .     S
C982   O1010   1.286   .     A
C982   O1009   1.280   .     A
C983   O1012   1.290   .     A
C983   C985    1.450   .     S
C983   O1011   1.291   .     A
C986   C987    1.388   .     A
C986   H998    1.083   .     S
C987   C448    1.392   1_556 S
C987   H460    1.083   1_556 S
C988   H999    1.079   .     S
N1003  Zn1013  2.009   .     S
N1004  Zn1014  2.009   .     S
O1005  Zn1013  1.994   .     S
O1006  Zn1014  1.998   .     S
O1007  Zn1013  1.963   .     S
O1008  Zn1014  1.915   .     S
O1009  Zn1013  1.998   .     S
O1010  Zn1014  1.994   .     S
O1011  Zn1013  1.915   .     S
O1012  Zn1014  1.963   .     S
S1016  O1019   1.682   .     S
S1016  C444    1.772   1_556 S
S1016  O1077   1.502   .     S
S1016  O538    1.504   1_556 S
O1019  H1020   0.991   .     S
C1021  C1037   1.413   .     S
C1021  O1065   1.281   .     A
C1021  O1066   1.281   .     A
C1022  C1023   1.405   .     A
C1022  C484    1.416   1_556 S
C1022  C508    1.420   1_556 S
C1023  C1030   1.411   .     A
C1023  C1027   1.411   .     A
C1024  C1028   1.388   .     A
C1025  C1026   1.400   .     A
C1025  C484    1.426   1_556 S
C1025  C504    1.422   1_556 S
C1026  C1027   1.387   .     A
C1026  H1056   1.080   .     S
C1027  H1061   1.082   .     S
C1028  C1045   1.383   .     A
C1028  H1057   1.079   .     S
C1029  C1044   1.400   .     A
C1029  H1049   1.083   .     S
C1029  C1045   1.395   .     A
C1030  C1046   1.402   .     A
C1030  C1032   1.458   .     S
C1031  H1062   1.084   .     S
C1031  C1037   1.392   .     A
C1031  C673    1.370   1_565 S
C1032  O1068   1.292   .     A
C1032  O1067   1.290   .     A
C1033  H1050   1.084   .     S
C1033  C1034   1.399   .     A
C1034  C1042   1.419   .     S
C1034  C1035   1.409   .     A
C1035  I1075   2.131   .     S
C1036  H1051   1.084   .     S
C1036  C1037   1.393   .     A
C1036  C675    1.373   1_565 S
C1038  N1064   1.366   .     A
C1038  H1052   1.082   .     S
C1038  C919    1.416   1_655 S
C1039  H1053   1.082   .     S
C1039  N1063   1.367   .     A
C1040  H1054   1.082   .     S
C1040  N1063   1.366   .     A
C1041  H1055   1.082   .     S
C1041  N1064   1.367   .     A
C1041  C920    1.416   1_655 S
C1042  O1070   1.286   .     A
C1042  O1069   1.280   .     A
C1043  O1072   1.290   .     A
C1043  C1045   1.450   .     S
C1043  O1071   1.291   .     A
C1046  C1047   1.388   .     A
C1046  H1058   1.083   .     S
C1047  C508    1.392   1_556 S
C1047  H520    1.083   1_556 S
C1048  H1059   1.079   .     S
N1063  Zn1073  2.009   .     S
N1064  Zn1074  2.009   .     S
O1065  Zn1073  1.994   .     S
O1066  Zn1074  1.998   .     S
O1067  Zn1073  1.963   .     S
O1068  Zn1074  1.915   .     S
O1069  Zn1073  1.998   .     S
O1070  Zn1074  1.994   .     S
O1071  Zn1073  1.915   .     S
O1072  Zn1074  1.963   .     S
S1076  O1079   1.682   .     S
S1076  C504    1.772   1_556 S
S1076  O957    1.502   1_655 S
S1076  O418    1.504   1_656 S
O1079  H1080   0.991   .     S
