data_str_m3_o10_o16_pcu_sym.72
_audit_creation_date              2020-01-03
_audit_creation_method            'Materials Studio'
_symmetry_space_group_name_H-M    'P1'
_symmetry_Int_Tables_number       1
_symmetry_cell_setting            triclinic
loop_
_symmetry_equiv_pos_as_xyz
  x,y,z
_cell_length_a                    23.4543
_cell_length_b                    25.5995
_cell_length_c                    24.1955
_cell_angle_alpha                 92.2188
_cell_angle_beta                  101.3517
_cell_angle_gamma                 94.0344
loop_
_atom_site_label
_atom_site_type_symbol
_atom_site_fract_x
_atom_site_fract_y
_atom_site_fract_z
_atom_site_U_iso_or_equiv
_atom_site_adp_type
_atom_site_occupancy
C1     C     0.01331   0.26457   0.24398   0.00000  Uiso   1.00
C2     C     0.05284   0.16627   0.41602   0.00000  Uiso   1.00
C3     C     0.01448   0.31699   0.22647   0.00000  Uiso   1.00
C4     C     0.03536   0.16765   0.35516   0.00000  Uiso   1.00
C5     C     0.30945   0.01349   0.24505   0.00000  Uiso   1.00
C6     C     0.31738   0.06838   0.24708   0.00000  Uiso   1.00
C7     C     0.29729   0.16230   0.14478   0.00000  Uiso   1.00
C8     C     0.27067   0.09256   0.00265   0.00000  Uiso   1.00
C9     C     0.27611   0.15010   0.08514   0.00000  Uiso   1.00
C10    C     0.02396   0.19577   0.45037   0.00000  Uiso   1.00
C11    C     0.04708   0.20379   0.00757   0.00000  Uiso   1.00
C12    C     0.13115   0.15682   0.49504   0.00000  Uiso   1.00
C13    C     0.10078   0.18547   0.02990   0.00000  Uiso   1.00
C14    C     0.20584   0.04394   0.39437   0.00000  Uiso   1.00
C15    C     0.16678   0.02262   0.33854   0.00000  Uiso   1.00
C16    C     0.05288   0.33332   0.18458   0.00000  Uiso   1.00
C17    C     0.04356   0.29506   0.13287   0.00000  Uiso   1.00
C18    C     0.10296   0.14153   0.43977   0.00000  Uiso   1.00
C19    C     0.18878   0.14353   0.01311   0.00000  Uiso   1.00
C20    C     0.21368   0.10672   0.48093   0.00000  Uiso   1.00
C21    C     0.18085   0.08478   0.42874   0.00000  Uiso   1.00
C22    C     0.12569   0.10279   0.40908   0.00000  Uiso   1.00
C23    C     0.22289   0.16779   0.06203   0.00000  Uiso   1.00
C24    C     0.30092   0.11302   0.05531   0.00000  Uiso   1.00
H25    H     0.00916   0.09862   0.07343   0.00000  Uiso   1.00
H26    H     0.15741   0.05467   0.30920   0.00000  Uiso   1.00
H27    H     0.18958   0.32643   0.31812   0.00000  Uiso   1.00
H28    H     0.24709   0.06150   0.38434   0.00000  Uiso   1.00
H29    H     0.21624   0.00993   0.42072   0.00000  Uiso   1.00
H30    H     0.31782   0.21386   0.43275   0.00000  Uiso   1.00
H31    H     0.11683   0.19304   0.07467   0.00000  Uiso   1.00
H32    H     0.06210   0.25731   0.14399   0.00000  Uiso   1.00
H33    H     0.32965   0.28782   0.11414   0.00000  Uiso   1.00
H34    H     0.06608   0.31200   0.10058   0.00000  Uiso   1.00
H35    H     0.04280   0.03841   0.16709   0.00000  Uiso   1.00
H36    H     0.27735   0.33149   0.26841   0.00000  Uiso   1.00
H37    H     0.09950   0.00258   0.20613   0.00000  Uiso   1.00
H38    H     0.15657   0.12485   0.20826   0.00000  Uiso   1.00
H39    H     0.17675   0.20844   0.29178   0.00000  Uiso   1.00
H40    H     0.29155   0.06438   0.48057   0.00000  Uiso   1.00
H41    H     0.20786   0.19961   0.08457   0.00000  Uiso   1.00
H42    H     0.02425   0.22573   0.03423   0.00000  Uiso   1.00
H43    H     0.09934   0.08612   0.36993   0.00000  Uiso   1.00
H44    H     0.12542   0.00297   0.34603   0.00000  Uiso   1.00
N45    N     0.14493   0.15223   0.23542   0.00000  Uiso   1.00
N46    N     0.18840   0.18110   0.26457   0.00000  Uiso   1.00
O47    O     0.29769   0.24629   0.25357   0.00000  Uiso   1.00
O48    O     0.05742   0.23704   0.24423   0.00000  Uiso   1.00
O49    O     0.31490   0.17358   0.33380   0.00000  Uiso   1.00
O50    O     0.07463   0.16433   0.32446   0.00000  Uiso   1.00
O51    O     0.27592   0.09629   0.25576   0.00000  Uiso   1.00
O52    O     0.03565   0.08704   0.24643   0.00000  Uiso   1.00
O53    O     0.25870   0.16901   0.17554   0.00000  Uiso   1.00
O54    O     0.01843   0.15976   0.16620   0.00000  Uiso   1.00
Zn55   Zn    0.27119   0.17284   0.25623   0.00000  Uiso   1.00
Zn56   Zn    0.06214   0.16049   0.24376   0.00000  Uiso   1.00
C57    C     0.34664   0.26457   0.24398   0.00000  Uiso   1.00
C58    C     0.38618   0.16627   0.41602   0.00000  Uiso   1.00
C59    C     0.34782   0.31699   0.22647   0.00000  Uiso   1.00
C60    C     0.36869   0.16765   0.35516   0.00000  Uiso   1.00
C61    C     0.64278   0.01349   0.24505   0.00000  Uiso   1.00
C62    C     0.65071   0.06838   0.24708   0.00000  Uiso   1.00
C63    C     0.63062   0.16230   0.14478   0.00000  Uiso   1.00
C64    C     0.60401   0.09256   0.00265   0.00000  Uiso   1.00
C65    C     0.60944   0.15010   0.08514   0.00000  Uiso   1.00
C66    C     0.35729   0.19577   0.45037   0.00000  Uiso   1.00
C67    C     0.38042   0.20379   0.00757   0.00000  Uiso   1.00
C68    C     0.46449   0.15682   0.49504   0.00000  Uiso   1.00
C69    C     0.43411   0.18547   0.02990   0.00000  Uiso   1.00
C70    C     0.53918   0.04394   0.39437   0.00000  Uiso   1.00
C71    C     0.50011   0.02262   0.33854   0.00000  Uiso   1.00
C72    C     0.38621   0.33332   0.18458   0.00000  Uiso   1.00
C73    C     0.37690   0.29506   0.13287   0.00000  Uiso   1.00
C74    C     0.43629   0.14153   0.43977   0.00000  Uiso   1.00
C75    C     0.52211   0.14353   0.01311   0.00000  Uiso   1.00
C76    C     0.54702   0.10672   0.48093   0.00000  Uiso   1.00
C77    C     0.51418   0.08478   0.42874   0.00000  Uiso   1.00
C78    C     0.45903   0.10279   0.40908   0.00000  Uiso   1.00
C79    C     0.55623   0.16779   0.06203   0.00000  Uiso   1.00
C80    C     0.63426   0.11302   0.05531   0.00000  Uiso   1.00
H81    H     0.34250   0.09862   0.07343   0.00000  Uiso   1.00
H82    H     0.49074   0.05467   0.30920   0.00000  Uiso   1.00
H83    H     0.52291   0.32643   0.31812   0.00000  Uiso   1.00
H84    H     0.58042   0.06150   0.38434   0.00000  Uiso   1.00
H85    H     0.54958   0.00993   0.42072   0.00000  Uiso   1.00
H86    H     0.65115   0.21386   0.43275   0.00000  Uiso   1.00
H87    H     0.45017   0.19304   0.07467   0.00000  Uiso   1.00
H88    H     0.39543   0.25731   0.14399   0.00000  Uiso   1.00
H89    H     0.66298   0.28782   0.11414   0.00000  Uiso   1.00
H90    H     0.39942   0.31200   0.10058   0.00000  Uiso   1.00
H91    H     0.37614   0.03841   0.16709   0.00000  Uiso   1.00
H92    H     0.61068   0.33149   0.26841   0.00000  Uiso   1.00
H93    H     0.43283   0.00258   0.20613   0.00000  Uiso   1.00
H94    H     0.48990   0.12485   0.20826   0.00000  Uiso   1.00
H95    H     0.51008   0.20844   0.29178   0.00000  Uiso   1.00
H96    H     0.62488   0.06438   0.48057   0.00000  Uiso   1.00
H97    H     0.54119   0.19961   0.08457   0.00000  Uiso   1.00
H98    H     0.35758   0.22573   0.03423   0.00000  Uiso   1.00
H99    H     0.43268   0.08612   0.36993   0.00000  Uiso   1.00
H100   H     0.45876   0.00297   0.34603   0.00000  Uiso   1.00
N101   N     0.47827   0.15223   0.23542   0.00000  Uiso   1.00
N102   N     0.52173   0.18110   0.26457   0.00000  Uiso   1.00
O103   O     0.63102   0.24629   0.25357   0.00000  Uiso   1.00
O104   O     0.39075   0.23704   0.24423   0.00000  Uiso   1.00
O105   O     0.64823   0.17358   0.33380   0.00000  Uiso   1.00
O106   O     0.40796   0.16433   0.32446   0.00000  Uiso   1.00
O107   O     0.60925   0.09629   0.25576   0.00000  Uiso   1.00
O108   O     0.36898   0.08704   0.24643   0.00000  Uiso   1.00
O109   O     0.59204   0.16901   0.17554   0.00000  Uiso   1.00
O110   O     0.35177   0.15976   0.16620   0.00000  Uiso   1.00
Zn111  Zn    0.60453   0.17284   0.25623   0.00000  Uiso   1.00
Zn112  Zn    0.39547   0.16049   0.24376   0.00000  Uiso   1.00
C113   C     0.67997   0.26457   0.24398   0.00000  Uiso   1.00
C114   C     0.71951   0.16627   0.41602   0.00000  Uiso   1.00
C115   C     0.68115   0.31699   0.22647   0.00000  Uiso   1.00
C116   C     0.70202   0.16765   0.35516   0.00000  Uiso   1.00
C117   C     0.97612   0.01349   0.24505   0.00000  Uiso   1.00
C118   C     0.98405   0.06838   0.24708   0.00000  Uiso   1.00
C119   C     0.96396   0.16230   0.14478   0.00000  Uiso   1.00
C120   C     0.93734   0.09256   0.00265   0.00000  Uiso   1.00
C121   C     0.94277   0.15010   0.08514   0.00000  Uiso   1.00
C122   C     0.69063   0.19577   0.45037   0.00000  Uiso   1.00
C123   C     0.71375   0.20379   0.00757   0.00000  Uiso   1.00
C124   C     0.79782   0.15682   0.49504   0.00000  Uiso   1.00
C125   C     0.76744   0.18547   0.02990   0.00000  Uiso   1.00
C126   C     0.87251   0.04394   0.39437   0.00000  Uiso   1.00
C127   C     0.83344   0.02262   0.33854   0.00000  Uiso   1.00
C128   C     0.71954   0.33332   0.18458   0.00000  Uiso   1.00
C129   C     0.71023   0.29506   0.13287   0.00000  Uiso   1.00
C130   C     0.76963   0.14153   0.43977   0.00000  Uiso   1.00
C131   C     0.85545   0.14353   0.01311   0.00000  Uiso   1.00
C132   C     0.88035   0.10672   0.48093   0.00000  Uiso   1.00
C133   C     0.84752   0.08478   0.42874   0.00000  Uiso   1.00
C134   C     0.79236   0.10279   0.40908   0.00000  Uiso   1.00
C135   C     0.88956   0.16779   0.06203   0.00000  Uiso   1.00
C136   C     0.96759   0.11302   0.05531   0.00000  Uiso   1.00
H137   H     0.67583   0.09862   0.07343   0.00000  Uiso   1.00
H138   H     0.82407   0.05467   0.30920   0.00000  Uiso   1.00
H139   H     0.85625   0.32643   0.31812   0.00000  Uiso   1.00
H140   H     0.91376   0.06150   0.38434   0.00000  Uiso   1.00
H141   H     0.88291   0.00993   0.42072   0.00000  Uiso   1.00
H142   H     0.98448   0.21386   0.43275   0.00000  Uiso   1.00
H143   H     0.78350   0.19304   0.07467   0.00000  Uiso   1.00
H144   H     0.72876   0.25731   0.14399   0.00000  Uiso   1.00
H145   H     0.99632   0.28782   0.11414   0.00000  Uiso   1.00
H146   H     0.73275   0.31200   0.10058   0.00000  Uiso   1.00
H147   H     0.70947   0.03841   0.16709   0.00000  Uiso   1.00
H148   H     0.94401   0.33149   0.26841   0.00000  Uiso   1.00
H149   H     0.76616   0.00258   0.20613   0.00000  Uiso   1.00
H150   H     0.82324   0.12485   0.20826   0.00000  Uiso   1.00
H151   H     0.84342   0.20844   0.29178   0.00000  Uiso   1.00
H152   H     0.95821   0.06438   0.48057   0.00000  Uiso   1.00
H153   H     0.87453   0.19961   0.08457   0.00000  Uiso   1.00
H154   H     0.69092   0.22573   0.03423   0.00000  Uiso   1.00
H155   H     0.76601   0.08612   0.36993   0.00000  Uiso   1.00
H156   H     0.79209   0.00297   0.34603   0.00000  Uiso   1.00
N157   N     0.81160   0.15223   0.23542   0.00000  Uiso   1.00
N158   N     0.85507   0.18110   0.26457   0.00000  Uiso   1.00
O159   O     0.96435   0.24629   0.25357   0.00000  Uiso   1.00
O160   O     0.72408   0.23704   0.24423   0.00000  Uiso   1.00
O161   O     0.98157   0.17358   0.33380   0.00000  Uiso   1.00
O162   O     0.74130   0.16433   0.32446   0.00000  Uiso   1.00
O163   O     0.94258   0.09629   0.25576   0.00000  Uiso   1.00
O164   O     0.70231   0.08704   0.24643   0.00000  Uiso   1.00
O165   O     0.92537   0.16901   0.17554   0.00000  Uiso   1.00
O166   O     0.68510   0.15976   0.16620   0.00000  Uiso   1.00
Zn167  Zn    0.93786   0.17284   0.25623   0.00000  Uiso   1.00
Zn168  Zn    0.72881   0.16049   0.24376   0.00000  Uiso   1.00
C169   C     0.01331   0.59790   0.24398   0.00000  Uiso   1.00
C170   C     0.05284   0.49960   0.41602   0.00000  Uiso   1.00
C171   C     0.01448   0.65033   0.22647   0.00000  Uiso   1.00
C172   C     0.03536   0.50098   0.35516   0.00000  Uiso   1.00
C173   C     0.30945   0.34682   0.24505   0.00000  Uiso   1.00
C174   C     0.31738   0.40171   0.24708   0.00000  Uiso   1.00
C175   C     0.29729   0.49564   0.14478   0.00000  Uiso   1.00
C176   C     0.27067   0.42589   0.00265   0.00000  Uiso   1.00
C177   C     0.27611   0.48343   0.08514   0.00000  Uiso   1.00
C178   C     0.02396   0.52910   0.45037   0.00000  Uiso   1.00
C179   C     0.04708   0.53712   0.00757   0.00000  Uiso   1.00
C180   C     0.13115   0.49016   0.49504   0.00000  Uiso   1.00
C181   C     0.10078   0.51880   0.02990   0.00000  Uiso   1.00
C182   C     0.20584   0.37727   0.39437   0.00000  Uiso   1.00
C183   C     0.16678   0.35595   0.33854   0.00000  Uiso   1.00
C184   C     0.05288   0.66665   0.18458   0.00000  Uiso   1.00
C185   C     0.04356   0.62839   0.13287   0.00000  Uiso   1.00
C186   C     0.10296   0.47486   0.43977   0.00000  Uiso   1.00
C187   C     0.18878   0.47686   0.01311   0.00000  Uiso   1.00
C188   C     0.21368   0.44005   0.48093   0.00000  Uiso   1.00
C189   C     0.18085   0.41811   0.42874   0.00000  Uiso   1.00
C190   C     0.12569   0.43613   0.40908   0.00000  Uiso   1.00
C191   C     0.22289   0.50113   0.06203   0.00000  Uiso   1.00
C192   C     0.30092   0.44635   0.05531   0.00000  Uiso   1.00
H193   H     0.00916   0.43195   0.07343   0.00000  Uiso   1.00
H194   H     0.15741   0.38800   0.30920   0.00000  Uiso   1.00
H195   H     0.18958   0.65977   0.31812   0.00000  Uiso   1.00
H196   H     0.24709   0.39483   0.38434   0.00000  Uiso   1.00
H197   H     0.21624   0.34326   0.42072   0.00000  Uiso   1.00
H198   H     0.31782   0.54720   0.43275   0.00000  Uiso   1.00
H199   H     0.11683   0.52637   0.07467   0.00000  Uiso   1.00
H200   H     0.06210   0.59064   0.14399   0.00000  Uiso   1.00
H201   H     0.32965   0.62115   0.11414   0.00000  Uiso   1.00
H202   H     0.06608   0.64534   0.10058   0.00000  Uiso   1.00
H203   H     0.04280   0.37175   0.16709   0.00000  Uiso   1.00
H204   H     0.27735   0.66482   0.26841   0.00000  Uiso   1.00
H205   H     0.09950   0.33592   0.20613   0.00000  Uiso   1.00
H206   H     0.15657   0.45818   0.20826   0.00000  Uiso   1.00
H207   H     0.17675   0.54177   0.29178   0.00000  Uiso   1.00
H208   H     0.29155   0.39771   0.48057   0.00000  Uiso   1.00
H209   H     0.20786   0.53294   0.08457   0.00000  Uiso   1.00
H210   H     0.02425   0.55906   0.03423   0.00000  Uiso   1.00
H211   H     0.09934   0.41945   0.36993   0.00000  Uiso   1.00
H212   H     0.12542   0.33631   0.34603   0.00000  Uiso   1.00
N213   N     0.14493   0.48556   0.23542   0.00000  Uiso   1.00
N214   N     0.18840   0.51444   0.26457   0.00000  Uiso   1.00
O215   O     0.29769   0.57963   0.25357   0.00000  Uiso   1.00
O216   O     0.05742   0.57038   0.24423   0.00000  Uiso   1.00
O217   O     0.31490   0.50691   0.33380   0.00000  Uiso   1.00
O218   O     0.07463   0.49766   0.32446   0.00000  Uiso   1.00
O219   O     0.27592   0.42962   0.25576   0.00000  Uiso   1.00
O220   O     0.03565   0.42037   0.24643   0.00000  Uiso   1.00
O221   O     0.25870   0.50234   0.17554   0.00000  Uiso   1.00
O222   O     0.01843   0.49309   0.16620   0.00000  Uiso   1.00
Zn223  Zn    0.27119   0.50618   0.25623   0.00000  Uiso   1.00
Zn224  Zn    0.06214   0.49382   0.24376   0.00000  Uiso   1.00
C225   C     0.34664   0.59790   0.24398   0.00000  Uiso   1.00
C226   C     0.38618   0.49960   0.41602   0.00000  Uiso   1.00
C227   C     0.34782   0.65033   0.22647   0.00000  Uiso   1.00
C228   C     0.36869   0.50098   0.35516   0.00000  Uiso   1.00
C229   C     0.64278   0.34682   0.24505   0.00000  Uiso   1.00
C230   C     0.65071   0.40171   0.24708   0.00000  Uiso   1.00
C231   C     0.63062   0.49564   0.14478   0.00000  Uiso   1.00
C232   C     0.60401   0.42589   0.00265   0.00000  Uiso   1.00
C233   C     0.60944   0.48343   0.08514   0.00000  Uiso   1.00
C234   C     0.35729   0.52910   0.45037   0.00000  Uiso   1.00
C235   C     0.38042   0.53712   0.00757   0.00000  Uiso   1.00
C236   C     0.46449   0.49016   0.49504   0.00000  Uiso   1.00
C237   C     0.43411   0.51880   0.02990   0.00000  Uiso   1.00
C238   C     0.53918   0.37727   0.39437   0.00000  Uiso   1.00
C239   C     0.50011   0.35595   0.33854   0.00000  Uiso   1.00
C240   C     0.38621   0.66665   0.18458   0.00000  Uiso   1.00
C241   C     0.37690   0.62839   0.13287   0.00000  Uiso   1.00
C242   C     0.43629   0.47486   0.43977   0.00000  Uiso   1.00
C243   C     0.52211   0.47686   0.01311   0.00000  Uiso   1.00
C244   C     0.54702   0.44005   0.48093   0.00000  Uiso   1.00
C245   C     0.51418   0.41811   0.42874   0.00000  Uiso   1.00
C246   C     0.45903   0.43613   0.40908   0.00000  Uiso   1.00
C247   C     0.55623   0.50113   0.06203   0.00000  Uiso   1.00
C248   C     0.63426   0.44635   0.05531   0.00000  Uiso   1.00
H249   H     0.34250   0.43195   0.07343   0.00000  Uiso   1.00
H250   H     0.49074   0.38800   0.30920   0.00000  Uiso   1.00
H251   H     0.52291   0.65977   0.31812   0.00000  Uiso   1.00
H252   H     0.58042   0.39483   0.38434   0.00000  Uiso   1.00
H253   H     0.54958   0.34326   0.42072   0.00000  Uiso   1.00
H254   H     0.65115   0.54720   0.43275   0.00000  Uiso   1.00
H255   H     0.45017   0.52637   0.07467   0.00000  Uiso   1.00
H256   H     0.39543   0.59064   0.14399   0.00000  Uiso   1.00
H257   H     0.66298   0.62115   0.11414   0.00000  Uiso   1.00
H258   H     0.39942   0.64534   0.10058   0.00000  Uiso   1.00
H259   H     0.37614   0.37175   0.16709   0.00000  Uiso   1.00
H260   H     0.61068   0.66482   0.26841   0.00000  Uiso   1.00
H261   H     0.43283   0.33592   0.20613   0.00000  Uiso   1.00
H262   H     0.48990   0.45818   0.20826   0.00000  Uiso   1.00
H263   H     0.51008   0.54177   0.29178   0.00000  Uiso   1.00
H264   H     0.62488   0.39771   0.48057   0.00000  Uiso   1.00
H265   H     0.54119   0.53294   0.08457   0.00000  Uiso   1.00
H266   H     0.35758   0.55906   0.03423   0.00000  Uiso   1.00
H267   H     0.43268   0.41945   0.36993   0.00000  Uiso   1.00
H268   H     0.45876   0.33631   0.34603   0.00000  Uiso   1.00
N269   N     0.47827   0.48556   0.23542   0.00000  Uiso   1.00
N270   N     0.52173   0.51444   0.26457   0.00000  Uiso   1.00
O271   O     0.63102   0.57963   0.25357   0.00000  Uiso   1.00
O272   O     0.39075   0.57038   0.24423   0.00000  Uiso   1.00
O273   O     0.64823   0.50691   0.33380   0.00000  Uiso   1.00
O274   O     0.40796   0.49766   0.32446   0.00000  Uiso   1.00
O275   O     0.60925   0.42962   0.25576   0.00000  Uiso   1.00
O276   O     0.36898   0.42037   0.24643   0.00000  Uiso   1.00
O277   O     0.59204   0.50234   0.17554   0.00000  Uiso   1.00
O278   O     0.35177   0.49309   0.16620   0.00000  Uiso   1.00
Zn279  Zn    0.60453   0.50618   0.25623   0.00000  Uiso   1.00
Zn280  Zn    0.39547   0.49382   0.24376   0.00000  Uiso   1.00
C281   C     0.67997   0.59790   0.24398   0.00000  Uiso   1.00
C282   C     0.71951   0.49960   0.41602   0.00000  Uiso   1.00
C283   C     0.68115   0.65033   0.22647   0.00000  Uiso   1.00
C284   C     0.70202   0.50098   0.35516   0.00000  Uiso   1.00
C285   C     0.97612   0.34682   0.24505   0.00000  Uiso   1.00
C286   C     0.98405   0.40171   0.24708   0.00000  Uiso   1.00
C287   C     0.96396   0.49564   0.14478   0.00000  Uiso   1.00
C288   C     0.93734   0.42589   0.00265   0.00000  Uiso   1.00
C289   C     0.94277   0.48343   0.08514   0.00000  Uiso   1.00
C290   C     0.69063   0.52910   0.45037   0.00000  Uiso   1.00
C291   C     0.71375   0.53712   0.00757   0.00000  Uiso   1.00
C292   C     0.79782   0.49016   0.49504   0.00000  Uiso   1.00
C293   C     0.76744   0.51880   0.02990   0.00000  Uiso   1.00
C294   C     0.87251   0.37727   0.39437   0.00000  Uiso   1.00
C295   C     0.83344   0.35595   0.33854   0.00000  Uiso   1.00
C296   C     0.71954   0.66665   0.18458   0.00000  Uiso   1.00
C297   C     0.71023   0.62839   0.13287   0.00000  Uiso   1.00
C298   C     0.76963   0.47486   0.43977   0.00000  Uiso   1.00
C299   C     0.85545   0.47686   0.01311   0.00000  Uiso   1.00
C300   C     0.88035   0.44005   0.48093   0.00000  Uiso   1.00
C301   C     0.84752   0.41811   0.42874   0.00000  Uiso   1.00
C302   C     0.79236   0.43613   0.40908   0.00000  Uiso   1.00
C303   C     0.88956   0.50113   0.06203   0.00000  Uiso   1.00
C304   C     0.96759   0.44635   0.05531   0.00000  Uiso   1.00
H305   H     0.67583   0.43195   0.07343   0.00000  Uiso   1.00
H306   H     0.82407   0.38800   0.30920   0.00000  Uiso   1.00
H307   H     0.85625   0.65977   0.31812   0.00000  Uiso   1.00
H308   H     0.91376   0.39483   0.38434   0.00000  Uiso   1.00
H309   H     0.88291   0.34326   0.42072   0.00000  Uiso   1.00
H310   H     0.98448   0.54720   0.43275   0.00000  Uiso   1.00
H311   H     0.78350   0.52637   0.07467   0.00000  Uiso   1.00
H312   H     0.72876   0.59064   0.14399   0.00000  Uiso   1.00
H313   H     0.99632   0.62115   0.11414   0.00000  Uiso   1.00
H314   H     0.73275   0.64534   0.10058   0.00000  Uiso   1.00
H315   H     0.70947   0.37175   0.16709   0.00000  Uiso   1.00
H316   H     0.94401   0.66482   0.26841   0.00000  Uiso   1.00
H317   H     0.76616   0.33592   0.20613   0.00000  Uiso   1.00
H318   H     0.82324   0.45818   0.20826   0.00000  Uiso   1.00
H319   H     0.84342   0.54177   0.29178   0.00000  Uiso   1.00
H320   H     0.95821   0.39771   0.48057   0.00000  Uiso   1.00
H321   H     0.87453   0.53294   0.08457   0.00000  Uiso   1.00
H322   H     0.69092   0.55906   0.03423   0.00000  Uiso   1.00
H323   H     0.76601   0.41945   0.36993   0.00000  Uiso   1.00
H324   H     0.79209   0.33631   0.34603   0.00000  Uiso   1.00
N325   N     0.81160   0.48556   0.23542   0.00000  Uiso   1.00
N326   N     0.85507   0.51444   0.26457   0.00000  Uiso   1.00
O327   O     0.96435   0.57963   0.25357   0.00000  Uiso   1.00
O328   O     0.72408   0.57038   0.24423   0.00000  Uiso   1.00
O329   O     0.98157   0.50691   0.33380   0.00000  Uiso   1.00
O330   O     0.74130   0.49766   0.32446   0.00000  Uiso   1.00
O331   O     0.94258   0.42962   0.25576   0.00000  Uiso   1.00
O332   O     0.70231   0.42037   0.24643   0.00000  Uiso   1.00
O333   O     0.92537   0.50234   0.17554   0.00000  Uiso   1.00
O334   O     0.68510   0.49309   0.16620   0.00000  Uiso   1.00
Zn335  Zn    0.93786   0.50618   0.25623   0.00000  Uiso   1.00
Zn336  Zn    0.72881   0.49382   0.24376   0.00000  Uiso   1.00
C337   C     0.01331   0.93124   0.24398   0.00000  Uiso   1.00
C338   C     0.05284   0.83294   0.41602   0.00000  Uiso   1.00
C339   C     0.01448   0.98366   0.22647   0.00000  Uiso   1.00
C340   C     0.03536   0.83431   0.35516   0.00000  Uiso   1.00
C341   C     0.30945   0.68016   0.24505   0.00000  Uiso   1.00
C342   C     0.31738   0.73505   0.24708   0.00000  Uiso   1.00
C343   C     0.29729   0.82897   0.14478   0.00000  Uiso   1.00
C344   C     0.27067   0.75923   0.00265   0.00000  Uiso   1.00
C345   C     0.27611   0.81676   0.08514   0.00000  Uiso   1.00
C346   C     0.02396   0.86244   0.45037   0.00000  Uiso   1.00
C347   C     0.04708   0.87045   0.00757   0.00000  Uiso   1.00
C348   C     0.13115   0.82349   0.49504   0.00000  Uiso   1.00
C349   C     0.10078   0.85213   0.02990   0.00000  Uiso   1.00
C350   C     0.20584   0.71060   0.39437   0.00000  Uiso   1.00
C351   C     0.16678   0.68928   0.33854   0.00000  Uiso   1.00
C352   C     0.05288   0.99999   0.18458   0.00000  Uiso   1.00
C353   C     0.04356   0.96173   0.13287   0.00000  Uiso   1.00
C354   C     0.10296   0.80819   0.43977   0.00000  Uiso   1.00
C355   C     0.18878   0.81020   0.01311   0.00000  Uiso   1.00
C356   C     0.21368   0.77339   0.48093   0.00000  Uiso   1.00
C357   C     0.18085   0.75145   0.42874   0.00000  Uiso   1.00
C358   C     0.12569   0.76946   0.40908   0.00000  Uiso   1.00
C359   C     0.22289   0.83446   0.06203   0.00000  Uiso   1.00
C360   C     0.30092   0.77968   0.05531   0.00000  Uiso   1.00
H361   H     0.00916   0.76528   0.07343   0.00000  Uiso   1.00
H362   H     0.15741   0.72134   0.30920   0.00000  Uiso   1.00
H363   H     0.18958   0.99310   0.31812   0.00000  Uiso   1.00
H364   H     0.24709   0.72816   0.38434   0.00000  Uiso   1.00
H365   H     0.21624   0.67660   0.42072   0.00000  Uiso   1.00
H366   H     0.31782   0.88053   0.43275   0.00000  Uiso   1.00
H367   H     0.11683   0.85971   0.07467   0.00000  Uiso   1.00
H368   H     0.06210   0.92398   0.14399   0.00000  Uiso   1.00
H369   H     0.32965   0.95449   0.11414   0.00000  Uiso   1.00
H370   H     0.06608   0.97867   0.10058   0.00000  Uiso   1.00
H371   H     0.04280   0.70508   0.16709   0.00000  Uiso   1.00
H372   H     0.27735   0.99815   0.26841   0.00000  Uiso   1.00
H373   H     0.09950   0.66925   0.20613   0.00000  Uiso   1.00
H374   H     0.15657   0.79152   0.20826   0.00000  Uiso   1.00
H375   H     0.17675   0.87510   0.29178   0.00000  Uiso   1.00
H376   H     0.29155   0.73105   0.48057   0.00000  Uiso   1.00
H377   H     0.20786   0.86628   0.08457   0.00000  Uiso   1.00
H378   H     0.02425   0.89239   0.03423   0.00000  Uiso   1.00
H379   H     0.09934   0.75278   0.36993   0.00000  Uiso   1.00
H380   H     0.12542   0.66964   0.34603   0.00000  Uiso   1.00
N381   N     0.14493   0.81890   0.23542   0.00000  Uiso   1.00
N382   N     0.18840   0.84777   0.26457   0.00000  Uiso   1.00
O383   O     0.29769   0.91296   0.25357   0.00000  Uiso   1.00
O384   O     0.05742   0.90371   0.24423   0.00000  Uiso   1.00
O385   O     0.31490   0.84024   0.33380   0.00000  Uiso   1.00
O386   O     0.07463   0.83099   0.32446   0.00000  Uiso   1.00
O387   O     0.27592   0.76296   0.25576   0.00000  Uiso   1.00
O388   O     0.03565   0.75371   0.24643   0.00000  Uiso   1.00
O389   O     0.25870   0.83567   0.17554   0.00000  Uiso   1.00
O390   O     0.01843   0.82642   0.16620   0.00000  Uiso   1.00
Zn391  Zn    0.27119   0.83951   0.25623   0.00000  Uiso   1.00
Zn392  Zn    0.06214   0.82716   0.24376   0.00000  Uiso   1.00
C393   C     0.34664   0.93124   0.24398   0.00000  Uiso   1.00
C394   C     0.38618   0.83294   0.41602   0.00000  Uiso   1.00
C395   C     0.34782   0.98366   0.22647   0.00000  Uiso   1.00
C396   C     0.36869   0.83431   0.35516   0.00000  Uiso   1.00
C397   C     0.64278   0.68016   0.24505   0.00000  Uiso   1.00
C398   C     0.65071   0.73505   0.24708   0.00000  Uiso   1.00
C399   C     0.63062   0.82897   0.14478   0.00000  Uiso   1.00
C400   C     0.60401   0.75923   0.00265   0.00000  Uiso   1.00
C401   C     0.60944   0.81676   0.08514   0.00000  Uiso   1.00
C402   C     0.35729   0.86244   0.45037   0.00000  Uiso   1.00
C403   C     0.38042   0.87045   0.00757   0.00000  Uiso   1.00
C404   C     0.46449   0.82349   0.49504   0.00000  Uiso   1.00
C405   C     0.43411   0.85213   0.02990   0.00000  Uiso   1.00
C406   C     0.53918   0.71060   0.39437   0.00000  Uiso   1.00
C407   C     0.50011   0.68928   0.33854   0.00000  Uiso   1.00
C408   C     0.38621   0.99999   0.18458   0.00000  Uiso   1.00
C409   C     0.37690   0.96173   0.13287   0.00000  Uiso   1.00
C410   C     0.43629   0.80819   0.43977   0.00000  Uiso   1.00
C411   C     0.52211   0.81020   0.01311   0.00000  Uiso   1.00
C412   C     0.54702   0.77339   0.48093   0.00000  Uiso   1.00
C413   C     0.51418   0.75145   0.42874   0.00000  Uiso   1.00
C414   C     0.45903   0.76946   0.40908   0.00000  Uiso   1.00
C415   C     0.55623   0.83446   0.06203   0.00000  Uiso   1.00
C416   C     0.63426   0.77968   0.05531   0.00000  Uiso   1.00
H417   H     0.34250   0.76528   0.07343   0.00000  Uiso   1.00
H418   H     0.49074   0.72134   0.30920   0.00000  Uiso   1.00
H419   H     0.52291   0.99310   0.31812   0.00000  Uiso   1.00
H420   H     0.58042   0.72816   0.38434   0.00000  Uiso   1.00
H421   H     0.54958   0.67660   0.42072   0.00000  Uiso   1.00
H422   H     0.65115   0.88053   0.43275   0.00000  Uiso   1.00
H423   H     0.45017   0.85971   0.07467   0.00000  Uiso   1.00
H424   H     0.39543   0.92398   0.14399   0.00000  Uiso   1.00
H425   H     0.66298   0.95449   0.11414   0.00000  Uiso   1.00
H426   H     0.39942   0.97867   0.10058   0.00000  Uiso   1.00
H427   H     0.37614   0.70508   0.16709   0.00000  Uiso   1.00
H428   H     0.61068   0.99815   0.26841   0.00000  Uiso   1.00
H429   H     0.43283   0.66925   0.20613   0.00000  Uiso   1.00
H430   H     0.48990   0.79152   0.20826   0.00000  Uiso   1.00
H431   H     0.51008   0.87510   0.29178   0.00000  Uiso   1.00
H432   H     0.62488   0.73105   0.48057   0.00000  Uiso   1.00
H433   H     0.54119   0.86628   0.08457   0.00000  Uiso   1.00
H434   H     0.35758   0.89239   0.03423   0.00000  Uiso   1.00
H435   H     0.43268   0.75278   0.36993   0.00000  Uiso   1.00
H436   H     0.45876   0.66964   0.34603   0.00000  Uiso   1.00
N437   N     0.47827   0.81890   0.23542   0.00000  Uiso   1.00
N438   N     0.52173   0.84777   0.26457   0.00000  Uiso   1.00
O439   O     0.63102   0.91296   0.25357   0.00000  Uiso   1.00
O440   O     0.39075   0.90371   0.24423   0.00000  Uiso   1.00
O441   O     0.64823   0.84024   0.33380   0.00000  Uiso   1.00
O442   O     0.40796   0.83099   0.32446   0.00000  Uiso   1.00
O443   O     0.60925   0.76296   0.25576   0.00000  Uiso   1.00
O444   O     0.36898   0.75371   0.24643   0.00000  Uiso   1.00
O445   O     0.59204   0.83567   0.17554   0.00000  Uiso   1.00
O446   O     0.35177   0.82642   0.16620   0.00000  Uiso   1.00
Zn447  Zn    0.60453   0.83951   0.25623   0.00000  Uiso   1.00
Zn448  Zn    0.39547   0.82716   0.24376   0.00000  Uiso   1.00
C449   C     0.67997   0.93124   0.24398   0.00000  Uiso   1.00
C450   C     0.71951   0.83294   0.41602   0.00000  Uiso   1.00
C451   C     0.68115   0.98366   0.22647   0.00000  Uiso   1.00
C452   C     0.70202   0.83431   0.35516   0.00000  Uiso   1.00
C453   C     0.97612   0.68016   0.24505   0.00000  Uiso   1.00
C454   C     0.98405   0.73505   0.24708   0.00000  Uiso   1.00
C455   C     0.96396   0.82897   0.14478   0.00000  Uiso   1.00
C456   C     0.93734   0.75923   0.00265   0.00000  Uiso   1.00
C457   C     0.94277   0.81676   0.08514   0.00000  Uiso   1.00
C458   C     0.69063   0.86244   0.45037   0.00000  Uiso   1.00
C459   C     0.71375   0.87045   0.00757   0.00000  Uiso   1.00
C460   C     0.79782   0.82349   0.49504   0.00000  Uiso   1.00
C461   C     0.76744   0.85213   0.02990   0.00000  Uiso   1.00
C462   C     0.87251   0.71060   0.39437   0.00000  Uiso   1.00
C463   C     0.83344   0.68928   0.33854   0.00000  Uiso   1.00
C464   C     0.71954   0.99999   0.18458   0.00000  Uiso   1.00
C465   C     0.71023   0.96173   0.13287   0.00000  Uiso   1.00
C466   C     0.76963   0.80819   0.43977   0.00000  Uiso   1.00
C467   C     0.85545   0.81020   0.01311   0.00000  Uiso   1.00
C468   C     0.88035   0.77339   0.48093   0.00000  Uiso   1.00
C469   C     0.84752   0.75145   0.42874   0.00000  Uiso   1.00
C470   C     0.79236   0.76946   0.40908   0.00000  Uiso   1.00
C471   C     0.88956   0.83446   0.06203   0.00000  Uiso   1.00
C472   C     0.96759   0.77968   0.05531   0.00000  Uiso   1.00
H473   H     0.67583   0.76528   0.07343   0.00000  Uiso   1.00
H474   H     0.82407   0.72134   0.30920   0.00000  Uiso   1.00
H475   H     0.85625   0.99310   0.31812   0.00000  Uiso   1.00
H476   H     0.91376   0.72816   0.38434   0.00000  Uiso   1.00
H477   H     0.88291   0.67660   0.42072   0.00000  Uiso   1.00
H478   H     0.98448   0.88053   0.43275   0.00000  Uiso   1.00
H479   H     0.78350   0.85971   0.07467   0.00000  Uiso   1.00
H480   H     0.72876   0.92398   0.14399   0.00000  Uiso   1.00
H481   H     0.99632   0.95449   0.11414   0.00000  Uiso   1.00
H482   H     0.73275   0.97867   0.10058   0.00000  Uiso   1.00
H483   H     0.70947   0.70508   0.16709   0.00000  Uiso   1.00
H484   H     0.94401   0.99815   0.26841   0.00000  Uiso   1.00
H485   H     0.76616   0.66925   0.20613   0.00000  Uiso   1.00
H486   H     0.82324   0.79152   0.20826   0.00000  Uiso   1.00
H487   H     0.84342   0.87510   0.29178   0.00000  Uiso   1.00
H488   H     0.95821   0.73105   0.48057   0.00000  Uiso   1.00
H489   H     0.87453   0.86628   0.08457   0.00000  Uiso   1.00
H490   H     0.69092   0.89239   0.03423   0.00000  Uiso   1.00
H491   H     0.76601   0.75278   0.36993   0.00000  Uiso   1.00
H492   H     0.79209   0.66964   0.34603   0.00000  Uiso   1.00
N493   N     0.81160   0.81890   0.23542   0.00000  Uiso   1.00
N494   N     0.85507   0.84777   0.26457   0.00000  Uiso   1.00
O495   O     0.96435   0.91296   0.25357   0.00000  Uiso   1.00
O496   O     0.72408   0.90371   0.24423   0.00000  Uiso   1.00
O497   O     0.98157   0.84024   0.33380   0.00000  Uiso   1.00
O498   O     0.74130   0.83099   0.32446   0.00000  Uiso   1.00
O499   O     0.94258   0.76296   0.25576   0.00000  Uiso   1.00
O500   O     0.70231   0.75371   0.24643   0.00000  Uiso   1.00
O501   O     0.92537   0.83567   0.17554   0.00000  Uiso   1.00
O502   O     0.68510   0.82642   0.16620   0.00000  Uiso   1.00
Zn503  Zn    0.93786   0.83951   0.25623   0.00000  Uiso   1.00
Zn504  Zn    0.72881   0.82716   0.24376   0.00000  Uiso   1.00
C505   C     0.01331   0.26457   0.74398   0.00000  Uiso   1.00
C506   C     0.05284   0.16627   0.91602   0.00000  Uiso   1.00
C507   C     0.01448   0.31699   0.72647   0.00000  Uiso   1.00
C508   C     0.03536   0.16765   0.85516   0.00000  Uiso   1.00
C509   C     0.30945   0.01349   0.74505   0.00000  Uiso   1.00
C510   C     0.31738   0.06838   0.74708   0.00000  Uiso   1.00
C511   C     0.29729   0.16230   0.64478   0.00000  Uiso   1.00
C512   C     0.27067   0.09256   0.50265   0.00000  Uiso   1.00
C513   C     0.27611   0.15010   0.58514   0.00000  Uiso   1.00
C514   C     0.02396   0.19577   0.95037   0.00000  Uiso   1.00
C515   C     0.04708   0.20379   0.50757   0.00000  Uiso   1.00
C516   C     0.13115   0.15682   0.99504   0.00000  Uiso   1.00
C517   C     0.10078   0.18547   0.52990   0.00000  Uiso   1.00
C518   C     0.20584   0.04394   0.89437   0.00000  Uiso   1.00
C519   C     0.16678   0.02262   0.83854   0.00000  Uiso   1.00
C520   C     0.05288   0.33332   0.68458   0.00000  Uiso   1.00
C521   C     0.04356   0.29506   0.63287   0.00000  Uiso   1.00
C522   C     0.10296   0.14153   0.93977   0.00000  Uiso   1.00
C523   C     0.18878   0.14353   0.51311   0.00000  Uiso   1.00
C524   C     0.21368   0.10672   0.98093   0.00000  Uiso   1.00
C525   C     0.18085   0.08478   0.92874   0.00000  Uiso   1.00
C526   C     0.12569   0.10279   0.90908   0.00000  Uiso   1.00
C527   C     0.22289   0.16779   0.56203   0.00000  Uiso   1.00
C528   C     0.30092   0.11302   0.55531   0.00000  Uiso   1.00
H529   H     0.00916   0.09862   0.57343   0.00000  Uiso   1.00
H530   H     0.15741   0.05467   0.80920   0.00000  Uiso   1.00
H531   H     0.18958   0.32643   0.81812   0.00000  Uiso   1.00
H532   H     0.24709   0.06150   0.88434   0.00000  Uiso   1.00
H533   H     0.21624   0.00993   0.92072   0.00000  Uiso   1.00
H534   H     0.31782   0.21386   0.93275   0.00000  Uiso   1.00
H535   H     0.11683   0.19304   0.57467   0.00000  Uiso   1.00
H536   H     0.06210   0.25731   0.64399   0.00000  Uiso   1.00
H537   H     0.32965   0.28782   0.61414   0.00000  Uiso   1.00
H538   H     0.06608   0.31200   0.60058   0.00000  Uiso   1.00
H539   H     0.04280   0.03841   0.66709   0.00000  Uiso   1.00
H540   H     0.27735   0.33149   0.76841   0.00000  Uiso   1.00
H541   H     0.09950   0.00258   0.70613   0.00000  Uiso   1.00
H542   H     0.15657   0.12485   0.70826   0.00000  Uiso   1.00
H543   H     0.17675   0.20844   0.79178   0.00000  Uiso   1.00
H544   H     0.29155   0.06438   0.98057   0.00000  Uiso   1.00
H545   H     0.20786   0.19961   0.58457   0.00000  Uiso   1.00
H546   H     0.02425   0.22573   0.53423   0.00000  Uiso   1.00
H547   H     0.09934   0.08612   0.86993   0.00000  Uiso   1.00
H548   H     0.12542   0.00297   0.84603   0.00000  Uiso   1.00
N549   N     0.14493   0.15223   0.73542   0.00000  Uiso   1.00
N550   N     0.18840   0.18110   0.76457   0.00000  Uiso   1.00
O551   O     0.29769   0.24629   0.75357   0.00000  Uiso   1.00
O552   O     0.05742   0.23704   0.74423   0.00000  Uiso   1.00
O553   O     0.31490   0.17358   0.83380   0.00000  Uiso   1.00
O554   O     0.07463   0.16433   0.82446   0.00000  Uiso   1.00
O555   O     0.27592   0.09629   0.75576   0.00000  Uiso   1.00
O556   O     0.03565   0.08704   0.74643   0.00000  Uiso   1.00
O557   O     0.25870   0.16901   0.67554   0.00000  Uiso   1.00
O558   O     0.01843   0.15976   0.66620   0.00000  Uiso   1.00
Zn559  Zn    0.27119   0.17284   0.75623   0.00000  Uiso   1.00
Zn560  Zn    0.06214   0.16049   0.74376   0.00000  Uiso   1.00
C561   C     0.34664   0.26457   0.74398   0.00000  Uiso   1.00
C562   C     0.38618   0.16627   0.91602   0.00000  Uiso   1.00
C563   C     0.34782   0.31699   0.72647   0.00000  Uiso   1.00
C564   C     0.36869   0.16765   0.85516   0.00000  Uiso   1.00
C565   C     0.64278   0.01349   0.74505   0.00000  Uiso   1.00
C566   C     0.65071   0.06838   0.74708   0.00000  Uiso   1.00
C567   C     0.63062   0.16230   0.64478   0.00000  Uiso   1.00
C568   C     0.60401   0.09256   0.50265   0.00000  Uiso   1.00
C569   C     0.60944   0.15010   0.58514   0.00000  Uiso   1.00
C570   C     0.35729   0.19577   0.95037   0.00000  Uiso   1.00
C571   C     0.38042   0.20379   0.50757   0.00000  Uiso   1.00
C572   C     0.46449   0.15682   0.99504   0.00000  Uiso   1.00
C573   C     0.43411   0.18547   0.52990   0.00000  Uiso   1.00
C574   C     0.53918   0.04394   0.89437   0.00000  Uiso   1.00
C575   C     0.50011   0.02262   0.83854   0.00000  Uiso   1.00
C576   C     0.38621   0.33332   0.68458   0.00000  Uiso   1.00
C577   C     0.37690   0.29506   0.63287   0.00000  Uiso   1.00
C578   C     0.43629   0.14153   0.93977   0.00000  Uiso   1.00
C579   C     0.52211   0.14353   0.51311   0.00000  Uiso   1.00
C580   C     0.54702   0.10672   0.98093   0.00000  Uiso   1.00
C581   C     0.51418   0.08478   0.92874   0.00000  Uiso   1.00
C582   C     0.45903   0.10279   0.90908   0.00000  Uiso   1.00
C583   C     0.55623   0.16779   0.56203   0.00000  Uiso   1.00
C584   C     0.63426   0.11302   0.55531   0.00000  Uiso   1.00
H585   H     0.34250   0.09862   0.57343   0.00000  Uiso   1.00
H586   H     0.49074   0.05467   0.80920   0.00000  Uiso   1.00
H587   H     0.52291   0.32643   0.81812   0.00000  Uiso   1.00
H588   H     0.58042   0.06150   0.88434   0.00000  Uiso   1.00
H589   H     0.54958   0.00993   0.92072   0.00000  Uiso   1.00
H590   H     0.65115   0.21386   0.93275   0.00000  Uiso   1.00
H591   H     0.45017   0.19304   0.57467   0.00000  Uiso   1.00
H592   H     0.39543   0.25731   0.64399   0.00000  Uiso   1.00
H593   H     0.66298   0.28782   0.61414   0.00000  Uiso   1.00
H594   H     0.39942   0.31200   0.60058   0.00000  Uiso   1.00
H595   H     0.37614   0.03841   0.66709   0.00000  Uiso   1.00
H596   H     0.61068   0.33149   0.76841   0.00000  Uiso   1.00
H597   H     0.43283   0.00258   0.70613   0.00000  Uiso   1.00
H598   H     0.48990   0.12485   0.70826   0.00000  Uiso   1.00
H599   H     0.51008   0.20844   0.79178   0.00000  Uiso   1.00
H600   H     0.62488   0.06438   0.98057   0.00000  Uiso   1.00
H601   H     0.54119   0.19961   0.58457   0.00000  Uiso   1.00
H602   H     0.35758   0.22573   0.53423   0.00000  Uiso   1.00
H603   H     0.43268   0.08612   0.86993   0.00000  Uiso   1.00
H604   H     0.45876   0.00297   0.84603   0.00000  Uiso   1.00
N605   N     0.47827   0.15223   0.73542   0.00000  Uiso   1.00
N606   N     0.52173   0.18110   0.76457   0.00000  Uiso   1.00
O607   O     0.63102   0.24629   0.75357   0.00000  Uiso   1.00
O608   O     0.39075   0.23704   0.74423   0.00000  Uiso   1.00
O609   O     0.64823   0.17358   0.83380   0.00000  Uiso   1.00
O610   O     0.40796   0.16433   0.82446   0.00000  Uiso   1.00
O611   O     0.60925   0.09629   0.75576   0.00000  Uiso   1.00
O612   O     0.36898   0.08704   0.74643   0.00000  Uiso   1.00
O613   O     0.59204   0.16901   0.67554   0.00000  Uiso   1.00
O614   O     0.35177   0.15976   0.66620   0.00000  Uiso   1.00
Zn615  Zn    0.60453   0.17284   0.75623   0.00000  Uiso   1.00
Zn616  Zn    0.39547   0.16049   0.74376   0.00000  Uiso   1.00
C617   C     0.67997   0.26457   0.74398   0.00000  Uiso   1.00
C618   C     0.71951   0.16627   0.91602   0.00000  Uiso   1.00
C619   C     0.68115   0.31699   0.72647   0.00000  Uiso   1.00
C620   C     0.70202   0.16765   0.85516   0.00000  Uiso   1.00
C621   C     0.97612   0.01349   0.74505   0.00000  Uiso   1.00
C622   C     0.98405   0.06838   0.74708   0.00000  Uiso   1.00
C623   C     0.96396   0.16230   0.64478   0.00000  Uiso   1.00
C624   C     0.93734   0.09256   0.50265   0.00000  Uiso   1.00
C625   C     0.94277   0.15010   0.58514   0.00000  Uiso   1.00
C626   C     0.69063   0.19577   0.95037   0.00000  Uiso   1.00
C627   C     0.71375   0.20379   0.50757   0.00000  Uiso   1.00
C628   C     0.79782   0.15682   0.99504   0.00000  Uiso   1.00
C629   C     0.76744   0.18547   0.52990   0.00000  Uiso   1.00
C630   C     0.87251   0.04394   0.89437   0.00000  Uiso   1.00
C631   C     0.83344   0.02262   0.83854   0.00000  Uiso   1.00
C632   C     0.71954   0.33332   0.68458   0.00000  Uiso   1.00
C633   C     0.71023   0.29506   0.63287   0.00000  Uiso   1.00
C634   C     0.76963   0.14153   0.93977   0.00000  Uiso   1.00
C635   C     0.85545   0.14353   0.51311   0.00000  Uiso   1.00
C636   C     0.88035   0.10672   0.98093   0.00000  Uiso   1.00
C637   C     0.84752   0.08478   0.92874   0.00000  Uiso   1.00
C638   C     0.79236   0.10279   0.90908   0.00000  Uiso   1.00
C639   C     0.88956   0.16779   0.56203   0.00000  Uiso   1.00
C640   C     0.96759   0.11302   0.55531   0.00000  Uiso   1.00
H641   H     0.67583   0.09862   0.57343   0.00000  Uiso   1.00
H642   H     0.82407   0.05467   0.80920   0.00000  Uiso   1.00
H643   H     0.85625   0.32643   0.81812   0.00000  Uiso   1.00
H644   H     0.91376   0.06150   0.88434   0.00000  Uiso   1.00
H645   H     0.88291   0.00993   0.92072   0.00000  Uiso   1.00
H646   H     0.98448   0.21386   0.93275   0.00000  Uiso   1.00
H647   H     0.78350   0.19304   0.57467   0.00000  Uiso   1.00
H648   H     0.72876   0.25731   0.64399   0.00000  Uiso   1.00
H649   H     0.99632   0.28782   0.61414   0.00000  Uiso   1.00
H650   H     0.73275   0.31200   0.60058   0.00000  Uiso   1.00
H651   H     0.70947   0.03841   0.66709   0.00000  Uiso   1.00
H652   H     0.94401   0.33149   0.76841   0.00000  Uiso   1.00
H653   H     0.76616   0.00258   0.70613   0.00000  Uiso   1.00
H654   H     0.82324   0.12485   0.70826   0.00000  Uiso   1.00
H655   H     0.84342   0.20844   0.79178   0.00000  Uiso   1.00
H656   H     0.95821   0.06438   0.98057   0.00000  Uiso   1.00
H657   H     0.87453   0.19961   0.58457   0.00000  Uiso   1.00
H658   H     0.69092   0.22573   0.53423   0.00000  Uiso   1.00
H659   H     0.76601   0.08612   0.86993   0.00000  Uiso   1.00
H660   H     0.79209   0.00297   0.84603   0.00000  Uiso   1.00
N661   N     0.81160   0.15223   0.73542   0.00000  Uiso   1.00
N662   N     0.85507   0.18110   0.76457   0.00000  Uiso   1.00
O663   O     0.96435   0.24629   0.75357   0.00000  Uiso   1.00
O664   O     0.72408   0.23704   0.74423   0.00000  Uiso   1.00
O665   O     0.98157   0.17358   0.83380   0.00000  Uiso   1.00
O666   O     0.74130   0.16433   0.82446   0.00000  Uiso   1.00
O667   O     0.94258   0.09629   0.75576   0.00000  Uiso   1.00
O668   O     0.70231   0.08704   0.74643   0.00000  Uiso   1.00
O669   O     0.92537   0.16901   0.67554   0.00000  Uiso   1.00
O670   O     0.68510   0.15976   0.66620   0.00000  Uiso   1.00
Zn671  Zn    0.93786   0.17284   0.75623   0.00000  Uiso   1.00
Zn672  Zn    0.72881   0.16049   0.74376   0.00000  Uiso   1.00
C673   C     0.01331   0.59790   0.74398   0.00000  Uiso   1.00
C674   C     0.05284   0.49960   0.91602   0.00000  Uiso   1.00
C675   C     0.01448   0.65033   0.72647   0.00000  Uiso   1.00
C676   C     0.03536   0.50098   0.85516   0.00000  Uiso   1.00
C677   C     0.30945   0.34682   0.74505   0.00000  Uiso   1.00
C678   C     0.31738   0.40171   0.74708   0.00000  Uiso   1.00
C679   C     0.29729   0.49564   0.64478   0.00000  Uiso   1.00
C680   C     0.27067   0.42589   0.50265   0.00000  Uiso   1.00
C681   C     0.27611   0.48343   0.58514   0.00000  Uiso   1.00
C682   C     0.02396   0.52910   0.95037   0.00000  Uiso   1.00
C683   C     0.04708   0.53712   0.50757   0.00000  Uiso   1.00
C684   C     0.13115   0.49016   0.99504   0.00000  Uiso   1.00
C685   C     0.10078   0.51880   0.52990   0.00000  Uiso   1.00
C686   C     0.20584   0.37727   0.89437   0.00000  Uiso   1.00
C687   C     0.16678   0.35595   0.83854   0.00000  Uiso   1.00
C688   C     0.05288   0.66665   0.68458   0.00000  Uiso   1.00
C689   C     0.04356   0.62839   0.63287   0.00000  Uiso   1.00
C690   C     0.10296   0.47486   0.93977   0.00000  Uiso   1.00
C691   C     0.18878   0.47686   0.51311   0.00000  Uiso   1.00
C692   C     0.21368   0.44005   0.98093   0.00000  Uiso   1.00
C693   C     0.18085   0.41811   0.92874   0.00000  Uiso   1.00
C694   C     0.12569   0.43613   0.90908   0.00000  Uiso   1.00
C695   C     0.22289   0.50113   0.56203   0.00000  Uiso   1.00
C696   C     0.30092   0.44635   0.55531   0.00000  Uiso   1.00
H697   H     0.00916   0.43195   0.57343   0.00000  Uiso   1.00
H698   H     0.15741   0.38800   0.80920   0.00000  Uiso   1.00
H699   H     0.18958   0.65977   0.81812   0.00000  Uiso   1.00
H700   H     0.24709   0.39483   0.88434   0.00000  Uiso   1.00
H701   H     0.21624   0.34326   0.92072   0.00000  Uiso   1.00
H702   H     0.31782   0.54720   0.93275   0.00000  Uiso   1.00
H703   H     0.11683   0.52637   0.57467   0.00000  Uiso   1.00
H704   H     0.06210   0.59064   0.64399   0.00000  Uiso   1.00
H705   H     0.32965   0.62115   0.61414   0.00000  Uiso   1.00
H706   H     0.06608   0.64534   0.60058   0.00000  Uiso   1.00
H707   H     0.04280   0.37175   0.66709   0.00000  Uiso   1.00
H708   H     0.27735   0.66482   0.76841   0.00000  Uiso   1.00
H709   H     0.09950   0.33592   0.70613   0.00000  Uiso   1.00
H710   H     0.15657   0.45818   0.70826   0.00000  Uiso   1.00
H711   H     0.17675   0.54177   0.79178   0.00000  Uiso   1.00
H712   H     0.29155   0.39771   0.98057   0.00000  Uiso   1.00
H713   H     0.20786   0.53294   0.58457   0.00000  Uiso   1.00
H714   H     0.02425   0.55906   0.53423   0.00000  Uiso   1.00
H715   H     0.09934   0.41945   0.86993   0.00000  Uiso   1.00
H716   H     0.12542   0.33631   0.84603   0.00000  Uiso   1.00
N717   N     0.14493   0.48556   0.73542   0.00000  Uiso   1.00
N718   N     0.18840   0.51444   0.76457   0.00000  Uiso   1.00
O719   O     0.29769   0.57963   0.75357   0.00000  Uiso   1.00
O720   O     0.05742   0.57038   0.74423   0.00000  Uiso   1.00
O721   O     0.31490   0.50691   0.83380   0.00000  Uiso   1.00
O722   O     0.07463   0.49766   0.82446   0.00000  Uiso   1.00
O723   O     0.27592   0.42962   0.75576   0.00000  Uiso   1.00
O724   O     0.03565   0.42037   0.74643   0.00000  Uiso   1.00
O725   O     0.25870   0.50234   0.67554   0.00000  Uiso   1.00
O726   O     0.01843   0.49309   0.66620   0.00000  Uiso   1.00
Zn727  Zn    0.27119   0.50618   0.75623   0.00000  Uiso   1.00
Zn728  Zn    0.06214   0.49382   0.74376   0.00000  Uiso   1.00
C729   C     0.34664   0.59790   0.74398   0.00000  Uiso   1.00
C730   C     0.38618   0.49960   0.91602   0.00000  Uiso   1.00
C731   C     0.34782   0.65033   0.72647   0.00000  Uiso   1.00
C732   C     0.36869   0.50098   0.85516   0.00000  Uiso   1.00
C733   C     0.64278   0.34682   0.74505   0.00000  Uiso   1.00
C734   C     0.65071   0.40171   0.74708   0.00000  Uiso   1.00
C735   C     0.63062   0.49564   0.64478   0.00000  Uiso   1.00
C736   C     0.60401   0.42589   0.50265   0.00000  Uiso   1.00
C737   C     0.60944   0.48343   0.58514   0.00000  Uiso   1.00
C738   C     0.35729   0.52910   0.95037   0.00000  Uiso   1.00
C739   C     0.38042   0.53712   0.50757   0.00000  Uiso   1.00
C740   C     0.46449   0.49016   0.99504   0.00000  Uiso   1.00
C741   C     0.43411   0.51880   0.52990   0.00000  Uiso   1.00
C742   C     0.53918   0.37727   0.89437   0.00000  Uiso   1.00
C743   C     0.50011   0.35595   0.83854   0.00000  Uiso   1.00
C744   C     0.38621   0.66665   0.68458   0.00000  Uiso   1.00
C745   C     0.37690   0.62839   0.63287   0.00000  Uiso   1.00
C746   C     0.43629   0.47486   0.93977   0.00000  Uiso   1.00
C747   C     0.52211   0.47686   0.51311   0.00000  Uiso   1.00
C748   C     0.54702   0.44005   0.98093   0.00000  Uiso   1.00
C749   C     0.51418   0.41811   0.92874   0.00000  Uiso   1.00
C750   C     0.45903   0.43613   0.90908   0.00000  Uiso   1.00
C751   C     0.55623   0.50113   0.56203   0.00000  Uiso   1.00
C752   C     0.63426   0.44635   0.55531   0.00000  Uiso   1.00
H753   H     0.34250   0.43195   0.57343   0.00000  Uiso   1.00
H754   H     0.49074   0.38800   0.80920   0.00000  Uiso   1.00
H755   H     0.52291   0.65977   0.81812   0.00000  Uiso   1.00
H756   H     0.58042   0.39483   0.88434   0.00000  Uiso   1.00
H757   H     0.54958   0.34326   0.92072   0.00000  Uiso   1.00
H758   H     0.65115   0.54720   0.93275   0.00000  Uiso   1.00
H759   H     0.45017   0.52637   0.57467   0.00000  Uiso   1.00
H760   H     0.39543   0.59064   0.64399   0.00000  Uiso   1.00
H761   H     0.66298   0.62115   0.61414   0.00000  Uiso   1.00
H762   H     0.39942   0.64534   0.60058   0.00000  Uiso   1.00
H763   H     0.37614   0.37175   0.66709   0.00000  Uiso   1.00
H764   H     0.61068   0.66482   0.76841   0.00000  Uiso   1.00
H765   H     0.43283   0.33592   0.70613   0.00000  Uiso   1.00
H766   H     0.48990   0.45818   0.70826   0.00000  Uiso   1.00
H767   H     0.51008   0.54177   0.79178   0.00000  Uiso   1.00
H768   H     0.62488   0.39771   0.98057   0.00000  Uiso   1.00
H769   H     0.54119   0.53294   0.58457   0.00000  Uiso   1.00
H770   H     0.35758   0.55906   0.53423   0.00000  Uiso   1.00
H771   H     0.43268   0.41945   0.86993   0.00000  Uiso   1.00
H772   H     0.45876   0.33631   0.84603   0.00000  Uiso   1.00
N773   N     0.47827   0.48556   0.73542   0.00000  Uiso   1.00
N774   N     0.52173   0.51444   0.76457   0.00000  Uiso   1.00
O775   O     0.63102   0.57963   0.75357   0.00000  Uiso   1.00
O776   O     0.39075   0.57038   0.74423   0.00000  Uiso   1.00
O777   O     0.64823   0.50691   0.83380   0.00000  Uiso   1.00
O778   O     0.40796   0.49766   0.82446   0.00000  Uiso   1.00
O779   O     0.60925   0.42962   0.75576   0.00000  Uiso   1.00
O780   O     0.36898   0.42037   0.74643   0.00000  Uiso   1.00
O781   O     0.59204   0.50234   0.67554   0.00000  Uiso   1.00
O782   O     0.35177   0.49309   0.66620   0.00000  Uiso   1.00
Zn783  Zn    0.60453   0.50618   0.75623   0.00000  Uiso   1.00
Zn784  Zn    0.39547   0.49382   0.74376   0.00000  Uiso   1.00
C785   C     0.67997   0.59790   0.74398   0.00000  Uiso   1.00
C786   C     0.71951   0.49960   0.91602   0.00000  Uiso   1.00
C787   C     0.68115   0.65033   0.72647   0.00000  Uiso   1.00
C788   C     0.70202   0.50098   0.85516   0.00000  Uiso   1.00
C789   C     0.97612   0.34682   0.74505   0.00000  Uiso   1.00
C790   C     0.98405   0.40171   0.74708   0.00000  Uiso   1.00
C791   C     0.96396   0.49564   0.64478   0.00000  Uiso   1.00
C792   C     0.93734   0.42589   0.50265   0.00000  Uiso   1.00
C793   C     0.94277   0.48343   0.58514   0.00000  Uiso   1.00
C794   C     0.69063   0.52910   0.95037   0.00000  Uiso   1.00
C795   C     0.71375   0.53712   0.50757   0.00000  Uiso   1.00
C796   C     0.79782   0.49016   0.99504   0.00000  Uiso   1.00
C797   C     0.76744   0.51880   0.52990   0.00000  Uiso   1.00
C798   C     0.87251   0.37727   0.89437   0.00000  Uiso   1.00
C799   C     0.83344   0.35595   0.83854   0.00000  Uiso   1.00
C800   C     0.71954   0.66665   0.68458   0.00000  Uiso   1.00
C801   C     0.71023   0.62839   0.63287   0.00000  Uiso   1.00
C802   C     0.76963   0.47486   0.93977   0.00000  Uiso   1.00
C803   C     0.85545   0.47686   0.51311   0.00000  Uiso   1.00
C804   C     0.88035   0.44005   0.98093   0.00000  Uiso   1.00
C805   C     0.84752   0.41811   0.92874   0.00000  Uiso   1.00
C806   C     0.79236   0.43613   0.90908   0.00000  Uiso   1.00
C807   C     0.88956   0.50113   0.56203   0.00000  Uiso   1.00
C808   C     0.96759   0.44635   0.55531   0.00000  Uiso   1.00
H809   H     0.67583   0.43195   0.57343   0.00000  Uiso   1.00
H810   H     0.82407   0.38800   0.80920   0.00000  Uiso   1.00
H811   H     0.85625   0.65977   0.81812   0.00000  Uiso   1.00
H812   H     0.91376   0.39483   0.88434   0.00000  Uiso   1.00
H813   H     0.88291   0.34326   0.92072   0.00000  Uiso   1.00
H814   H     0.98448   0.54720   0.93275   0.00000  Uiso   1.00
H815   H     0.78350   0.52637   0.57467   0.00000  Uiso   1.00
H816   H     0.72876   0.59064   0.64399   0.00000  Uiso   1.00
H817   H     0.99632   0.62115   0.61414   0.00000  Uiso   1.00
H818   H     0.73275   0.64534   0.60058   0.00000  Uiso   1.00
H819   H     0.70947   0.37175   0.66709   0.00000  Uiso   1.00
H820   H     0.94401   0.66482   0.76841   0.00000  Uiso   1.00
H821   H     0.76616   0.33592   0.70613   0.00000  Uiso   1.00
H822   H     0.82324   0.45818   0.70826   0.00000  Uiso   1.00
H823   H     0.84342   0.54177   0.79178   0.00000  Uiso   1.00
H824   H     0.95821   0.39771   0.98057   0.00000  Uiso   1.00
H825   H     0.87453   0.53294   0.58457   0.00000  Uiso   1.00
H826   H     0.69092   0.55906   0.53423   0.00000  Uiso   1.00
H827   H     0.76601   0.41945   0.86993   0.00000  Uiso   1.00
H828   H     0.79209   0.33631   0.84603   0.00000  Uiso   1.00
N829   N     0.81160   0.48556   0.73542   0.00000  Uiso   1.00
N830   N     0.85507   0.51444   0.76457   0.00000  Uiso   1.00
O831   O     0.96435   0.57963   0.75357   0.00000  Uiso   1.00
O832   O     0.72408   0.57038   0.74423   0.00000  Uiso   1.00
O833   O     0.98157   0.50691   0.83380   0.00000  Uiso   1.00
O834   O     0.74130   0.49766   0.82446   0.00000  Uiso   1.00
O835   O     0.94258   0.42962   0.75576   0.00000  Uiso   1.00
O836   O     0.70231   0.42037   0.74643   0.00000  Uiso   1.00
O837   O     0.92537   0.50234   0.67554   0.00000  Uiso   1.00
O838   O     0.68510   0.49309   0.66620   0.00000  Uiso   1.00
Zn839  Zn    0.93786   0.50618   0.75623   0.00000  Uiso   1.00
Zn840  Zn    0.72881   0.49382   0.74376   0.00000  Uiso   1.00
C841   C     0.01331   0.93124   0.74398   0.00000  Uiso   1.00
C842   C     0.05284   0.83294   0.91602   0.00000  Uiso   1.00
C843   C     0.01448   0.98366   0.72647   0.00000  Uiso   1.00
C844   C     0.03536   0.83431   0.85516   0.00000  Uiso   1.00
C845   C     0.30945   0.68016   0.74505   0.00000  Uiso   1.00
C846   C     0.31738   0.73505   0.74708   0.00000  Uiso   1.00
C847   C     0.29729   0.82897   0.64478   0.00000  Uiso   1.00
C848   C     0.27067   0.75923   0.50265   0.00000  Uiso   1.00
C849   C     0.27611   0.81676   0.58514   0.00000  Uiso   1.00
C850   C     0.02396   0.86244   0.95037   0.00000  Uiso   1.00
C851   C     0.04708   0.87045   0.50757   0.00000  Uiso   1.00
C852   C     0.13115   0.82349   0.99504   0.00000  Uiso   1.00
C853   C     0.10078   0.85213   0.52990   0.00000  Uiso   1.00
C854   C     0.20584   0.71060   0.89437   0.00000  Uiso   1.00
C855   C     0.16678   0.68928   0.83854   0.00000  Uiso   1.00
C856   C     0.05288   0.99999   0.68458   0.00000  Uiso   1.00
C857   C     0.04356   0.96173   0.63287   0.00000  Uiso   1.00
C858   C     0.10296   0.80819   0.93977   0.00000  Uiso   1.00
C859   C     0.18878   0.81020   0.51311   0.00000  Uiso   1.00
C860   C     0.21368   0.77339   0.98093   0.00000  Uiso   1.00
C861   C     0.18085   0.75145   0.92874   0.00000  Uiso   1.00
C862   C     0.12569   0.76946   0.90908   0.00000  Uiso   1.00
C863   C     0.22289   0.83446   0.56203   0.00000  Uiso   1.00
C864   C     0.30092   0.77968   0.55531   0.00000  Uiso   1.00
H865   H     0.00916   0.76528   0.57343   0.00000  Uiso   1.00
H866   H     0.15741   0.72134   0.80920   0.00000  Uiso   1.00
H867   H     0.18958   0.99310   0.81812   0.00000  Uiso   1.00
H868   H     0.24709   0.72816   0.88434   0.00000  Uiso   1.00
H869   H     0.21624   0.67660   0.92072   0.00000  Uiso   1.00
H870   H     0.31782   0.88053   0.93275   0.00000  Uiso   1.00
H871   H     0.11683   0.85971   0.57467   0.00000  Uiso   1.00
H872   H     0.06210   0.92398   0.64399   0.00000  Uiso   1.00
H873   H     0.32965   0.95449   0.61414   0.00000  Uiso   1.00
H874   H     0.06608   0.97867   0.60058   0.00000  Uiso   1.00
H875   H     0.04280   0.70508   0.66709   0.00000  Uiso   1.00
H876   H     0.27735   0.99815   0.76841   0.00000  Uiso   1.00
H877   H     0.09950   0.66925   0.70613   0.00000  Uiso   1.00
H878   H     0.15657   0.79152   0.70826   0.00000  Uiso   1.00
H879   H     0.17675   0.87510   0.79178   0.00000  Uiso   1.00
H880   H     0.29155   0.73105   0.98057   0.00000  Uiso   1.00
H881   H     0.20786   0.86628   0.58457   0.00000  Uiso   1.00
H882   H     0.02425   0.89239   0.53423   0.00000  Uiso   1.00
H883   H     0.09934   0.75278   0.86993   0.00000  Uiso   1.00
H884   H     0.12542   0.66964   0.84603   0.00000  Uiso   1.00
N885   N     0.14493   0.81890   0.73542   0.00000  Uiso   1.00
N886   N     0.18840   0.84777   0.76457   0.00000  Uiso   1.00
O887   O     0.29769   0.91296   0.75357   0.00000  Uiso   1.00
O888   O     0.05742   0.90371   0.74423   0.00000  Uiso   1.00
O889   O     0.31490   0.84024   0.83380   0.00000  Uiso   1.00
O890   O     0.07463   0.83099   0.82446   0.00000  Uiso   1.00
O891   O     0.27592   0.76296   0.75576   0.00000  Uiso   1.00
O892   O     0.03565   0.75371   0.74643   0.00000  Uiso   1.00
O893   O     0.25870   0.83567   0.67554   0.00000  Uiso   1.00
O894   O     0.01843   0.82642   0.66620   0.00000  Uiso   1.00
Zn895  Zn    0.27119   0.83951   0.75623   0.00000  Uiso   1.00
Zn896  Zn    0.06214   0.82716   0.74376   0.00000  Uiso   1.00
C897   C     0.34664   0.93124   0.74398   0.00000  Uiso   1.00
C898   C     0.38618   0.83294   0.91602   0.00000  Uiso   1.00
C899   C     0.34782   0.98366   0.72647   0.00000  Uiso   1.00
C900   C     0.36869   0.83431   0.85516   0.00000  Uiso   1.00
C901   C     0.64278   0.68016   0.74505   0.00000  Uiso   1.00
C902   C     0.65071   0.73505   0.74708   0.00000  Uiso   1.00
C903   C     0.63062   0.82897   0.64478   0.00000  Uiso   1.00
C904   C     0.60401   0.75923   0.50265   0.00000  Uiso   1.00
C905   C     0.60944   0.81676   0.58514   0.00000  Uiso   1.00
C906   C     0.35729   0.86244   0.95037   0.00000  Uiso   1.00
C907   C     0.38042   0.87045   0.50757   0.00000  Uiso   1.00
C908   C     0.46449   0.82349   0.99504   0.00000  Uiso   1.00
C909   C     0.43411   0.85213   0.52990   0.00000  Uiso   1.00
C910   C     0.53918   0.71060   0.89437   0.00000  Uiso   1.00
C911   C     0.50011   0.68928   0.83854   0.00000  Uiso   1.00
C912   C     0.38621   0.99999   0.68458   0.00000  Uiso   1.00
C913   C     0.37690   0.96173   0.63287   0.00000  Uiso   1.00
C914   C     0.43629   0.80819   0.93977   0.00000  Uiso   1.00
C915   C     0.52211   0.81020   0.51311   0.00000  Uiso   1.00
C916   C     0.54702   0.77339   0.98093   0.00000  Uiso   1.00
C917   C     0.51418   0.75145   0.92874   0.00000  Uiso   1.00
C918   C     0.45903   0.76946   0.90908   0.00000  Uiso   1.00
C919   C     0.55623   0.83446   0.56203   0.00000  Uiso   1.00
C920   C     0.63426   0.77968   0.55531   0.00000  Uiso   1.00
H921   H     0.34250   0.76528   0.57343   0.00000  Uiso   1.00
H922   H     0.49074   0.72134   0.80920   0.00000  Uiso   1.00
H923   H     0.52291   0.99310   0.81812   0.00000  Uiso   1.00
H924   H     0.58042   0.72816   0.88434   0.00000  Uiso   1.00
H925   H     0.54958   0.67660   0.92072   0.00000  Uiso   1.00
H926   H     0.65115   0.88053   0.93275   0.00000  Uiso   1.00
H927   H     0.45017   0.85971   0.57467   0.00000  Uiso   1.00
H928   H     0.39543   0.92398   0.64399   0.00000  Uiso   1.00
H929   H     0.66298   0.95449   0.61414   0.00000  Uiso   1.00
H930   H     0.39942   0.97867   0.60058   0.00000  Uiso   1.00
H931   H     0.37614   0.70508   0.66709   0.00000  Uiso   1.00
H932   H     0.61068   0.99815   0.76841   0.00000  Uiso   1.00
H933   H     0.43283   0.66925   0.70613   0.00000  Uiso   1.00
H934   H     0.48990   0.79152   0.70826   0.00000  Uiso   1.00
H935   H     0.51008   0.87510   0.79178   0.00000  Uiso   1.00
H936   H     0.62488   0.73105   0.98057   0.00000  Uiso   1.00
H937   H     0.54119   0.86628   0.58457   0.00000  Uiso   1.00
H938   H     0.35758   0.89239   0.53423   0.00000  Uiso   1.00
H939   H     0.43268   0.75278   0.86993   0.00000  Uiso   1.00
H940   H     0.45876   0.66964   0.84603   0.00000  Uiso   1.00
N941   N     0.47827   0.81890   0.73542   0.00000  Uiso   1.00
N942   N     0.52173   0.84777   0.76457   0.00000  Uiso   1.00
O943   O     0.63102   0.91296   0.75357   0.00000  Uiso   1.00
O944   O     0.39075   0.90371   0.74423   0.00000  Uiso   1.00
O945   O     0.64823   0.84024   0.83380   0.00000  Uiso   1.00
O946   O     0.40796   0.83099   0.82446   0.00000  Uiso   1.00
O947   O     0.60925   0.76296   0.75576   0.00000  Uiso   1.00
O948   O     0.36898   0.75371   0.74643   0.00000  Uiso   1.00
O949   O     0.59204   0.83567   0.67554   0.00000  Uiso   1.00
O950   O     0.35177   0.82642   0.66620   0.00000  Uiso   1.00
Zn951  Zn    0.60453   0.83951   0.75623   0.00000  Uiso   1.00
Zn952  Zn    0.39547   0.82716   0.74376   0.00000  Uiso   1.00
C953   C     0.67997   0.93124   0.74398   0.00000  Uiso   1.00
C954   C     0.71951   0.83294   0.91602   0.00000  Uiso   1.00
C955   C     0.68115   0.98366   0.72647   0.00000  Uiso   1.00
C956   C     0.70202   0.83431   0.85516   0.00000  Uiso   1.00
C957   C     0.97612   0.68016   0.74505   0.00000  Uiso   1.00
C958   C     0.98405   0.73505   0.74708   0.00000  Uiso   1.00
C959   C     0.96396   0.82897   0.64478   0.00000  Uiso   1.00
C960   C     0.93734   0.75923   0.50265   0.00000  Uiso   1.00
C961   C     0.94277   0.81676   0.58514   0.00000  Uiso   1.00
C962   C     0.69063   0.86244   0.95037   0.00000  Uiso   1.00
C963   C     0.71375   0.87045   0.50757   0.00000  Uiso   1.00
C964   C     0.79782   0.82349   0.99504   0.00000  Uiso   1.00
C965   C     0.76744   0.85213   0.52990   0.00000  Uiso   1.00
C966   C     0.87251   0.71060   0.89437   0.00000  Uiso   1.00
C967   C     0.83344   0.68928   0.83854   0.00000  Uiso   1.00
C968   C     0.71954   0.99999   0.68458   0.00000  Uiso   1.00
C969   C     0.71023   0.96173   0.63287   0.00000  Uiso   1.00
C970   C     0.76963   0.80819   0.93977   0.00000  Uiso   1.00
C971   C     0.85545   0.81020   0.51311   0.00000  Uiso   1.00
C972   C     0.88035   0.77339   0.98093   0.00000  Uiso   1.00
C973   C     0.84752   0.75145   0.92874   0.00000  Uiso   1.00
C974   C     0.79236   0.76946   0.90908   0.00000  Uiso   1.00
C975   C     0.88956   0.83446   0.56203   0.00000  Uiso   1.00
C976   C     0.96759   0.77968   0.55531   0.00000  Uiso   1.00
H977   H     0.67583   0.76528   0.57343   0.00000  Uiso   1.00
H978   H     0.82407   0.72134   0.80920   0.00000  Uiso   1.00
H979   H     0.85625   0.99310   0.81812   0.00000  Uiso   1.00
H980   H     0.91376   0.72816   0.88434   0.00000  Uiso   1.00
H981   H     0.88291   0.67660   0.92072   0.00000  Uiso   1.00
H982   H     0.98448   0.88053   0.93275   0.00000  Uiso   1.00
H983   H     0.78350   0.85971   0.57467   0.00000  Uiso   1.00
H984   H     0.72876   0.92398   0.64399   0.00000  Uiso   1.00
H985   H     0.99632   0.95449   0.61414   0.00000  Uiso   1.00
H986   H     0.73275   0.97867   0.60058   0.00000  Uiso   1.00
H987   H     0.70947   0.70508   0.66709   0.00000  Uiso   1.00
H988   H     0.94401   0.99815   0.76841   0.00000  Uiso   1.00
H989   H     0.76616   0.66925   0.70613   0.00000  Uiso   1.00
H990   H     0.82324   0.79152   0.70826   0.00000  Uiso   1.00
H991   H     0.84342   0.87510   0.79178   0.00000  Uiso   1.00
H992   H     0.95821   0.73105   0.98057   0.00000  Uiso   1.00
H993   H     0.87453   0.86628   0.58457   0.00000  Uiso   1.00
H994   H     0.69092   0.89239   0.53423   0.00000  Uiso   1.00
H995   H     0.76601   0.75278   0.86993   0.00000  Uiso   1.00
H996   H     0.79209   0.66964   0.84603   0.00000  Uiso   1.00
N997   N     0.81160   0.81890   0.73542   0.00000  Uiso   1.00
N998   N     0.85507   0.84777   0.76457   0.00000  Uiso   1.00
O999   O     0.96435   0.91296   0.75357   0.00000  Uiso   1.00
O1000  O     0.72408   0.90371   0.74423   0.00000  Uiso   1.00
O1001  O     0.98157   0.84024   0.83380   0.00000  Uiso   1.00
O1002  O     0.74130   0.83099   0.82446   0.00000  Uiso   1.00
O1003  O     0.94258   0.76296   0.75576   0.00000  Uiso   1.00
O1004  O     0.70231   0.75371   0.74643   0.00000  Uiso   1.00
O1005  O     0.92537   0.83567   0.67554   0.00000  Uiso   1.00
O1006  O     0.68510   0.82642   0.66620   0.00000  Uiso   1.00
Zn1007 Zn    0.93786   0.83951   0.75623   0.00000  Uiso   1.00
Zn1008 Zn    0.72881   0.82716   0.74376   0.00000  Uiso   1.00
loop_
_geom_bond_atom_site_label_1
_geom_bond_atom_site_label_2
_geom_bond_distance
_geom_bond_site_symmetry_2
_ccdc_geom_bond_type
C1     O48     1.291   .     A
C1     C3      1.423   .     S
C1     O159    1.276   1_455 S
C2     C4      1.451   .     S
C2     C18     1.407   .     A
C2     C10     1.402   .     A
C3     C16     1.533   .     S
C3     C285    1.351   1_455 S
C4     O50     1.297   .     A
C4     O161    1.288   1_455 S
C5     C6      1.402   .     S
C5     C395    1.351   1_545 S
C5     H372    1.088   1_545 S
C6     O51     1.291   .     A
C6     O108    1.273   .     S
C7     O53     1.296   .     A
C7     C9      1.445   .     S
C7     O110    1.288   .     S
C8     C24     1.393   .     A
C8     C524    1.414   1_554 S
C8     H544    1.081   1_554 S
C9     C24     1.397   .     A
C9     C23     1.379   .     A
C10    C515    1.385   .     S
C10    H142    1.083   1_455 S
C11    C13     1.390   .     A
C11    H42     1.081   .     S
C11    C514    1.385   1_554 S
C12    C18     1.398   .     A
C12    C517    1.421   .     S
C12    C523    1.406   .     S
C13    H31     1.080   .     S
C13    C516    1.421   1_554 S
C14    C21     1.529   .     S
C14    H29     1.112   .     S
C14    C15     1.532   .     S
C14    H28     1.112   .     S
C15    H44     1.111   .     S
C15    H26     1.111   .     S
C15    H363    1.110   1_545 S
C16    C17     1.530   .     S
C16    H203    1.108   .     S
C16    H205    1.111   .     S
C17    H34     1.111   .     S
C17    H32     1.108   .     S
C17    H145    1.111   1_455 S
C18    C22     1.411   .     A
C19    C23     1.388   .     A
C19    C516    1.406   1_554 S
C19    C524    1.427   1_554 S
C20    C21     1.416   .     A
C20    C512    1.414   .     S
C20    C523    1.427   .     S
C21    C22     1.404   .     A
C22    H43     1.078   .     S
C23    H41     1.080   .     S
C24    H81     1.083   .     S
H25    C136    1.083   1_455 S
H27    C183    1.110   .     S
H30    C66     1.083   .     S
H33    C73     1.111   .     S
H35    C352    1.108   1_545 S
H36    C173    1.088   .     S
H37    C352    1.111   1_545 S
H38    N45     1.029   .     S
H39    N46     1.029   .     S
H40    C512    1.081   .     S
N45    N46     1.286   .     D
N45    Zn56    2.016   .     S
N46    Zn55    2.016   .     S
O47    Zn55    1.946   .     S
O47    C57     1.276   .     S
O48    Zn56    1.970   .     S
O49    Zn55    1.952   .     S
O49    C60     1.288   .     S
O50    Zn56    1.914   .     S
O51    Zn55    1.970   .     S
O52    Zn56    1.946   .     S
O52    C118    1.273   1_455 S
O53    Zn55    1.914   .     S
O54    Zn56    1.952   .     S
O54    C119    1.288   1_455 S
C57    O104    1.291   .     A
C57    C59     1.423   .     S
C58    C60     1.451   .     S
C58    C74     1.407   .     A
C58    C66     1.402   .     A
C59    C72     1.533   .     S
C59    C173    1.351   .     S
C60    O106    1.297   .     A
C61    C62     1.402   .     S
C61    C451    1.351   1_545 S
C61    H428    1.088   1_545 S
C62    O107    1.291   .     A
C62    O164    1.273   .     S
C63    O109    1.296   .     A
C63    C65     1.445   .     S
C63    O166    1.288   .     S
C64    C80     1.393   .     A
C64    C580    1.414   1_554 S
C64    H600    1.081   1_554 S
C65    C80     1.397   .     A
C65    C79     1.379   .     A
C66    C571    1.385   .     S
C67    C69     1.390   .     A
C67    H98     1.081   .     S
C67    C570    1.385   1_554 S
C68    C74     1.398   .     A
C68    C573    1.421   .     S
C68    C579    1.406   .     S
C69    H87     1.080   .     S
C69    C572    1.421   1_554 S
C70    C77     1.529   .     S
C70    H85     1.112   .     S
C70    C71     1.532   .     S
C70    H84     1.112   .     S
C71    H100    1.111   .     S
C71    H82     1.111   .     S
C71    H419    1.110   1_545 S
C72    C73     1.530   .     S
C72    H259    1.108   .     S
C72    H261    1.111   .     S
C73    H90     1.111   .     S
C73    H88     1.108   .     S
C74    C78     1.411   .     A
C75    C79     1.388   .     A
C75    C572    1.406   1_554 S
C75    C580    1.427   1_554 S
C76    C77     1.416   .     A
C76    C568    1.414   .     S
C76    C579    1.427   .     S
C77    C78     1.404   .     A
C78    H99     1.078   .     S
C79    H97     1.080   .     S
C80    H137    1.083   .     S
H83    C239    1.110   .     S
H86    C122    1.083   .     S
H89    C129    1.111   .     S
H91    C408    1.108   1_545 S
H92    C229    1.088   .     S
H93    C408    1.111   1_545 S
H94    N101    1.029   .     S
H95    N102    1.029   .     S
H96    C568    1.081   .     S
N101   N102    1.286   .     D
N101   Zn112   2.016   .     S
N102   Zn111   2.016   .     S
O103   Zn111   1.946   .     S
O103   C113    1.276   .     S
O104   Zn112   1.970   .     S
O105   Zn111   1.952   .     S
O105   C116    1.288   .     S
O106   Zn112   1.914   .     S
O107   Zn111   1.970   .     S
O108   Zn112   1.946   .     S
O109   Zn111   1.914   .     S
O110   Zn112   1.952   .     S
C113   O160    1.291   .     A
C113   C115    1.423   .     S
C114   C116    1.451   .     S
C114   C130    1.407   .     A
C114   C122    1.402   .     A
C115   C128    1.533   .     S
C115   C229    1.351   .     S
C116   O162    1.297   .     A
C117   C118    1.402   .     S
C117   C339    1.351   1_645 S
C117   H484    1.088   1_545 S
C118   O163    1.291   .     A
C118   O52     1.273   1_655 S
C119   O165    1.296   .     A
C119   C121    1.445   .     S
C119   O54     1.288   1_655 S
C120   C136    1.393   .     A
C120   C636    1.414   1_554 S
C120   H656    1.081   1_554 S
C121   C136    1.397   .     A
C121   C135    1.379   .     A
C122   C627    1.385   .     S
C123   C125    1.390   .     A
C123   H154    1.081   .     S
C123   C626    1.385   1_554 S
C124   C130    1.398   .     A
C124   C629    1.421   .     S
C124   C635    1.406   .     S
C125   H143    1.080   .     S
C125   C628    1.421   1_554 S
C126   C133    1.529   .     S
C126   H141    1.112   .     S
C126   C127    1.532   .     S
C126   H140    1.112   .     S
C127   H156    1.111   .     S
C127   H138    1.111   .     S
C127   H475    1.110   1_545 S
C128   C129    1.530   .     S
C128   H315    1.108   .     S
C128   H317    1.111   .     S
C129   H146    1.111   .     S
C129   H144    1.108   .     S
C130   C134    1.411   .     A
C131   C135    1.388   .     A
C131   C628    1.406   1_554 S
C131   C636    1.427   1_554 S
C132   C133    1.416   .     A
C132   C624    1.414   .     S
C132   C635    1.427   .     S
C133   C134    1.404   .     A
C134   H155    1.078   .     S
C135   H153    1.080   .     S
C136   H25     1.083   1_655 S
H139   C295    1.110   .     S
H142   C10     1.083   1_655 S
H145   C17     1.111   1_655 S
H147   C464    1.108   1_545 S
H148   C285    1.088   .     S
H149   C464    1.111   1_545 S
H150   N157    1.029   .     S
H151   N158    1.029   .     S
H152   C624    1.081   .     S
N157   N158    1.286   .     D
N157   Zn168   2.016   .     S
N158   Zn167   2.016   .     S
O159   Zn167   1.946   .     S
O159   C1      1.276   1_655 S
O160   Zn168   1.970   .     S
O161   Zn167   1.952   .     S
O161   C4      1.288   1_655 S
O162   Zn168   1.914   .     S
O163   Zn167   1.970   .     S
O164   Zn168   1.946   .     S
O165   Zn167   1.914   .     S
O166   Zn168   1.952   .     S
C169   O216    1.291   .     A
C169   C171    1.423   .     S
C169   O327    1.276   1_455 S
C170   C172    1.451   .     S
C170   C186    1.407   .     A
C170   C178    1.402   .     A
C171   C184    1.533   .     S
C171   C453    1.351   1_455 S
C172   O218    1.297   .     A
C172   O329    1.288   1_455 S
C173   C174    1.402   .     S
C174   O219    1.291   .     A
C174   O276    1.273   .     S
C175   O221    1.296   .     A
C175   C177    1.445   .     S
C175   O278    1.288   .     S
C176   C192    1.393   .     A
C176   C692    1.414   1_554 S
C176   H712    1.081   1_554 S
C177   C192    1.397   .     A
C177   C191    1.379   .     A
C178   C683    1.385   .     S
C178   H310    1.083   1_455 S
C179   C181    1.390   .     A
C179   H210    1.081   .     S
C179   C682    1.385   1_554 S
C180   C186    1.398   .     A
C180   C685    1.421   .     S
C180   C691    1.406   .     S
C181   H199    1.080   .     S
C181   C684    1.421   1_554 S
C182   C189    1.529   .     S
C182   H197    1.112   .     S
C182   C183    1.532   .     S
C182   H196    1.112   .     S
C183   H212    1.111   .     S
C183   H194    1.111   .     S
C184   C185    1.530   .     S
C184   H371    1.108   .     S
C184   H373    1.111   .     S
C185   H202    1.111   .     S
C185   H200    1.108   .     S
C185   H313    1.111   1_455 S
C186   C190    1.411   .     A
C187   C191    1.388   .     A
C187   C684    1.406   1_554 S
C187   C692    1.427   1_554 S
C188   C189    1.416   .     A
C188   C680    1.414   .     S
C188   C691    1.427   .     S
C189   C190    1.404   .     A
C190   H211    1.078   .     S
C191   H209    1.080   .     S
C192   H249    1.083   .     S
H193   C304    1.083   1_455 S
H195   C351    1.110   .     S
H198   C234    1.083   .     S
H201   C241    1.111   .     S
H204   C341    1.088   .     S
H206   N213    1.029   .     S
H207   N214    1.029   .     S
H208   C680    1.081   .     S
N213   N214    1.286   .     D
N213   Zn224   2.016   .     S
N214   Zn223   2.016   .     S
O215   Zn223   1.946   .     S
O215   C225    1.276   .     S
O216   Zn224   1.970   .     S
O217   Zn223   1.952   .     S
O217   C228    1.288   .     S
O218   Zn224   1.914   .     S
O219   Zn223   1.970   .     S
O220   Zn224   1.946   .     S
O220   C286    1.273   1_455 S
O221   Zn223   1.914   .     S
O222   Zn224   1.952   .     S
O222   C287    1.288   1_455 S
C225   O272    1.291   .     A
C225   C227    1.423   .     S
C226   C228    1.451   .     S
C226   C242    1.407   .     A
C226   C234    1.402   .     A
C227   C240    1.533   .     S
C227   C341    1.351   .     S
C228   O274    1.297   .     A
C229   C230    1.402   .     S
C230   O275    1.291   .     A
C230   O332    1.273   .     S
C231   O277    1.296   .     A
C231   C233    1.445   .     S
C231   O334    1.288   .     S
C232   C248    1.393   .     A
C232   C748    1.414   1_554 S
C232   H768    1.081   1_554 S
C233   C248    1.397   .     A
C233   C247    1.379   .     A
C234   C739    1.385   .     S
C235   C237    1.390   .     A
C235   H266    1.081   .     S
C235   C738    1.385   1_554 S
C236   C242    1.398   .     A
C236   C741    1.421   .     S
C236   C747    1.406   .     S
C237   H255    1.080   .     S
C237   C740    1.421   1_554 S
C238   C245    1.529   .     S
C238   H253    1.112   .     S
C238   C239    1.532   .     S
C238   H252    1.112   .     S
C239   H268    1.111   .     S
C239   H250    1.111   .     S
C240   C241    1.530   .     S
C240   H427    1.108   .     S
C240   H429    1.111   .     S
C241   H258    1.111   .     S
C241   H256    1.108   .     S
C242   C246    1.411   .     A
C243   C247    1.388   .     A
C243   C740    1.406   1_554 S
C243   C748    1.427   1_554 S
C244   C245    1.416   .     A
C244   C736    1.414   .     S
C244   C747    1.427   .     S
C245   C246    1.404   .     A
C246   H267    1.078   .     S
C247   H265    1.080   .     S
C248   H305    1.083   .     S
H251   C407    1.110   .     S
H254   C290    1.083   .     S
H257   C297    1.111   .     S
H260   C397    1.088   .     S
H262   N269    1.029   .     S
H263   N270    1.029   .     S
H264   C736    1.081   .     S
N269   N270    1.286   .     D
N269   Zn280   2.016   .     S
N270   Zn279   2.016   .     S
O271   Zn279   1.946   .     S
O271   C281    1.276   .     S
O272   Zn280   1.970   .     S
O273   Zn279   1.952   .     S
O273   C284    1.288   .     S
O274   Zn280   1.914   .     S
O275   Zn279   1.970   .     S
O276   Zn280   1.946   .     S
O277   Zn279   1.914   .     S
O278   Zn280   1.952   .     S
C281   O328    1.291   .     A
C281   C283    1.423   .     S
C282   C284    1.451   .     S
C282   C298    1.407   .     A
C282   C290    1.402   .     A
C283   C296    1.533   .     S
C283   C397    1.351   .     S
C284   O330    1.297   .     A
C285   C286    1.402   .     S
C285   C3      1.351   1_655 S
C286   O331    1.291   .     A
C286   O220    1.273   1_655 S
C287   O333    1.296   .     A
C287   C289    1.445   .     S
C287   O222    1.288   1_655 S
C288   C304    1.393   .     A
C288   C804    1.414   1_554 S
C288   H824    1.081   1_554 S
C289   C304    1.397   .     A
C289   C303    1.379   .     A
C290   C795    1.385   .     S
C291   C293    1.390   .     A
C291   H322    1.081   .     S
C291   C794    1.385   1_554 S
C292   C298    1.398   .     A
C292   C797    1.421   .     S
C292   C803    1.406   .     S
C293   H311    1.080   .     S
C293   C796    1.421   1_554 S
C294   C301    1.529   .     S
C294   H309    1.112   .     S
C294   C295    1.532   .     S
C294   H308    1.112   .     S
C295   H324    1.111   .     S
C295   H306    1.111   .     S
C296   C297    1.530   .     S
C296   H483    1.108   .     S
C296   H485    1.111   .     S
C297   H314    1.111   .     S
C297   H312    1.108   .     S
C298   C302    1.411   .     A
C299   C303    1.388   .     A
C299   C796    1.406   1_554 S
C299   C804    1.427   1_554 S
C300   C301    1.416   .     A
C300   C792    1.414   .     S
C300   C803    1.427   .     S
C301   C302    1.404   .     A
C302   H323    1.078   .     S
C303   H321    1.080   .     S
C304   H193    1.083   1_655 S
H307   C463    1.110   .     S
H310   C178    1.083   1_655 S
H313   C185    1.111   1_655 S
H316   C453    1.088   .     S
H318   N325    1.029   .     S
H319   N326    1.029   .     S
H320   C792    1.081   .     S
N325   N326    1.286   .     D
N325   Zn336   2.016   .     S
N326   Zn335   2.016   .     S
O327   Zn335   1.946   .     S
O327   C169    1.276   1_655 S
O328   Zn336   1.970   .     S
O329   Zn335   1.952   .     S
O329   C172    1.288   1_655 S
O330   Zn336   1.914   .     S
O331   Zn335   1.970   .     S
O332   Zn336   1.946   .     S
O333   Zn335   1.914   .     S
O334   Zn336   1.952   .     S
C337   O384    1.291   .     A
C337   C339    1.423   .     S
C337   O495    1.276   1_455 S
C338   C340    1.451   .     S
C338   C354    1.407   .     A
C338   C346    1.402   .     A
C339   C352    1.533   .     S
C339   C117    1.351   1_465 S
C340   O386    1.297   .     A
C340   O497    1.288   1_455 S
C341   C342    1.402   .     S
C342   O387    1.291   .     A
C342   O444    1.273   .     S
C343   O389    1.296   .     A
C343   C345    1.445   .     S
C343   O446    1.288   .     S
C344   C360    1.393   .     A
C344   C860    1.414   1_554 S
C344   H880    1.081   1_554 S
C345   C360    1.397   .     A
C345   C359    1.379   .     A
C346   C851    1.385   .     S
C346   H478    1.083   1_455 S
C347   C349    1.390   .     A
C347   H378    1.081   .     S
C347   C850    1.385   1_554 S
C348   C354    1.398   .     A
C348   C853    1.421   .     S
C348   C859    1.406   .     S
C349   H367    1.080   .     S
C349   C852    1.421   1_554 S
C350   C357    1.529   .     S
C350   H365    1.112   .     S
C350   C351    1.532   .     S
C350   H364    1.112   .     S
C351   H380    1.111   .     S
C351   H362    1.111   .     S
C352   C353    1.530   .     S
C352   H35     1.108   1_565 S
C352   H37     1.111   1_565 S
C353   H370    1.111   .     S
C353   H368    1.108   .     S
C353   H481    1.111   1_455 S
C354   C358    1.411   .     A
C355   C359    1.388   .     A
C355   C852    1.406   1_554 S
C355   C860    1.427   1_554 S
C356   C357    1.416   .     A
C356   C848    1.414   .     S
C356   C859    1.427   .     S
C357   C358    1.404   .     A
C358   H379    1.078   .     S
C359   H377    1.080   .     S
C360   H417    1.083   .     S
H361   C472    1.083   1_455 S
H363   C15     1.110   1_565 S
H366   C402    1.083   .     S
H369   C409    1.111   .     S
H372   C5      1.088   1_565 S
H374   N381    1.029   .     S
H375   N382    1.029   .     S
H376   C848    1.081   .     S
N381   N382    1.286   .     D
N381   Zn392   2.016   .     S
N382   Zn391   2.016   .     S
O383   Zn391   1.946   .     S
O383   C393    1.276   .     S
O384   Zn392   1.970   .     S
O385   Zn391   1.952   .     S
O385   C396    1.288   .     S
O386   Zn392   1.914   .     S
O387   Zn391   1.970   .     S
O388   Zn392   1.946   .     S
O388   C454    1.273   1_455 S
O389   Zn391   1.914   .     S
O390   Zn392   1.952   .     S
O390   C455    1.288   1_455 S
C393   O440    1.291   .     A
C393   C395    1.423   .     S
C394   C396    1.451   .     S
C394   C410    1.407   .     A
C394   C402    1.402   .     A
C395   C408    1.533   .     S
C395   C5      1.351   1_565 S
C396   O442    1.297   .     A
C397   C398    1.402   .     S
C398   O443    1.291   .     A
C398   O500    1.273   .     S
C399   O445    1.296   .     A
C399   C401    1.445   .     S
C399   O502    1.288   .     S
C400   C416    1.393   .     A
C400   C916    1.414   1_554 S
C400   H936    1.081   1_554 S
C401   C416    1.397   .     A
C401   C415    1.379   .     A
C402   C907    1.385   .     S
C403   C405    1.390   .     A
C403   H434    1.081   .     S
C403   C906    1.385   1_554 S
C404   C410    1.398   .     A
C404   C909    1.421   .     S
C404   C915    1.406   .     S
C405   H423    1.080   .     S
C405   C908    1.421   1_554 S
C406   C413    1.529   .     S
C406   H421    1.112   .     S
C406   C407    1.532   .     S
C406   H420    1.112   .     S
C407   H436    1.111   .     S
C407   H418    1.111   .     S
C408   C409    1.530   .     S
C408   H91     1.108   1_565 S
C408   H93     1.111   1_565 S
C409   H426    1.111   .     S
C409   H424    1.108   .     S
C410   C414    1.411   .     A
C411   C415    1.388   .     A
C411   C908    1.406   1_554 S
C411   C916    1.427   1_554 S
C412   C413    1.416   .     A
C412   C904    1.414   .     S
C412   C915    1.427   .     S
C413   C414    1.404   .     A
C414   H435    1.078   .     S
C415   H433    1.080   .     S
C416   H473    1.083   .     S
H419   C71     1.110   1_565 S
H422   C458    1.083   .     S
H425   C465    1.111   .     S
H428   C61     1.088   1_565 S
H430   N437    1.029   .     S
H431   N438    1.029   .     S
H432   C904    1.081   .     S
N437   N438    1.286   .     D
N437   Zn448   2.016   .     S
N438   Zn447   2.016   .     S
O439   Zn447   1.946   .     S
O439   C449    1.276   .     S
O440   Zn448   1.970   .     S
O441   Zn447   1.952   .     S
O441   C452    1.288   .     S
O442   Zn448   1.914   .     S
O443   Zn447   1.970   .     S
O444   Zn448   1.946   .     S
O445   Zn447   1.914   .     S
O446   Zn448   1.952   .     S
C449   O496    1.291   .     A
C449   C451    1.423   .     S
C450   C452    1.451   .     S
C450   C466    1.407   .     A
C450   C458    1.402   .     A
C451   C464    1.533   .     S
C451   C61     1.351   1_565 S
C452   O498    1.297   .     A
C453   C454    1.402   .     S
C453   C171    1.351   1_655 S
C454   O499    1.291   .     A
C454   O388    1.273   1_655 S
C455   O501    1.296   .     A
C455   C457    1.445   .     S
C455   O390    1.288   1_655 S
C456   C472    1.393   .     A
C456   C972    1.414   1_554 S
C456   H992    1.081   1_554 S
C457   C472    1.397   .     A
C457   C471    1.379   .     A
C458   C963    1.385   .     S
C459   C461    1.390   .     A
C459   H490    1.081   .     S
C459   C962    1.385   1_554 S
C460   C466    1.398   .     A
C460   C965    1.421   .     S
C460   C971    1.406   .     S
C461   H479    1.080   .     S
C461   C964    1.421   1_554 S
C462   C469    1.529   .     S
C462   H477    1.112   .     S
C462   C463    1.532   .     S
C462   H476    1.112   .     S
C463   H492    1.111   .     S
C463   H474    1.111   .     S
C464   C465    1.530   .     S
C464   H147    1.108   1_565 S
C464   H149    1.111   1_565 S
C465   H482    1.111   .     S
C465   H480    1.108   .     S
C466   C470    1.411   .     A
C467   C471    1.388   .     A
C467   C964    1.406   1_554 S
C467   C972    1.427   1_554 S
C468   C469    1.416   .     A
C468   C960    1.414   .     S
C468   C971    1.427   .     S
C469   C470    1.404   .     A
C470   H491    1.078   .     S
C471   H489    1.080   .     S
C472   H361    1.083   1_655 S
H475   C127    1.110   1_565 S
H478   C346    1.083   1_655 S
H481   C353    1.111   1_655 S
H484   C117    1.088   1_565 S
H486   N493    1.029   .     S
H487   N494    1.029   .     S
H488   C960    1.081   .     S
N493   N494    1.286   .     D
N493   Zn504   2.016   .     S
N494   Zn503   2.016   .     S
O495   Zn503   1.946   .     S
O495   C337    1.276   1_655 S
O496   Zn504   1.970   .     S
O497   Zn503   1.952   .     S
O497   C340    1.288   1_655 S
O498   Zn504   1.914   .     S
O499   Zn503   1.970   .     S
O500   Zn504   1.946   .     S
O501   Zn503   1.914   .     S
O502   Zn504   1.952   .     S
C505   O552    1.291   .     A
C505   C507    1.423   .     S
C505   O663    1.276   1_455 S
C506   C508    1.451   .     S
C506   C522    1.407   .     A
C506   C514    1.402   .     A
C507   C520    1.533   .     S
C507   C789    1.351   1_455 S
C508   O554    1.297   .     A
C508   O665    1.288   1_455 S
C509   C510    1.402   .     S
C509   C899    1.351   1_545 S
C509   H876    1.088   1_545 S
C510   O555    1.291   .     A
C510   O612    1.273   .     S
C511   O557    1.296   .     A
C511   C513    1.445   .     S
C511   O614    1.288   .     S
C512   C528    1.393   .     A
C513   C528    1.397   .     A
C513   C527    1.379   .     A
C514   C11     1.385   1_556 S
C514   H646    1.083   1_455 S
C515   C517    1.390   .     A
C515   H546    1.081   .     S
C516   C522    1.398   .     A
C516   C13     1.421   1_556 S
C516   C19     1.406   1_556 S
C517   H535    1.080   .     S
C518   C525    1.529   .     S
C518   H533    1.112   .     S
C518   C519    1.532   .     S
C518   H532    1.112   .     S
C519   H548    1.111   .     S
C519   H530    1.111   .     S
C519   H867    1.110   1_545 S
C520   C521    1.530   .     S
C520   H707    1.108   .     S
C520   H709    1.111   .     S
C521   H538    1.111   .     S
C521   H536    1.108   .     S
C521   H649    1.111   1_455 S
C522   C526    1.411   .     A
C523   C527    1.388   .     A
C524   C525    1.416   .     A
C524   C8      1.414   1_556 S
C524   C19     1.427   1_556 S
C525   C526    1.404   .     A
C526   H547    1.078   .     S
C527   H545    1.080   .     S
C528   H585    1.083   .     S
H529   C640    1.083   1_455 S
H531   C687    1.110   .     S
H534   C570    1.083   .     S
H537   C577    1.111   .     S
H539   C856    1.108   1_545 S
H540   C677    1.088   .     S
H541   C856    1.111   1_545 S
H542   N549    1.029   .     S
H543   N550    1.029   .     S
H544   C8      1.081   1_556 S
N549   N550    1.286   .     D
N549   Zn560   2.016   .     S
N550   Zn559   2.016   .     S
O551   Zn559   1.946   .     S
O551   C561    1.276   .     S
O552   Zn560   1.970   .     S
O553   Zn559   1.952   .     S
O553   C564    1.288   .     S
O554   Zn560   1.914   .     S
O555   Zn559   1.970   .     S
O556   Zn560   1.946   .     S
O556   C622    1.273   1_455 S
O557   Zn559   1.914   .     S
O558   Zn560   1.952   .     S
O558   C623    1.288   1_455 S
C561   O608    1.291   .     A
C561   C563    1.423   .     S
C562   C564    1.451   .     S
C562   C578    1.407   .     A
C562   C570    1.402   .     A
C563   C576    1.533   .     S
C563   C677    1.351   .     S
C564   O610    1.297   .     A
C565   C566    1.402   .     S
C565   C955    1.351   1_545 S
C565   H932    1.088   1_545 S
C566   O611    1.291   .     A
C566   O668    1.273   .     S
C567   O613    1.296   .     A
C567   C569    1.445   .     S
C567   O670    1.288   .     S
C568   C584    1.393   .     A
C569   C584    1.397   .     A
C569   C583    1.379   .     A
C570   C67     1.385   1_556 S
C571   C573    1.390   .     A
C571   H602    1.081   .     S
C572   C578    1.398   .     A
C572   C69     1.421   1_556 S
C572   C75     1.406   1_556 S
C573   H591    1.080   .     S
C574   C581    1.529   .     S
C574   H589    1.112   .     S
C574   C575    1.532   .     S
C574   H588    1.112   .     S
C575   H604    1.111   .     S
C575   H586    1.111   .     S
C575   H923    1.110   1_545 S
C576   C577    1.530   .     S
C576   H763    1.108   .     S
C576   H765    1.111   .     S
C577   H594    1.111   .     S
C577   H592    1.108   .     S
C578   C582    1.411   .     A
C579   C583    1.388   .     A
C580   C581    1.416   .     A
C580   C64     1.414   1_556 S
C580   C75     1.427   1_556 S
C581   C582    1.404   .     A
C582   H603    1.078   .     S
C583   H601    1.080   .     S
C584   H641    1.083   .     S
H587   C743    1.110   .     S
H590   C626    1.083   .     S
H593   C633    1.111   .     S
H595   C912    1.108   1_545 S
H596   C733    1.088   .     S
H597   C912    1.111   1_545 S
H598   N605    1.029   .     S
H599   N606    1.029   .     S
H600   C64     1.081   1_556 S
N605   N606    1.286   .     D
N605   Zn616   2.016   .     S
N606   Zn615   2.016   .     S
O607   Zn615   1.946   .     S
O607   C617    1.276   .     S
O608   Zn616   1.970   .     S
O609   Zn615   1.952   .     S
O609   C620    1.288   .     S
O610   Zn616   1.914   .     S
O611   Zn615   1.970   .     S
O612   Zn616   1.946   .     S
O613   Zn615   1.914   .     S
O614   Zn616   1.952   .     S
C617   O664    1.291   .     A
C617   C619    1.423   .     S
C618   C620    1.451   .     S
C618   C634    1.407   .     A
C618   C626    1.402   .     A
C619   C632    1.533   .     S
C619   C733    1.351   .     S
C620   O666    1.297   .     A
C621   C622    1.402   .     S
C621   C843    1.351   1_645 S
C621   H988    1.088   1_545 S
C622   O667    1.291   .     A
C622   O556    1.273   1_655 S
C623   O669    1.296   .     A
C623   C625    1.445   .     S
C623   O558    1.288   1_655 S
C624   C640    1.393   .     A
C625   C640    1.397   .     A
C625   C639    1.379   .     A
C626   C123    1.385   1_556 S
C627   C629    1.390   .     A
C627   H658    1.081   .     S
C628   C634    1.398   .     A
C628   C125    1.421   1_556 S
C628   C131    1.406   1_556 S
C629   H647    1.080   .     S
C630   C637    1.529   .     S
C630   H645    1.112   .     S
C630   C631    1.532   .     S
C630   H644    1.112   .     S
C631   H660    1.111   .     S
C631   H642    1.111   .     S
C631   H979    1.110   1_545 S
C632   C633    1.530   .     S
C632   H819    1.108   .     S
C632   H821    1.111   .     S
C633   H650    1.111   .     S
C633   H648    1.108   .     S
C634   C638    1.411   .     A
C635   C639    1.388   .     A
C636   C637    1.416   .     A
C636   C120    1.414   1_556 S
C636   C131    1.427   1_556 S
C637   C638    1.404   .     A
C638   H659    1.078   .     S
C639   H657    1.080   .     S
C640   H529    1.083   1_655 S
H643   C799    1.110   .     S
H646   C514    1.083   1_655 S
H649   C521    1.111   1_655 S
H651   C968    1.108   1_545 S
H652   C789    1.088   .     S
H653   C968    1.111   1_545 S
H654   N661    1.029   .     S
H655   N662    1.029   .     S
H656   C120    1.081   1_556 S
N661   N662    1.286   .     D
N661   Zn672   2.016   .     S
N662   Zn671   2.016   .     S
O663   Zn671   1.946   .     S
O663   C505    1.276   1_655 S
O664   Zn672   1.970   .     S
O665   Zn671   1.952   .     S
O665   C508    1.288   1_655 S
O666   Zn672   1.914   .     S
O667   Zn671   1.970   .     S
O668   Zn672   1.946   .     S
O669   Zn671   1.914   .     S
O670   Zn672   1.952   .     S
C673   O720    1.291   .     A
C673   C675    1.423   .     S
C673   O831    1.276   1_455 S
C674   C676    1.451   .     S
C674   C690    1.407   .     A
C674   C682    1.402   .     A
C675   C688    1.533   .     S
C675   C957    1.351   1_455 S
C676   O722    1.297   .     A
C676   O833    1.288   1_455 S
C677   C678    1.402   .     S
C678   O723    1.291   .     A
C678   O780    1.273   .     S
C679   O725    1.296   .     A
C679   C681    1.445   .     S
C679   O782    1.288   .     S
C680   C696    1.393   .     A
C681   C696    1.397   .     A
C681   C695    1.379   .     A
C682   C179    1.385   1_556 S
C682   H814    1.083   1_455 S
C683   C685    1.390   .     A
C683   H714    1.081   .     S
C684   C690    1.398   .     A
C684   C181    1.421   1_556 S
C684   C187    1.406   1_556 S
C685   H703    1.080   .     S
C686   C693    1.529   .     S
C686   H701    1.112   .     S
C686   C687    1.532   .     S
C686   H700    1.112   .     S
C687   H716    1.111   .     S
C687   H698    1.111   .     S
C688   C689    1.530   .     S
C688   H875    1.108   .     S
C688   H877    1.111   .     S
C689   H706    1.111   .     S
C689   H704    1.108   .     S
C689   H817    1.111   1_455 S
C690   C694    1.411   .     A
C691   C695    1.388   .     A
C692   C693    1.416   .     A
C692   C176    1.414   1_556 S
C692   C187    1.427   1_556 S
C693   C694    1.404   .     A
C694   H715    1.078   .     S
C695   H713    1.080   .     S
C696   H753    1.083   .     S
H697   C808    1.083   1_455 S
H699   C855    1.110   .     S
H702   C738    1.083   .     S
H705   C745    1.111   .     S
H708   C845    1.088   .     S
H710   N717    1.029   .     S
H711   N718    1.029   .     S
H712   C176    1.081   1_556 S
N717   N718    1.286   .     D
N717   Zn728   2.016   .     S
N718   Zn727   2.016   .     S
O719   Zn727   1.946   .     S
O719   C729    1.276   .     S
O720   Zn728   1.970   .     S
O721   Zn727   1.952   .     S
O721   C732    1.288   .     S
O722   Zn728   1.914   .     S
O723   Zn727   1.970   .     S
O724   Zn728   1.946   .     S
O724   C790    1.273   1_455 S
O725   Zn727   1.914   .     S
O726   Zn728   1.952   .     S
O726   C791    1.288   1_455 S
C729   O776    1.291   .     A
C729   C731    1.423   .     S
C730   C732    1.451   .     S
C730   C746    1.407   .     A
C730   C738    1.402   .     A
C731   C744    1.533   .     S
C731   C845    1.351   .     S
C732   O778    1.297   .     A
C733   C734    1.402   .     S
C734   O779    1.291   .     A
C734   O836    1.273   .     S
C735   O781    1.296   .     A
C735   C737    1.445   .     S
C735   O838    1.288   .     S
C736   C752    1.393   .     A
C737   C752    1.397   .     A
C737   C751    1.379   .     A
C738   C235    1.385   1_556 S
C739   C741    1.390   .     A
C739   H770    1.081   .     S
C740   C746    1.398   .     A
C740   C237    1.421   1_556 S
C740   C243    1.406   1_556 S
C741   H759    1.080   .     S
C742   C749    1.529   .     S
C742   H757    1.112   .     S
C742   C743    1.532   .     S
C742   H756    1.112   .     S
C743   H772    1.111   .     S
C743   H754    1.111   .     S
C744   C745    1.530   .     S
C744   H931    1.108   .     S
C744   H933    1.111   .     S
C745   H762    1.111   .     S
C745   H760    1.108   .     S
C746   C750    1.411   .     A
C747   C751    1.388   .     A
C748   C749    1.416   .     A
C748   C232    1.414   1_556 S
C748   C243    1.427   1_556 S
C749   C750    1.404   .     A
C750   H771    1.078   .     S
C751   H769    1.080   .     S
C752   H809    1.083   .     S
H755   C911    1.110   .     S
H758   C794    1.083   .     S
H761   C801    1.111   .     S
H764   C901    1.088   .     S
H766   N773    1.029   .     S
H767   N774    1.029   .     S
H768   C232    1.081   1_556 S
N773   N774    1.286   .     D
N773   Zn784   2.016   .     S
N774   Zn783   2.016   .     S
O775   Zn783   1.946   .     S
O775   C785    1.276   .     S
O776   Zn784   1.970   .     S
O777   Zn783   1.952   .     S
O777   C788    1.288   .     S
O778   Zn784   1.914   .     S
O779   Zn783   1.970   .     S
O780   Zn784   1.946   .     S
O781   Zn783   1.914   .     S
O782   Zn784   1.952   .     S
C785   O832    1.291   .     A
C785   C787    1.423   .     S
C786   C788    1.451   .     S
C786   C802    1.407   .     A
C786   C794    1.402   .     A
C787   C800    1.533   .     S
C787   C901    1.351   .     S
C788   O834    1.297   .     A
C789   C790    1.402   .     S
C789   C507    1.351   1_655 S
C790   O835    1.291   .     A
C790   O724    1.273   1_655 S
C791   O837    1.296   .     A
C791   C793    1.445   .     S
C791   O726    1.288   1_655 S
C792   C808    1.393   .     A
C793   C808    1.397   .     A
C793   C807    1.379   .     A
C794   C291    1.385   1_556 S
C795   C797    1.390   .     A
C795   H826    1.081   .     S
C796   C802    1.398   .     A
C796   C293    1.421   1_556 S
C796   C299    1.406   1_556 S
C797   H815    1.080   .     S
C798   C805    1.529   .     S
C798   H813    1.112   .     S
C798   C799    1.532   .     S
C798   H812    1.112   .     S
C799   H828    1.111   .     S
C799   H810    1.111   .     S
C800   C801    1.530   .     S
C800   H987    1.108   .     S
C800   H989    1.111   .     S
C801   H818    1.111   .     S
C801   H816    1.108   .     S
C802   C806    1.411   .     A
C803   C807    1.388   .     A
C804   C805    1.416   .     A
C804   C288    1.414   1_556 S
C804   C299    1.427   1_556 S
C805   C806    1.404   .     A
C806   H827    1.078   .     S
C807   H825    1.080   .     S
C808   H697    1.083   1_655 S
H811   C967    1.110   .     S
H814   C682    1.083   1_655 S
H817   C689    1.111   1_655 S
H820   C957    1.088   .     S
H822   N829    1.029   .     S
H823   N830    1.029   .     S
H824   C288    1.081   1_556 S
N829   N830    1.286   .     D
N829   Zn840   2.016   .     S
N830   Zn839   2.016   .     S
O831   Zn839   1.946   .     S
O831   C673    1.276   1_655 S
O832   Zn840   1.970   .     S
O833   Zn839   1.952   .     S
O833   C676    1.288   1_655 S
O834   Zn840   1.914   .     S
O835   Zn839   1.970   .     S
O836   Zn840   1.946   .     S
O837   Zn839   1.914   .     S
O838   Zn840   1.952   .     S
C841   O888    1.291   .     A
C841   C843    1.423   .     S
C841   O999    1.276   1_455 S
C842   C844    1.451   .     S
C842   C858    1.407   .     A
C842   C850    1.402   .     A
C843   C856    1.533   .     S
C843   C621    1.351   1_465 S
C844   O890    1.297   .     A
C844   O1001   1.288   1_455 S
C845   C846    1.402   .     S
C846   O891    1.291   .     A
C846   O948    1.273   .     S
C847   O893    1.296   .     A
C847   C849    1.445   .     S
C847   O950    1.288   .     S
C848   C864    1.393   .     A
C849   C864    1.397   .     A
C849   C863    1.379   .     A
C850   C347    1.385   1_556 S
C850   H982    1.083   1_455 S
C851   C853    1.390   .     A
C851   H882    1.081   .     S
C852   C858    1.398   .     A
C852   C349    1.421   1_556 S
C852   C355    1.406   1_556 S
C853   H871    1.080   .     S
C854   C861    1.529   .     S
C854   H869    1.112   .     S
C854   C855    1.532   .     S
C854   H868    1.112   .     S
C855   H884    1.111   .     S
C855   H866    1.111   .     S
C856   C857    1.530   .     S
C856   H539    1.108   1_565 S
C856   H541    1.111   1_565 S
C857   H874    1.111   .     S
C857   H872    1.108   .     S
C857   H985    1.111   1_455 S
C858   C862    1.411   .     A
C859   C863    1.388   .     A
C860   C861    1.416   .     A
C860   C344    1.414   1_556 S
C860   C355    1.427   1_556 S
C861   C862    1.404   .     A
C862   H883    1.078   .     S
C863   H881    1.080   .     S
C864   H921    1.083   .     S
H865   C976    1.083   1_455 S
H867   C519    1.110   1_565 S
H870   C906    1.083   .     S
H873   C913    1.111   .     S
H876   C509    1.088   1_565 S
H878   N885    1.029   .     S
H879   N886    1.029   .     S
H880   C344    1.081   1_556 S
N885   N886    1.286   .     D
N885   Zn896   2.016   .     S
N886   Zn895   2.016   .     S
O887   Zn895   1.946   .     S
O887   C897    1.276   .     S
O888   Zn896   1.970   .     S
O889   Zn895   1.952   .     S
O889   C900    1.288   .     S
O890   Zn896   1.914   .     S
O891   Zn895   1.970   .     S
O892   Zn896   1.946   .     S
O892   C958    1.273   1_455 S
O893   Zn895   1.914   .     S
O894   Zn896   1.952   .     S
O894   C959    1.288   1_455 S
C897   O944    1.291   .     A
C897   C899    1.423   .     S
C898   C900    1.451   .     S
C898   C914    1.407   .     A
C898   C906    1.402   .     A
C899   C912    1.533   .     S
C899   C509    1.351   1_565 S
C900   O946    1.297   .     A
C901   C902    1.402   .     S
C902   O947    1.291   .     A
C902   O1004   1.273   .     S
C903   O949    1.296   .     A
C903   C905    1.445   .     S
C903   O1006   1.288   .     S
C904   C920    1.393   .     A
C905   C920    1.397   .     A
C905   C919    1.379   .     A
C906   C403    1.385   1_556 S
C907   C909    1.390   .     A
C907   H938    1.081   .     S
C908   C914    1.398   .     A
C908   C405    1.421   1_556 S
C908   C411    1.406   1_556 S
C909   H927    1.080   .     S
C910   C917    1.529   .     S
C910   H925    1.112   .     S
C910   C911    1.532   .     S
C910   H924    1.112   .     S
C911   H940    1.111   .     S
C911   H922    1.111   .     S
C912   C913    1.530   .     S
C912   H595    1.108   1_565 S
C912   H597    1.111   1_565 S
C913   H930    1.111   .     S
C913   H928    1.108   .     S
C914   C918    1.411   .     A
C915   C919    1.388   .     A
C916   C917    1.416   .     A
C916   C400    1.414   1_556 S
C916   C411    1.427   1_556 S
C917   C918    1.404   .     A
C918   H939    1.078   .     S
C919   H937    1.080   .     S
C920   H977    1.083   .     S
H923   C575    1.110   1_565 S
H926   C962    1.083   .     S
H929   C969    1.111   .     S
H932   C565    1.088   1_565 S
H934   N941    1.029   .     S
H935   N942    1.029   .     S
H936   C400    1.081   1_556 S
N941   N942    1.286   .     D
N941   Zn952   2.016   .     S
N942   Zn951   2.016   .     S
O943   Zn951   1.946   .     S
O943   C953    1.276   .     S
O944   Zn952   1.970   .     S
O945   Zn951   1.952   .     S
O945   C956    1.288   .     S
O946   Zn952   1.914   .     S
O947   Zn951   1.970   .     S
O948   Zn952   1.946   .     S
O949   Zn951   1.914   .     S
O950   Zn952   1.952   .     S
C953   O1000   1.291   .     A
C953   C955    1.423   .     S
C954   C956    1.451   .     S
C954   C970    1.407   .     A
C954   C962    1.402   .     A
C955   C968    1.533   .     S
C955   C565    1.351   1_565 S
C956   O1002   1.297   .     A
C957   C958    1.402   .     S
C957   C675    1.351   1_655 S
C958   O1003   1.291   .     A
C958   O892    1.273   1_655 S
C959   O1005   1.296   .     A
C959   C961    1.445   .     S
C959   O894    1.288   1_655 S
C960   C976    1.393   .     A
C961   C976    1.397   .     A
C961   C975    1.379   .     A
C962   C459    1.385   1_556 S
C963   C965    1.390   .     A
C963   H994    1.081   .     S
C964   C970    1.398   .     A
C964   C461    1.421   1_556 S
C964   C467    1.406   1_556 S
C965   H983    1.080   .     S
C966   C973    1.529   .     S
C966   H981    1.112   .     S
C966   C967    1.532   .     S
C966   H980    1.112   .     S
C967   H996    1.111   .     S
C967   H978    1.111   .     S
C968   C969    1.530   .     S
C968   H651    1.108   1_565 S
C968   H653    1.111   1_565 S
C969   H986    1.111   .     S
C969   H984    1.108   .     S
C970   C974    1.411   .     A
C971   C975    1.388   .     A
C972   C973    1.416   .     A
C972   C456    1.414   1_556 S
C972   C467    1.427   1_556 S
C973   C974    1.404   .     A
C974   H995    1.078   .     S
C975   H993    1.080   .     S
C976   H865    1.083   1_655 S
H979   C631    1.110   1_565 S
H982   C850    1.083   1_655 S
H985   C857    1.111   1_655 S
H988   C621    1.088   1_565 S
H990   N997    1.029   .     S
H991   N998    1.029   .     S
H992   C456    1.081   1_556 S
N997   N998    1.286   .     D
N997   Zn1008  2.016   .     S
N998   Zn1007  2.016   .     S
O999   Zn1007  1.946   .     S
O999   C841    1.276   1_655 S
O1000  Zn1008  1.970   .     S
O1001  Zn1007  1.952   .     S
O1001  C844    1.288   1_655 S
O1002  Zn1008  1.914   .     S
O1003  Zn1007  1.970   .     S
O1004  Zn1008  1.946   .     S
O1005  Zn1007  1.914   .     S
O1006  Zn1008  1.952   .     S
