data_str_m3_o1_o1_pcu_sym.62
_audit_creation_date              2020-01-03
_audit_creation_method            'Materials Studio'
_symmetry_space_group_name_H-M    'P1'
_symmetry_Int_Tables_number       1
_symmetry_cell_setting            triclinic
loop_
_symmetry_equiv_pos_as_xyz
  x,y,z
_cell_length_a                    30.1920
_cell_length_b                    30.0964
_cell_length_c                    29.5734
_cell_angle_alpha                 90.0000
_cell_angle_beta                  90.0000
_cell_angle_gamma                 90.0000
loop_
_atom_site_label
_atom_site_type_symbol
_atom_site_fract_x
_atom_site_fract_y
_atom_site_fract_z
_atom_site_U_iso_or_equiv
_atom_site_adp_type
_atom_site_occupancy
Br1    Br    0.35753   0.22033   0.11097   0.00000  Uiso   1.00
Br2    Br    0.39247   0.02967   0.22237   0.00000  Uiso   1.00
Br3    Br    0.27987   0.14326   0.11148   0.00000  Uiso   1.00
Br4    Br    0.22013   0.35674   0.11148   0.00000  Uiso   1.00
Br5    Br    0.27987   0.35674   0.22186   0.00000  Uiso   1.00
Br6    Br    0.10753   0.02967   0.11097   0.00000  Uiso   1.00
Br7    Br    0.22013   0.14326   0.22186   0.00000  Uiso   1.00
Br8    Br    0.39247   0.47033   0.11097   0.00000  Uiso   1.00
Br9    Br    0.14247   0.27967   0.11097   0.00000  Uiso   1.00
Br10   Br    0.02987   0.39326   0.22186   0.00000  Uiso   1.00
Br11   Br    0.47013   0.10674   0.22186   0.00000  Uiso   1.00
Br12   Br    0.14247   0.22033   0.22237   0.00000  Uiso   1.00
Br13   Br    0.47013   0.39326   0.11148   0.00000  Uiso   1.00
Br14   Br    0.35753   0.27967   0.22237   0.00000  Uiso   1.00
Br15   Br    0.02987   0.10674   0.11148   0.00000  Uiso   1.00
Br16   Br    0.10753   0.47033   0.22237   0.00000  Uiso   1.00
C17    C     0.05988   0.19001   0.16667   0.00000  Uiso   1.00
C18    C     0.00004   0.21099   0.30938   0.00000  Uiso   1.00
C19    C     0.49996   0.21099   0.02396   0.00000  Uiso   1.00
C20    C     0.49996   0.28901   0.30938   0.00000  Uiso   1.00
C21    C     0.24996   0.03901   0.02396   0.00000  Uiso   1.00
C22    C     0.24995   0.46099   0.30938   0.00000  Uiso   1.00
C23    C     0.25004   0.46099   0.02396   0.00000  Uiso   1.00
C24    C     0.25005   0.03901   0.30938   0.00000  Uiso   1.00
C25    C     0.36777   0.16485   0.14253   0.00000  Uiso   1.00
C26    C     0.13223   0.33515   0.14253   0.00000  Uiso   1.00
C27    C     0.08528   0.38250   0.19073   0.00000  Uiso   1.00
C28    C     0.44012   0.30999   0.16667   0.00000  Uiso   1.00
C29    C     0.41472   0.11750   0.19073   0.00000  Uiso   1.00
C30    C     0.13223   0.16485   0.19081   0.00000  Uiso   1.00
C31    C     0.41472   0.38250   0.14261   0.00000  Uiso   1.00
C32    C     0.36777   0.33515   0.19081   0.00000  Uiso   1.00
C33    C     0.08528   0.11750   0.14261   0.00000  Uiso   1.00
C34    C     0.11777   0.41485   0.19081   0.00000  Uiso   1.00
C35    C     0.38223   0.08515   0.19081   0.00000  Uiso   1.00
C36    C     0.33528   0.13250   0.14261   0.00000  Uiso   1.00
C37    C     0.16472   0.36750   0.14261   0.00000  Uiso   1.00
C38    C     0.33528   0.36750   0.19073   0.00000  Uiso   1.00
C39    C     0.44012   0.19001   0.16666   0.00000  Uiso   1.00
C40    C     0.11777   0.08515   0.14253   0.00000  Uiso   1.00
C41    C     0.16472   0.13250   0.19073   0.00000  Uiso   1.00
C42    C     0.38223   0.41485   0.14253   0.00000  Uiso   1.00
C43    C     0.09298   0.34307   0.16663   0.00000  Uiso   1.00
C44    C     0.40702   0.15693   0.16663   0.00000  Uiso   1.00
C45    C     0.40702   0.34307   0.16670   0.00000  Uiso   1.00
C46    C     0.09298   0.15693   0.16670   0.00000  Uiso   1.00
C47    C     0.34298   0.09307   0.16670   0.00000  Uiso   1.00
C48    C     0.15702   0.40693   0.16670   0.00000  Uiso   1.00
C49    C     0.15702   0.09307   0.16663   0.00000  Uiso   1.00
C50    C     0.05988   0.30999   0.16666   0.00000  Uiso   1.00
C51    C     0.34298   0.40693   0.16663   0.00000  Uiso   1.00
C52    C     0.30988   0.44001   0.16666   0.00000  Uiso   1.00
C53    C     0.19012   0.05999   0.16666   0.00000  Uiso   1.00
C54    C     0.19012   0.44001   0.16667   0.00000  Uiso   1.00
C55    C     0.30988   0.05999   0.16667   0.00000  Uiso   1.00
C56    C     0.00004   0.28901   0.02396   0.00000  Uiso   1.00
H57    H     0.00014   0.32022   0.04205   0.00000  Uiso   1.00
H58    H     0.00015   0.17978   0.29129   0.00000  Uiso   1.00
H59    H     0.49986   0.17978   0.04205   0.00000  Uiso   1.00
H60    H     0.49985   0.32022   0.29129   0.00000  Uiso   1.00
H61    H     0.24987   0.07022   0.04205   0.00000  Uiso   1.00
H62    H     0.24985   0.42978   0.29129   0.00000  Uiso   1.00
H63    H     0.25013   0.42978   0.04205   0.00000  Uiso   1.00
H64    H     0.25015   0.07022   0.29129   0.00000  Uiso   1.00
N65    N     0.00000   0.25000   0.28573   0.00000  Uiso   1.00
N66    N     0.00000   0.25000   0.04760   0.00000  Uiso   1.00
N67    N     0.25000   0.00000   0.28573   0.00000  Uiso   1.00
N68    N     0.25000   0.00000   0.04760   0.00000  Uiso   1.00
O69    O     0.04580   0.20419   0.20487   0.00000  Uiso   1.00
O70    O     0.20419   0.04581   0.12846   0.00000  Uiso   1.00
O71    O     0.20419   0.04581   0.20487   0.00000  Uiso   1.00
O72    O     0.29580   0.45419   0.12846   0.00000  Uiso   1.00
O73    O     0.20419   0.45419   0.12846   0.00000  Uiso   1.00
O74    O     0.29580   0.04581   0.20487   0.00000  Uiso   1.00
O75    O     0.29580   0.04581   0.12846   0.00000  Uiso   1.00
O76    O     0.20419   0.45419   0.20487   0.00000  Uiso   1.00
O77    O     0.45419   0.29581   0.12846   0.00000  Uiso   1.00
O78    O     0.45419   0.29581   0.20487   0.00000  Uiso   1.00
O79    O     0.04580   0.20419   0.12846   0.00000  Uiso   1.00
O80    O     0.45419   0.20419   0.12846   0.00000  Uiso   1.00
O81    O     0.04580   0.29581   0.20487   0.00000  Uiso   1.00
O82    O     0.04580   0.29581   0.12846   0.00000  Uiso   1.00
O83    O     0.45419   0.20419   0.20487   0.00000  Uiso   1.00
O84    O     0.29580   0.45419   0.20487   0.00000  Uiso   1.00
Zn85   Zn    0.00000   0.25000   0.21771   0.00000  Uiso   1.00
Zn86   Zn    0.00000   0.25000   0.11563   0.00000  Uiso   1.00
Zn87   Zn    0.25000   0.00000   0.21771   0.00000  Uiso   1.00
Zn88   Zn    0.25000   0.00000   0.11563   0.00000  Uiso   1.00
Br89   Br    0.85753   0.22033   0.11097   0.00000  Uiso   1.00
Br90   Br    0.89247   0.02967   0.22237   0.00000  Uiso   1.00
Br91   Br    0.77987   0.14326   0.11148   0.00000  Uiso   1.00
Br92   Br    0.72013   0.35674   0.11148   0.00000  Uiso   1.00
Br93   Br    0.77987   0.35674   0.22186   0.00000  Uiso   1.00
Br94   Br    0.60753   0.02967   0.11097   0.00000  Uiso   1.00
Br95   Br    0.72013   0.14326   0.22186   0.00000  Uiso   1.00
Br96   Br    0.89247   0.47033   0.11097   0.00000  Uiso   1.00
Br97   Br    0.64247   0.27967   0.11097   0.00000  Uiso   1.00
Br98   Br    0.52987   0.39326   0.22186   0.00000  Uiso   1.00
Br99   Br    0.97013   0.10674   0.22186   0.00000  Uiso   1.00
Br100  Br    0.64247   0.22033   0.22237   0.00000  Uiso   1.00
Br101  Br    0.97013   0.39326   0.11148   0.00000  Uiso   1.00
Br102  Br    0.85753   0.27967   0.22237   0.00000  Uiso   1.00
Br103  Br    0.52987   0.10674   0.11148   0.00000  Uiso   1.00
Br104  Br    0.60753   0.47033   0.22237   0.00000  Uiso   1.00
C105   C     0.55988   0.19001   0.16667   0.00000  Uiso   1.00
C106   C     0.50004   0.21099   0.30938   0.00000  Uiso   1.00
C107   C     0.99996   0.21099   0.02396   0.00000  Uiso   1.00
C108   C     0.99996   0.28901   0.30938   0.00000  Uiso   1.00
C109   C     0.74996   0.03901   0.02396   0.00000  Uiso   1.00
C110   C     0.74995   0.46099   0.30938   0.00000  Uiso   1.00
C111   C     0.75004   0.46099   0.02396   0.00000  Uiso   1.00
C112   C     0.75005   0.03901   0.30938   0.00000  Uiso   1.00
C113   C     0.86777   0.16485   0.14253   0.00000  Uiso   1.00
C114   C     0.63223   0.33515   0.14253   0.00000  Uiso   1.00
C115   C     0.58528   0.38250   0.19073   0.00000  Uiso   1.00
C116   C     0.94012   0.30999   0.16667   0.00000  Uiso   1.00
C117   C     0.91472   0.11750   0.19073   0.00000  Uiso   1.00
C118   C     0.63223   0.16485   0.19081   0.00000  Uiso   1.00
C119   C     0.91472   0.38250   0.14261   0.00000  Uiso   1.00
C120   C     0.86777   0.33515   0.19081   0.00000  Uiso   1.00
C121   C     0.58528   0.11750   0.14261   0.00000  Uiso   1.00
C122   C     0.61777   0.41485   0.19081   0.00000  Uiso   1.00
C123   C     0.88223   0.08515   0.19081   0.00000  Uiso   1.00
C124   C     0.83528   0.13250   0.14261   0.00000  Uiso   1.00
C125   C     0.66472   0.36750   0.14261   0.00000  Uiso   1.00
C126   C     0.83528   0.36750   0.19073   0.00000  Uiso   1.00
C127   C     0.94012   0.19001   0.16666   0.00000  Uiso   1.00
C128   C     0.61777   0.08515   0.14253   0.00000  Uiso   1.00
C129   C     0.66472   0.13250   0.19073   0.00000  Uiso   1.00
C130   C     0.88223   0.41485   0.14253   0.00000  Uiso   1.00
C131   C     0.59298   0.34307   0.16663   0.00000  Uiso   1.00
C132   C     0.90702   0.15693   0.16663   0.00000  Uiso   1.00
C133   C     0.90702   0.34307   0.16670   0.00000  Uiso   1.00
C134   C     0.59298   0.15693   0.16670   0.00000  Uiso   1.00
C135   C     0.84298   0.09307   0.16670   0.00000  Uiso   1.00
C136   C     0.65702   0.40693   0.16670   0.00000  Uiso   1.00
C137   C     0.65702   0.09307   0.16663   0.00000  Uiso   1.00
C138   C     0.55988   0.30999   0.16666   0.00000  Uiso   1.00
C139   C     0.84298   0.40693   0.16663   0.00000  Uiso   1.00
C140   C     0.80988   0.44001   0.16666   0.00000  Uiso   1.00
C141   C     0.69012   0.05999   0.16666   0.00000  Uiso   1.00
C142   C     0.69012   0.44001   0.16667   0.00000  Uiso   1.00
C143   C     0.80988   0.05999   0.16667   0.00000  Uiso   1.00
C144   C     0.50004   0.28901   0.02396   0.00000  Uiso   1.00
H145   H     0.50014   0.32022   0.04205   0.00000  Uiso   1.00
H146   H     0.50015   0.17978   0.29129   0.00000  Uiso   1.00
H147   H     0.99986   0.17978   0.04205   0.00000  Uiso   1.00
H148   H     0.99985   0.32022   0.29129   0.00000  Uiso   1.00
H149   H     0.74987   0.07022   0.04205   0.00000  Uiso   1.00
H150   H     0.74985   0.42978   0.29129   0.00000  Uiso   1.00
H151   H     0.75013   0.42978   0.04205   0.00000  Uiso   1.00
H152   H     0.75015   0.07022   0.29129   0.00000  Uiso   1.00
N153   N     0.50000   0.25000   0.28573   0.00000  Uiso   1.00
N154   N     0.50000   0.25000   0.04760   0.00000  Uiso   1.00
N155   N     0.75000   0.00000   0.28573   0.00000  Uiso   1.00
N156   N     0.75000   0.00000   0.04760   0.00000  Uiso   1.00
O157   O     0.54580   0.20419   0.20487   0.00000  Uiso   1.00
O158   O     0.70419   0.04581   0.12846   0.00000  Uiso   1.00
O159   O     0.70419   0.04581   0.20487   0.00000  Uiso   1.00
O160   O     0.79580   0.45419   0.12846   0.00000  Uiso   1.00
O161   O     0.70419   0.45419   0.12846   0.00000  Uiso   1.00
O162   O     0.79580   0.04581   0.20487   0.00000  Uiso   1.00
O163   O     0.79580   0.04581   0.12846   0.00000  Uiso   1.00
O164   O     0.70419   0.45419   0.20487   0.00000  Uiso   1.00
O165   O     0.95419   0.29581   0.12846   0.00000  Uiso   1.00
O166   O     0.95419   0.29581   0.20487   0.00000  Uiso   1.00
O167   O     0.54580   0.20419   0.12846   0.00000  Uiso   1.00
O168   O     0.95419   0.20419   0.12846   0.00000  Uiso   1.00
O169   O     0.54580   0.29581   0.20487   0.00000  Uiso   1.00
O170   O     0.54580   0.29581   0.12846   0.00000  Uiso   1.00
O171   O     0.95419   0.20419   0.20487   0.00000  Uiso   1.00
O172   O     0.79580   0.45419   0.20487   0.00000  Uiso   1.00
Zn173  Zn    0.50000   0.25000   0.21771   0.00000  Uiso   1.00
Zn174  Zn    0.50000   0.25000   0.11563   0.00000  Uiso   1.00
Zn175  Zn    0.75000   0.00000   0.21771   0.00000  Uiso   1.00
Zn176  Zn    0.75000   0.00000   0.11563   0.00000  Uiso   1.00
Br177  Br    0.35753   0.72033   0.11097   0.00000  Uiso   1.00
Br178  Br    0.39247   0.52967   0.22237   0.00000  Uiso   1.00
Br179  Br    0.27987   0.64326   0.11148   0.00000  Uiso   1.00
Br180  Br    0.22013   0.85674   0.11148   0.00000  Uiso   1.00
Br181  Br    0.27987   0.85674   0.22186   0.00000  Uiso   1.00
Br182  Br    0.10753   0.52967   0.11097   0.00000  Uiso   1.00
Br183  Br    0.22013   0.64326   0.22186   0.00000  Uiso   1.00
Br184  Br    0.39247   0.97033   0.11097   0.00000  Uiso   1.00
Br185  Br    0.14247   0.77967   0.11097   0.00000  Uiso   1.00
Br186  Br    0.02987   0.89326   0.22186   0.00000  Uiso   1.00
Br187  Br    0.47013   0.60674   0.22186   0.00000  Uiso   1.00
Br188  Br    0.14247   0.72033   0.22237   0.00000  Uiso   1.00
Br189  Br    0.47013   0.89326   0.11148   0.00000  Uiso   1.00
Br190  Br    0.35753   0.77967   0.22237   0.00000  Uiso   1.00
Br191  Br    0.02987   0.60674   0.11148   0.00000  Uiso   1.00
Br192  Br    0.10753   0.97033   0.22237   0.00000  Uiso   1.00
C193   C     0.05988   0.69001   0.16667   0.00000  Uiso   1.00
C194   C     0.00004   0.71099   0.30938   0.00000  Uiso   1.00
C195   C     0.49996   0.71099   0.02396   0.00000  Uiso   1.00
C196   C     0.49996   0.78901   0.30938   0.00000  Uiso   1.00
C197   C     0.24996   0.53901   0.02396   0.00000  Uiso   1.00
C198   C     0.24995   0.96099   0.30938   0.00000  Uiso   1.00
C199   C     0.25004   0.96099   0.02396   0.00000  Uiso   1.00
C200   C     0.25005   0.53901   0.30938   0.00000  Uiso   1.00
C201   C     0.36777   0.66485   0.14253   0.00000  Uiso   1.00
C202   C     0.13223   0.83515   0.14253   0.00000  Uiso   1.00
C203   C     0.08528   0.88250   0.19073   0.00000  Uiso   1.00
C204   C     0.44012   0.80999   0.16667   0.00000  Uiso   1.00
C205   C     0.41472   0.61750   0.19073   0.00000  Uiso   1.00
C206   C     0.13223   0.66485   0.19081   0.00000  Uiso   1.00
C207   C     0.41472   0.88250   0.14261   0.00000  Uiso   1.00
C208   C     0.36777   0.83515   0.19081   0.00000  Uiso   1.00
C209   C     0.08528   0.61750   0.14261   0.00000  Uiso   1.00
C210   C     0.11777   0.91485   0.19081   0.00000  Uiso   1.00
C211   C     0.38223   0.58515   0.19081   0.00000  Uiso   1.00
C212   C     0.33528   0.63250   0.14261   0.00000  Uiso   1.00
C213   C     0.16472   0.86750   0.14261   0.00000  Uiso   1.00
C214   C     0.33528   0.86750   0.19073   0.00000  Uiso   1.00
C215   C     0.44012   0.69001   0.16666   0.00000  Uiso   1.00
C216   C     0.11777   0.58515   0.14253   0.00000  Uiso   1.00
C217   C     0.16472   0.63250   0.19073   0.00000  Uiso   1.00
C218   C     0.38223   0.91485   0.14253   0.00000  Uiso   1.00
C219   C     0.09298   0.84307   0.16663   0.00000  Uiso   1.00
C220   C     0.40702   0.65693   0.16663   0.00000  Uiso   1.00
C221   C     0.40702   0.84307   0.16670   0.00000  Uiso   1.00
C222   C     0.09298   0.65693   0.16670   0.00000  Uiso   1.00
C223   C     0.34298   0.59307   0.16670   0.00000  Uiso   1.00
C224   C     0.15702   0.90693   0.16670   0.00000  Uiso   1.00
C225   C     0.15702   0.59307   0.16663   0.00000  Uiso   1.00
C226   C     0.05988   0.80999   0.16666   0.00000  Uiso   1.00
C227   C     0.34298   0.90693   0.16663   0.00000  Uiso   1.00
C228   C     0.30988   0.94001   0.16666   0.00000  Uiso   1.00
C229   C     0.19012   0.55999   0.16666   0.00000  Uiso   1.00
C230   C     0.19012   0.94001   0.16667   0.00000  Uiso   1.00
C231   C     0.30988   0.55999   0.16667   0.00000  Uiso   1.00
C232   C     0.00004   0.78901   0.02396   0.00000  Uiso   1.00
H233   H     0.00014   0.82022   0.04205   0.00000  Uiso   1.00
H234   H     0.00015   0.67978   0.29129   0.00000  Uiso   1.00
H235   H     0.49986   0.67978   0.04205   0.00000  Uiso   1.00
H236   H     0.49985   0.82022   0.29129   0.00000  Uiso   1.00
H237   H     0.24987   0.57022   0.04205   0.00000  Uiso   1.00
H238   H     0.24985   0.92978   0.29129   0.00000  Uiso   1.00
H239   H     0.25013   0.92978   0.04205   0.00000  Uiso   1.00
H240   H     0.25015   0.57022   0.29129   0.00000  Uiso   1.00
N241   N     0.00000   0.75000   0.28573   0.00000  Uiso   1.00
N242   N     0.00000   0.75000   0.04760   0.00000  Uiso   1.00
N243   N     0.25000   0.50000   0.28573   0.00000  Uiso   1.00
N244   N     0.25000   0.50000   0.04760   0.00000  Uiso   1.00
O245   O     0.04580   0.70419   0.20487   0.00000  Uiso   1.00
O246   O     0.20419   0.54581   0.12846   0.00000  Uiso   1.00
O247   O     0.20419   0.54581   0.20487   0.00000  Uiso   1.00
O248   O     0.29580   0.95419   0.12846   0.00000  Uiso   1.00
O249   O     0.20419   0.95419   0.12846   0.00000  Uiso   1.00
O250   O     0.29580   0.54581   0.20487   0.00000  Uiso   1.00
O251   O     0.29580   0.54581   0.12846   0.00000  Uiso   1.00
O252   O     0.20419   0.95419   0.20487   0.00000  Uiso   1.00
O253   O     0.45419   0.79581   0.12846   0.00000  Uiso   1.00
O254   O     0.45419   0.79581   0.20487   0.00000  Uiso   1.00
O255   O     0.04580   0.70419   0.12846   0.00000  Uiso   1.00
O256   O     0.45419   0.70419   0.12846   0.00000  Uiso   1.00
O257   O     0.04580   0.79581   0.20487   0.00000  Uiso   1.00
O258   O     0.04580   0.79581   0.12846   0.00000  Uiso   1.00
O259   O     0.45419   0.70419   0.20487   0.00000  Uiso   1.00
O260   O     0.29580   0.95419   0.20487   0.00000  Uiso   1.00
Zn261  Zn    0.00000   0.75000   0.21771   0.00000  Uiso   1.00
Zn262  Zn    0.00000   0.75000   0.11563   0.00000  Uiso   1.00
Zn263  Zn    0.25000   0.50000   0.21771   0.00000  Uiso   1.00
Zn264  Zn    0.25000   0.50000   0.11563   0.00000  Uiso   1.00
Br265  Br    0.85753   0.72033   0.11097   0.00000  Uiso   1.00
Br266  Br    0.89247   0.52967   0.22237   0.00000  Uiso   1.00
Br267  Br    0.77987   0.64326   0.11148   0.00000  Uiso   1.00
Br268  Br    0.72013   0.85674   0.11148   0.00000  Uiso   1.00
Br269  Br    0.77987   0.85674   0.22186   0.00000  Uiso   1.00
Br270  Br    0.60753   0.52967   0.11097   0.00000  Uiso   1.00
Br271  Br    0.72013   0.64326   0.22186   0.00000  Uiso   1.00
Br272  Br    0.89247   0.97033   0.11097   0.00000  Uiso   1.00
Br273  Br    0.64247   0.77967   0.11097   0.00000  Uiso   1.00
Br274  Br    0.52987   0.89326   0.22186   0.00000  Uiso   1.00
Br275  Br    0.97013   0.60674   0.22186   0.00000  Uiso   1.00
Br276  Br    0.64247   0.72033   0.22237   0.00000  Uiso   1.00
Br277  Br    0.97013   0.89326   0.11148   0.00000  Uiso   1.00
Br278  Br    0.85753   0.77967   0.22237   0.00000  Uiso   1.00
Br279  Br    0.52987   0.60674   0.11148   0.00000  Uiso   1.00
Br280  Br    0.60753   0.97033   0.22237   0.00000  Uiso   1.00
C281   C     0.55988   0.69001   0.16667   0.00000  Uiso   1.00
C282   C     0.50004   0.71099   0.30938   0.00000  Uiso   1.00
C283   C     0.99996   0.71099   0.02396   0.00000  Uiso   1.00
C284   C     0.99996   0.78901   0.30938   0.00000  Uiso   1.00
C285   C     0.74996   0.53901   0.02396   0.00000  Uiso   1.00
C286   C     0.74995   0.96099   0.30938   0.00000  Uiso   1.00
C287   C     0.75004   0.96099   0.02396   0.00000  Uiso   1.00
C288   C     0.75005   0.53901   0.30938   0.00000  Uiso   1.00
C289   C     0.86777   0.66485   0.14253   0.00000  Uiso   1.00
C290   C     0.63223   0.83515   0.14253   0.00000  Uiso   1.00
C291   C     0.58528   0.88250   0.19073   0.00000  Uiso   1.00
C292   C     0.94012   0.80999   0.16667   0.00000  Uiso   1.00
C293   C     0.91472   0.61750   0.19073   0.00000  Uiso   1.00
C294   C     0.63223   0.66485   0.19081   0.00000  Uiso   1.00
C295   C     0.91472   0.88250   0.14261   0.00000  Uiso   1.00
C296   C     0.86777   0.83515   0.19081   0.00000  Uiso   1.00
C297   C     0.58528   0.61750   0.14261   0.00000  Uiso   1.00
C298   C     0.61777   0.91485   0.19081   0.00000  Uiso   1.00
C299   C     0.88223   0.58515   0.19081   0.00000  Uiso   1.00
C300   C     0.83528   0.63250   0.14261   0.00000  Uiso   1.00
C301   C     0.66472   0.86750   0.14261   0.00000  Uiso   1.00
C302   C     0.83528   0.86750   0.19073   0.00000  Uiso   1.00
C303   C     0.94012   0.69001   0.16666   0.00000  Uiso   1.00
C304   C     0.61777   0.58515   0.14253   0.00000  Uiso   1.00
C305   C     0.66472   0.63250   0.19073   0.00000  Uiso   1.00
C306   C     0.88223   0.91485   0.14253   0.00000  Uiso   1.00
C307   C     0.59298   0.84307   0.16663   0.00000  Uiso   1.00
C308   C     0.90702   0.65693   0.16663   0.00000  Uiso   1.00
C309   C     0.90702   0.84307   0.16670   0.00000  Uiso   1.00
C310   C     0.59298   0.65693   0.16670   0.00000  Uiso   1.00
C311   C     0.84298   0.59307   0.16670   0.00000  Uiso   1.00
C312   C     0.65702   0.90693   0.16670   0.00000  Uiso   1.00
C313   C     0.65702   0.59307   0.16663   0.00000  Uiso   1.00
C314   C     0.55988   0.80999   0.16666   0.00000  Uiso   1.00
C315   C     0.84298   0.90693   0.16663   0.00000  Uiso   1.00
C316   C     0.80988   0.94001   0.16666   0.00000  Uiso   1.00
C317   C     0.69012   0.55999   0.16666   0.00000  Uiso   1.00
C318   C     0.69012   0.94001   0.16667   0.00000  Uiso   1.00
C319   C     0.80988   0.55999   0.16667   0.00000  Uiso   1.00
C320   C     0.50004   0.78901   0.02396   0.00000  Uiso   1.00
H321   H     0.50014   0.82022   0.04205   0.00000  Uiso   1.00
H322   H     0.50015   0.67978   0.29129   0.00000  Uiso   1.00
H323   H     0.99986   0.67978   0.04205   0.00000  Uiso   1.00
H324   H     0.99985   0.82022   0.29129   0.00000  Uiso   1.00
H325   H     0.74987   0.57022   0.04205   0.00000  Uiso   1.00
H326   H     0.74985   0.92978   0.29129   0.00000  Uiso   1.00
H327   H     0.75013   0.92978   0.04205   0.00000  Uiso   1.00
H328   H     0.75015   0.57022   0.29129   0.00000  Uiso   1.00
N329   N     0.50000   0.75000   0.28573   0.00000  Uiso   1.00
N330   N     0.50000   0.75000   0.04760   0.00000  Uiso   1.00
N331   N     0.75000   0.50000   0.28573   0.00000  Uiso   1.00
N332   N     0.75000   0.50000   0.04760   0.00000  Uiso   1.00
O333   O     0.54580   0.70419   0.20487   0.00000  Uiso   1.00
O334   O     0.70419   0.54581   0.12846   0.00000  Uiso   1.00
O335   O     0.70419   0.54581   0.20487   0.00000  Uiso   1.00
O336   O     0.79580   0.95419   0.12846   0.00000  Uiso   1.00
O337   O     0.70419   0.95419   0.12846   0.00000  Uiso   1.00
O338   O     0.79580   0.54581   0.20487   0.00000  Uiso   1.00
O339   O     0.79580   0.54581   0.12846   0.00000  Uiso   1.00
O340   O     0.70419   0.95419   0.20487   0.00000  Uiso   1.00
O341   O     0.95419   0.79581   0.12846   0.00000  Uiso   1.00
O342   O     0.95419   0.79581   0.20487   0.00000  Uiso   1.00
O343   O     0.54580   0.70419   0.12846   0.00000  Uiso   1.00
O344   O     0.95419   0.70419   0.12846   0.00000  Uiso   1.00
O345   O     0.54580   0.79581   0.20487   0.00000  Uiso   1.00
O346   O     0.54580   0.79581   0.12846   0.00000  Uiso   1.00
O347   O     0.95419   0.70419   0.20487   0.00000  Uiso   1.00
O348   O     0.79580   0.95419   0.20487   0.00000  Uiso   1.00
Zn349  Zn    0.50000   0.75000   0.21771   0.00000  Uiso   1.00
Zn350  Zn    0.50000   0.75000   0.11563   0.00000  Uiso   1.00
Zn351  Zn    0.75000   0.50000   0.21771   0.00000  Uiso   1.00
Zn352  Zn    0.75000   0.50000   0.11563   0.00000  Uiso   1.00
Br353  Br    0.35753   0.22033   0.44430   0.00000  Uiso   1.00
Br354  Br    0.39247   0.02967   0.55570   0.00000  Uiso   1.00
Br355  Br    0.27987   0.14326   0.44481   0.00000  Uiso   1.00
Br356  Br    0.22013   0.35674   0.44481   0.00000  Uiso   1.00
Br357  Br    0.27987   0.35674   0.55519   0.00000  Uiso   1.00
Br358  Br    0.10753   0.02967   0.44430   0.00000  Uiso   1.00
Br359  Br    0.22013   0.14326   0.55519   0.00000  Uiso   1.00
Br360  Br    0.39247   0.47033   0.44430   0.00000  Uiso   1.00
Br361  Br    0.14247   0.27967   0.44430   0.00000  Uiso   1.00
Br362  Br    0.02987   0.39326   0.55519   0.00000  Uiso   1.00
Br363  Br    0.47013   0.10674   0.55519   0.00000  Uiso   1.00
Br364  Br    0.14247   0.22033   0.55570   0.00000  Uiso   1.00
Br365  Br    0.47013   0.39326   0.44481   0.00000  Uiso   1.00
Br366  Br    0.35753   0.27967   0.55570   0.00000  Uiso   1.00
Br367  Br    0.02987   0.10674   0.44481   0.00000  Uiso   1.00
Br368  Br    0.10753   0.47033   0.55570   0.00000  Uiso   1.00
C369   C     0.05988   0.19001   0.50001   0.00000  Uiso   1.00
C370   C     0.00004   0.21099   0.64271   0.00000  Uiso   1.00
C371   C     0.49996   0.21099   0.35729   0.00000  Uiso   1.00
C372   C     0.49996   0.28901   0.64271   0.00000  Uiso   1.00
C373   C     0.24996   0.03901   0.35729   0.00000  Uiso   1.00
C374   C     0.24995   0.46099   0.64271   0.00000  Uiso   1.00
C375   C     0.25004   0.46099   0.35729   0.00000  Uiso   1.00
C376   C     0.25005   0.03901   0.64271   0.00000  Uiso   1.00
C377   C     0.36777   0.16485   0.47586   0.00000  Uiso   1.00
C378   C     0.13223   0.33515   0.47586   0.00000  Uiso   1.00
C379   C     0.08528   0.38250   0.52406   0.00000  Uiso   1.00
C380   C     0.44012   0.30999   0.50001   0.00000  Uiso   1.00
C381   C     0.41472   0.11750   0.52406   0.00000  Uiso   1.00
C382   C     0.13223   0.16485   0.52414   0.00000  Uiso   1.00
C383   C     0.41472   0.38250   0.47594   0.00000  Uiso   1.00
C384   C     0.36777   0.33515   0.52414   0.00000  Uiso   1.00
C385   C     0.08528   0.11750   0.47594   0.00000  Uiso   1.00
C386   C     0.11777   0.41485   0.52414   0.00000  Uiso   1.00
C387   C     0.38223   0.08515   0.52414   0.00000  Uiso   1.00
C388   C     0.33528   0.13250   0.47594   0.00000  Uiso   1.00
C389   C     0.16472   0.36750   0.47594   0.00000  Uiso   1.00
C390   C     0.33528   0.36750   0.52406   0.00000  Uiso   1.00
C391   C     0.44012   0.19001   0.49999   0.00000  Uiso   1.00
C392   C     0.11777   0.08515   0.47586   0.00000  Uiso   1.00
C393   C     0.16472   0.13250   0.52406   0.00000  Uiso   1.00
C394   C     0.38223   0.41485   0.47586   0.00000  Uiso   1.00
C395   C     0.09298   0.34307   0.49996   0.00000  Uiso   1.00
C396   C     0.40702   0.15693   0.49996   0.00000  Uiso   1.00
C397   C     0.40702   0.34307   0.50004   0.00000  Uiso   1.00
C398   C     0.09298   0.15693   0.50004   0.00000  Uiso   1.00
C399   C     0.34298   0.09307   0.50004   0.00000  Uiso   1.00
C400   C     0.15702   0.40693   0.50004   0.00000  Uiso   1.00
C401   C     0.15702   0.09307   0.49996   0.00000  Uiso   1.00
C402   C     0.05988   0.30999   0.49999   0.00000  Uiso   1.00
C403   C     0.34298   0.40693   0.49996   0.00000  Uiso   1.00
C404   C     0.30988   0.44001   0.49999   0.00000  Uiso   1.00
C405   C     0.19012   0.05999   0.49999   0.00000  Uiso   1.00
C406   C     0.19012   0.44001   0.50001   0.00000  Uiso   1.00
C407   C     0.30988   0.05999   0.50001   0.00000  Uiso   1.00
C408   C     0.00004   0.28901   0.35729   0.00000  Uiso   1.00
H409   H     0.00014   0.32022   0.37538   0.00000  Uiso   1.00
H410   H     0.00015   0.17978   0.62462   0.00000  Uiso   1.00
H411   H     0.49986   0.17978   0.37538   0.00000  Uiso   1.00
H412   H     0.49985   0.32022   0.62462   0.00000  Uiso   1.00
H413   H     0.24987   0.07022   0.37538   0.00000  Uiso   1.00
H414   H     0.24985   0.42978   0.62462   0.00000  Uiso   1.00
H415   H     0.25013   0.42978   0.37538   0.00000  Uiso   1.00
H416   H     0.25015   0.07022   0.62462   0.00000  Uiso   1.00
N417   N     0.00000   0.25000   0.61907   0.00000  Uiso   1.00
N418   N     0.00000   0.25000   0.38093   0.00000  Uiso   1.00
N419   N     0.25000   0.00000   0.61907   0.00000  Uiso   1.00
N420   N     0.25000   0.00000   0.38093   0.00000  Uiso   1.00
O421   O     0.04580   0.20419   0.53821   0.00000  Uiso   1.00
O422   O     0.20419   0.04581   0.46179   0.00000  Uiso   1.00
O423   O     0.20419   0.04581   0.53821   0.00000  Uiso   1.00
O424   O     0.29580   0.45419   0.46179   0.00000  Uiso   1.00
O425   O     0.20419   0.45419   0.46179   0.00000  Uiso   1.00
O426   O     0.29580   0.04581   0.53821   0.00000  Uiso   1.00
O427   O     0.29580   0.04581   0.46179   0.00000  Uiso   1.00
O428   O     0.20419   0.45419   0.53821   0.00000  Uiso   1.00
O429   O     0.45419   0.29581   0.46179   0.00000  Uiso   1.00
O430   O     0.45419   0.29581   0.53821   0.00000  Uiso   1.00
O431   O     0.04580   0.20419   0.46179   0.00000  Uiso   1.00
O432   O     0.45419   0.20419   0.46179   0.00000  Uiso   1.00
O433   O     0.04580   0.29581   0.53821   0.00000  Uiso   1.00
O434   O     0.04580   0.29581   0.46179   0.00000  Uiso   1.00
O435   O     0.45419   0.20419   0.53821   0.00000  Uiso   1.00
O436   O     0.29580   0.45419   0.53821   0.00000  Uiso   1.00
Zn437  Zn    0.00000   0.25000   0.55104   0.00000  Uiso   1.00
Zn438  Zn    0.00000   0.25000   0.44896   0.00000  Uiso   1.00
Zn439  Zn    0.25000   0.00000   0.55104   0.00000  Uiso   1.00
Zn440  Zn    0.25000   0.00000   0.44896   0.00000  Uiso   1.00
Br441  Br    0.85753   0.22033   0.44430   0.00000  Uiso   1.00
Br442  Br    0.89247   0.02967   0.55570   0.00000  Uiso   1.00
Br443  Br    0.77987   0.14326   0.44481   0.00000  Uiso   1.00
Br444  Br    0.72013   0.35674   0.44481   0.00000  Uiso   1.00
Br445  Br    0.77987   0.35674   0.55519   0.00000  Uiso   1.00
Br446  Br    0.60753   0.02967   0.44430   0.00000  Uiso   1.00
Br447  Br    0.72013   0.14326   0.55519   0.00000  Uiso   1.00
Br448  Br    0.89247   0.47033   0.44430   0.00000  Uiso   1.00
Br449  Br    0.64247   0.27967   0.44430   0.00000  Uiso   1.00
Br450  Br    0.52987   0.39326   0.55519   0.00000  Uiso   1.00
Br451  Br    0.97013   0.10674   0.55519   0.00000  Uiso   1.00
Br452  Br    0.64247   0.22033   0.55570   0.00000  Uiso   1.00
Br453  Br    0.97013   0.39326   0.44481   0.00000  Uiso   1.00
Br454  Br    0.85753   0.27967   0.55570   0.00000  Uiso   1.00
Br455  Br    0.52987   0.10674   0.44481   0.00000  Uiso   1.00
Br456  Br    0.60753   0.47033   0.55570   0.00000  Uiso   1.00
C457   C     0.55988   0.19001   0.50001   0.00000  Uiso   1.00
C458   C     0.50004   0.21099   0.64271   0.00000  Uiso   1.00
C459   C     0.99996   0.21099   0.35729   0.00000  Uiso   1.00
C460   C     0.99996   0.28901   0.64271   0.00000  Uiso   1.00
C461   C     0.74996   0.03901   0.35729   0.00000  Uiso   1.00
C462   C     0.74995   0.46099   0.64271   0.00000  Uiso   1.00
C463   C     0.75004   0.46099   0.35729   0.00000  Uiso   1.00
C464   C     0.75005   0.03901   0.64271   0.00000  Uiso   1.00
C465   C     0.86777   0.16485   0.47586   0.00000  Uiso   1.00
C466   C     0.63223   0.33515   0.47586   0.00000  Uiso   1.00
C467   C     0.58528   0.38250   0.52406   0.00000  Uiso   1.00
C468   C     0.94012   0.30999   0.50001   0.00000  Uiso   1.00
C469   C     0.91472   0.11750   0.52406   0.00000  Uiso   1.00
C470   C     0.63223   0.16485   0.52414   0.00000  Uiso   1.00
C471   C     0.91472   0.38250   0.47594   0.00000  Uiso   1.00
C472   C     0.86777   0.33515   0.52414   0.00000  Uiso   1.00
C473   C     0.58528   0.11750   0.47594   0.00000  Uiso   1.00
C474   C     0.61777   0.41485   0.52414   0.00000  Uiso   1.00
C475   C     0.88223   0.08515   0.52414   0.00000  Uiso   1.00
C476   C     0.83528   0.13250   0.47594   0.00000  Uiso   1.00
C477   C     0.66472   0.36750   0.47594   0.00000  Uiso   1.00
C478   C     0.83528   0.36750   0.52406   0.00000  Uiso   1.00
C479   C     0.94012   0.19001   0.49999   0.00000  Uiso   1.00
C480   C     0.61777   0.08515   0.47586   0.00000  Uiso   1.00
C481   C     0.66472   0.13250   0.52406   0.00000  Uiso   1.00
C482   C     0.88223   0.41485   0.47586   0.00000  Uiso   1.00
C483   C     0.59298   0.34307   0.49996   0.00000  Uiso   1.00
C484   C     0.90702   0.15693   0.49996   0.00000  Uiso   1.00
C485   C     0.90702   0.34307   0.50004   0.00000  Uiso   1.00
C486   C     0.59298   0.15693   0.50004   0.00000  Uiso   1.00
C487   C     0.84298   0.09307   0.50004   0.00000  Uiso   1.00
C488   C     0.65702   0.40693   0.50004   0.00000  Uiso   1.00
C489   C     0.65702   0.09307   0.49996   0.00000  Uiso   1.00
C490   C     0.55988   0.30999   0.49999   0.00000  Uiso   1.00
C491   C     0.84298   0.40693   0.49996   0.00000  Uiso   1.00
C492   C     0.80988   0.44001   0.49999   0.00000  Uiso   1.00
C493   C     0.69012   0.05999   0.49999   0.00000  Uiso   1.00
C494   C     0.69012   0.44001   0.50001   0.00000  Uiso   1.00
C495   C     0.80988   0.05999   0.50001   0.00000  Uiso   1.00
C496   C     0.50004   0.28901   0.35729   0.00000  Uiso   1.00
H497   H     0.50014   0.32022   0.37538   0.00000  Uiso   1.00
H498   H     0.50015   0.17978   0.62462   0.00000  Uiso   1.00
H499   H     0.99986   0.17978   0.37538   0.00000  Uiso   1.00
H500   H     0.99985   0.32022   0.62462   0.00000  Uiso   1.00
H501   H     0.74987   0.07022   0.37538   0.00000  Uiso   1.00
H502   H     0.74985   0.42978   0.62462   0.00000  Uiso   1.00
H503   H     0.75013   0.42978   0.37538   0.00000  Uiso   1.00
H504   H     0.75015   0.07022   0.62462   0.00000  Uiso   1.00
N505   N     0.50000   0.25000   0.61907   0.00000  Uiso   1.00
N506   N     0.50000   0.25000   0.38093   0.00000  Uiso   1.00
N507   N     0.75000   0.00000   0.61907   0.00000  Uiso   1.00
N508   N     0.75000   0.00000   0.38093   0.00000  Uiso   1.00
O509   O     0.54580   0.20419   0.53821   0.00000  Uiso   1.00
O510   O     0.70419   0.04581   0.46179   0.00000  Uiso   1.00
O511   O     0.70419   0.04581   0.53821   0.00000  Uiso   1.00
O512   O     0.79580   0.45419   0.46179   0.00000  Uiso   1.00
O513   O     0.70419   0.45419   0.46179   0.00000  Uiso   1.00
O514   O     0.79580   0.04581   0.53821   0.00000  Uiso   1.00
O515   O     0.79580   0.04581   0.46179   0.00000  Uiso   1.00
O516   O     0.70419   0.45419   0.53821   0.00000  Uiso   1.00
O517   O     0.95419   0.29581   0.46179   0.00000  Uiso   1.00
O518   O     0.95419   0.29581   0.53821   0.00000  Uiso   1.00
O519   O     0.54580   0.20419   0.46179   0.00000  Uiso   1.00
O520   O     0.95419   0.20419   0.46179   0.00000  Uiso   1.00
O521   O     0.54580   0.29581   0.53821   0.00000  Uiso   1.00
O522   O     0.54580   0.29581   0.46179   0.00000  Uiso   1.00
O523   O     0.95419   0.20419   0.53821   0.00000  Uiso   1.00
O524   O     0.79580   0.45419   0.53821   0.00000  Uiso   1.00
Zn525  Zn    0.50000   0.25000   0.55104   0.00000  Uiso   1.00
Zn526  Zn    0.50000   0.25000   0.44896   0.00000  Uiso   1.00
Zn527  Zn    0.75000   0.00000   0.55104   0.00000  Uiso   1.00
Zn528  Zn    0.75000   0.00000   0.44896   0.00000  Uiso   1.00
Br529  Br    0.35753   0.72033   0.44430   0.00000  Uiso   1.00
Br530  Br    0.39247   0.52967   0.55570   0.00000  Uiso   1.00
Br531  Br    0.27987   0.64326   0.44481   0.00000  Uiso   1.00
Br532  Br    0.22013   0.85674   0.44481   0.00000  Uiso   1.00
Br533  Br    0.27987   0.85674   0.55519   0.00000  Uiso   1.00
Br534  Br    0.10753   0.52967   0.44430   0.00000  Uiso   1.00
Br535  Br    0.22013   0.64326   0.55519   0.00000  Uiso   1.00
Br536  Br    0.39247   0.97033   0.44430   0.00000  Uiso   1.00
Br537  Br    0.14247   0.77967   0.44430   0.00000  Uiso   1.00
Br538  Br    0.02987   0.89326   0.55519   0.00000  Uiso   1.00
Br539  Br    0.47013   0.60674   0.55519   0.00000  Uiso   1.00
Br540  Br    0.14247   0.72033   0.55570   0.00000  Uiso   1.00
Br541  Br    0.47013   0.89326   0.44481   0.00000  Uiso   1.00
Br542  Br    0.35753   0.77967   0.55570   0.00000  Uiso   1.00
Br543  Br    0.02987   0.60674   0.44481   0.00000  Uiso   1.00
Br544  Br    0.10753   0.97033   0.55570   0.00000  Uiso   1.00
C545   C     0.05988   0.69001   0.50001   0.00000  Uiso   1.00
C546   C     0.00004   0.71099   0.64271   0.00000  Uiso   1.00
C547   C     0.49996   0.71099   0.35729   0.00000  Uiso   1.00
C548   C     0.49996   0.78901   0.64271   0.00000  Uiso   1.00
C549   C     0.24996   0.53901   0.35729   0.00000  Uiso   1.00
C550   C     0.24995   0.96099   0.64271   0.00000  Uiso   1.00
C551   C     0.25004   0.96099   0.35729   0.00000  Uiso   1.00
C552   C     0.25005   0.53901   0.64271   0.00000  Uiso   1.00
C553   C     0.36777   0.66485   0.47586   0.00000  Uiso   1.00
C554   C     0.13223   0.83515   0.47586   0.00000  Uiso   1.00
C555   C     0.08528   0.88250   0.52406   0.00000  Uiso   1.00
C556   C     0.44012   0.80999   0.50001   0.00000  Uiso   1.00
C557   C     0.41472   0.61750   0.52406   0.00000  Uiso   1.00
C558   C     0.13223   0.66485   0.52414   0.00000  Uiso   1.00
C559   C     0.41472   0.88250   0.47594   0.00000  Uiso   1.00
C560   C     0.36777   0.83515   0.52414   0.00000  Uiso   1.00
C561   C     0.08528   0.61750   0.47594   0.00000  Uiso   1.00
C562   C     0.11777   0.91485   0.52414   0.00000  Uiso   1.00
C563   C     0.38223   0.58515   0.52414   0.00000  Uiso   1.00
C564   C     0.33528   0.63250   0.47594   0.00000  Uiso   1.00
C565   C     0.16472   0.86750   0.47594   0.00000  Uiso   1.00
C566   C     0.33528   0.86750   0.52406   0.00000  Uiso   1.00
C567   C     0.44012   0.69001   0.49999   0.00000  Uiso   1.00
C568   C     0.11777   0.58515   0.47586   0.00000  Uiso   1.00
C569   C     0.16472   0.63250   0.52406   0.00000  Uiso   1.00
C570   C     0.38223   0.91485   0.47586   0.00000  Uiso   1.00
C571   C     0.09298   0.84307   0.49996   0.00000  Uiso   1.00
C572   C     0.40702   0.65693   0.49996   0.00000  Uiso   1.00
C573   C     0.40702   0.84307   0.50004   0.00000  Uiso   1.00
C574   C     0.09298   0.65693   0.50004   0.00000  Uiso   1.00
C575   C     0.34298   0.59307   0.50004   0.00000  Uiso   1.00
C576   C     0.15702   0.90693   0.50004   0.00000  Uiso   1.00
C577   C     0.15702   0.59307   0.49996   0.00000  Uiso   1.00
C578   C     0.05988   0.80999   0.49999   0.00000  Uiso   1.00
C579   C     0.34298   0.90693   0.49996   0.00000  Uiso   1.00
C580   C     0.30988   0.94001   0.49999   0.00000  Uiso   1.00
C581   C     0.19012   0.55999   0.49999   0.00000  Uiso   1.00
C582   C     0.19012   0.94001   0.50001   0.00000  Uiso   1.00
C583   C     0.30988   0.55999   0.50001   0.00000  Uiso   1.00
C584   C     0.00004   0.78901   0.35729   0.00000  Uiso   1.00
H585   H     0.00014   0.82022   0.37538   0.00000  Uiso   1.00
H586   H     0.00015   0.67978   0.62462   0.00000  Uiso   1.00
H587   H     0.49986   0.67978   0.37538   0.00000  Uiso   1.00
H588   H     0.49985   0.82022   0.62462   0.00000  Uiso   1.00
H589   H     0.24987   0.57022   0.37538   0.00000  Uiso   1.00
H590   H     0.24985   0.92978   0.62462   0.00000  Uiso   1.00
H591   H     0.25013   0.92978   0.37538   0.00000  Uiso   1.00
H592   H     0.25015   0.57022   0.62462   0.00000  Uiso   1.00
N593   N     0.00000   0.75000   0.61907   0.00000  Uiso   1.00
N594   N     0.00000   0.75000   0.38093   0.00000  Uiso   1.00
N595   N     0.25000   0.50000   0.61907   0.00000  Uiso   1.00
N596   N     0.25000   0.50000   0.38093   0.00000  Uiso   1.00
O597   O     0.04580   0.70419   0.53821   0.00000  Uiso   1.00
O598   O     0.20419   0.54581   0.46179   0.00000  Uiso   1.00
O599   O     0.20419   0.54581   0.53821   0.00000  Uiso   1.00
O600   O     0.29580   0.95419   0.46179   0.00000  Uiso   1.00
O601   O     0.20419   0.95419   0.46179   0.00000  Uiso   1.00
O602   O     0.29580   0.54581   0.53821   0.00000  Uiso   1.00
O603   O     0.29580   0.54581   0.46179   0.00000  Uiso   1.00
O604   O     0.20419   0.95419   0.53821   0.00000  Uiso   1.00
O605   O     0.45419   0.79581   0.46179   0.00000  Uiso   1.00
O606   O     0.45419   0.79581   0.53821   0.00000  Uiso   1.00
O607   O     0.04580   0.70419   0.46179   0.00000  Uiso   1.00
O608   O     0.45419   0.70419   0.46179   0.00000  Uiso   1.00
O609   O     0.04580   0.79581   0.53821   0.00000  Uiso   1.00
O610   O     0.04580   0.79581   0.46179   0.00000  Uiso   1.00
O611   O     0.45419   0.70419   0.53821   0.00000  Uiso   1.00
O612   O     0.29580   0.95419   0.53821   0.00000  Uiso   1.00
Zn613  Zn    0.00000   0.75000   0.55104   0.00000  Uiso   1.00
Zn614  Zn    0.00000   0.75000   0.44896   0.00000  Uiso   1.00
Zn615  Zn    0.25000   0.50000   0.55104   0.00000  Uiso   1.00
Zn616  Zn    0.25000   0.50000   0.44896   0.00000  Uiso   1.00
Br617  Br    0.85753   0.72033   0.44430   0.00000  Uiso   1.00
Br618  Br    0.89247   0.52967   0.55570   0.00000  Uiso   1.00
Br619  Br    0.77987   0.64326   0.44481   0.00000  Uiso   1.00
Br620  Br    0.72013   0.85674   0.44481   0.00000  Uiso   1.00
Br621  Br    0.77987   0.85674   0.55519   0.00000  Uiso   1.00
Br622  Br    0.60753   0.52967   0.44430   0.00000  Uiso   1.00
Br623  Br    0.72013   0.64326   0.55519   0.00000  Uiso   1.00
Br624  Br    0.89247   0.97033   0.44430   0.00000  Uiso   1.00
Br625  Br    0.64247   0.77967   0.44430   0.00000  Uiso   1.00
Br626  Br    0.52987   0.89326   0.55519   0.00000  Uiso   1.00
Br627  Br    0.97013   0.60674   0.55519   0.00000  Uiso   1.00
Br628  Br    0.64247   0.72033   0.55570   0.00000  Uiso   1.00
Br629  Br    0.97013   0.89326   0.44481   0.00000  Uiso   1.00
Br630  Br    0.85753   0.77967   0.55570   0.00000  Uiso   1.00
Br631  Br    0.52987   0.60674   0.44481   0.00000  Uiso   1.00
Br632  Br    0.60753   0.97033   0.55570   0.00000  Uiso   1.00
C633   C     0.55988   0.69001   0.50001   0.00000  Uiso   1.00
C634   C     0.50004   0.71099   0.64271   0.00000  Uiso   1.00
C635   C     0.99996   0.71099   0.35729   0.00000  Uiso   1.00
C636   C     0.99996   0.78901   0.64271   0.00000  Uiso   1.00
C637   C     0.74996   0.53901   0.35729   0.00000  Uiso   1.00
C638   C     0.74995   0.96099   0.64271   0.00000  Uiso   1.00
C639   C     0.75004   0.96099   0.35729   0.00000  Uiso   1.00
C640   C     0.75005   0.53901   0.64271   0.00000  Uiso   1.00
C641   C     0.86777   0.66485   0.47586   0.00000  Uiso   1.00
C642   C     0.63223   0.83515   0.47586   0.00000  Uiso   1.00
C643   C     0.58528   0.88250   0.52406   0.00000  Uiso   1.00
C644   C     0.94012   0.80999   0.50001   0.00000  Uiso   1.00
C645   C     0.91472   0.61750   0.52406   0.00000  Uiso   1.00
C646   C     0.63223   0.66485   0.52414   0.00000  Uiso   1.00
C647   C     0.91472   0.88250   0.47594   0.00000  Uiso   1.00
C648   C     0.86777   0.83515   0.52414   0.00000  Uiso   1.00
C649   C     0.58528   0.61750   0.47594   0.00000  Uiso   1.00
C650   C     0.61777   0.91485   0.52414   0.00000  Uiso   1.00
C651   C     0.88223   0.58515   0.52414   0.00000  Uiso   1.00
C652   C     0.83528   0.63250   0.47594   0.00000  Uiso   1.00
C653   C     0.66472   0.86750   0.47594   0.00000  Uiso   1.00
C654   C     0.83528   0.86750   0.52406   0.00000  Uiso   1.00
C655   C     0.94012   0.69001   0.49999   0.00000  Uiso   1.00
C656   C     0.61777   0.58515   0.47586   0.00000  Uiso   1.00
C657   C     0.66472   0.63250   0.52406   0.00000  Uiso   1.00
C658   C     0.88223   0.91485   0.47586   0.00000  Uiso   1.00
C659   C     0.59298   0.84307   0.49996   0.00000  Uiso   1.00
C660   C     0.90702   0.65693   0.49996   0.00000  Uiso   1.00
C661   C     0.90702   0.84307   0.50004   0.00000  Uiso   1.00
C662   C     0.59298   0.65693   0.50004   0.00000  Uiso   1.00
C663   C     0.84298   0.59307   0.50004   0.00000  Uiso   1.00
C664   C     0.65702   0.90693   0.50004   0.00000  Uiso   1.00
C665   C     0.65702   0.59307   0.49996   0.00000  Uiso   1.00
C666   C     0.55988   0.80999   0.49999   0.00000  Uiso   1.00
C667   C     0.84298   0.90693   0.49996   0.00000  Uiso   1.00
C668   C     0.80988   0.94001   0.49999   0.00000  Uiso   1.00
C669   C     0.69012   0.55999   0.49999   0.00000  Uiso   1.00
C670   C     0.69012   0.94001   0.50001   0.00000  Uiso   1.00
C671   C     0.80988   0.55999   0.50001   0.00000  Uiso   1.00
C672   C     0.50004   0.78901   0.35729   0.00000  Uiso   1.00
H673   H     0.50014   0.82022   0.37538   0.00000  Uiso   1.00
H674   H     0.50015   0.67978   0.62462   0.00000  Uiso   1.00
H675   H     0.99986   0.67978   0.37538   0.00000  Uiso   1.00
H676   H     0.99985   0.82022   0.62462   0.00000  Uiso   1.00
H677   H     0.74987   0.57022   0.37538   0.00000  Uiso   1.00
H678   H     0.74985   0.92978   0.62462   0.00000  Uiso   1.00
H679   H     0.75013   0.92978   0.37538   0.00000  Uiso   1.00
H680   H     0.75015   0.57022   0.62462   0.00000  Uiso   1.00
N681   N     0.50000   0.75000   0.61907   0.00000  Uiso   1.00
N682   N     0.50000   0.75000   0.38093   0.00000  Uiso   1.00
N683   N     0.75000   0.50000   0.61907   0.00000  Uiso   1.00
N684   N     0.75000   0.50000   0.38093   0.00000  Uiso   1.00
O685   O     0.54580   0.70419   0.53821   0.00000  Uiso   1.00
O686   O     0.70419   0.54581   0.46179   0.00000  Uiso   1.00
O687   O     0.70419   0.54581   0.53821   0.00000  Uiso   1.00
O688   O     0.79580   0.95419   0.46179   0.00000  Uiso   1.00
O689   O     0.70419   0.95419   0.46179   0.00000  Uiso   1.00
O690   O     0.79580   0.54581   0.53821   0.00000  Uiso   1.00
O691   O     0.79580   0.54581   0.46179   0.00000  Uiso   1.00
O692   O     0.70419   0.95419   0.53821   0.00000  Uiso   1.00
O693   O     0.95419   0.79581   0.46179   0.00000  Uiso   1.00
O694   O     0.95419   0.79581   0.53821   0.00000  Uiso   1.00
O695   O     0.54580   0.70419   0.46179   0.00000  Uiso   1.00
O696   O     0.95419   0.70419   0.46179   0.00000  Uiso   1.00
O697   O     0.54580   0.79581   0.53821   0.00000  Uiso   1.00
O698   O     0.54580   0.79581   0.46179   0.00000  Uiso   1.00
O699   O     0.95419   0.70419   0.53821   0.00000  Uiso   1.00
O700   O     0.79580   0.95419   0.53821   0.00000  Uiso   1.00
Zn701  Zn    0.50000   0.75000   0.55104   0.00000  Uiso   1.00
Zn702  Zn    0.50000   0.75000   0.44896   0.00000  Uiso   1.00
Zn703  Zn    0.75000   0.50000   0.55104   0.00000  Uiso   1.00
Zn704  Zn    0.75000   0.50000   0.44896   0.00000  Uiso   1.00
Br705  Br    0.35753   0.22033   0.77763   0.00000  Uiso   1.00
Br706  Br    0.39247   0.02967   0.88903   0.00000  Uiso   1.00
Br707  Br    0.27987   0.14326   0.77814   0.00000  Uiso   1.00
Br708  Br    0.22013   0.35674   0.77814   0.00000  Uiso   1.00
Br709  Br    0.27987   0.35674   0.88853   0.00000  Uiso   1.00
Br710  Br    0.10753   0.02967   0.77763   0.00000  Uiso   1.00
Br711  Br    0.22013   0.14326   0.88853   0.00000  Uiso   1.00
Br712  Br    0.39247   0.47033   0.77763   0.00000  Uiso   1.00
Br713  Br    0.14247   0.27967   0.77763   0.00000  Uiso   1.00
Br714  Br    0.02987   0.39326   0.88852   0.00000  Uiso   1.00
Br715  Br    0.47013   0.10674   0.88852   0.00000  Uiso   1.00
Br716  Br    0.14247   0.22033   0.88903   0.00000  Uiso   1.00
Br717  Br    0.47013   0.39326   0.77814   0.00000  Uiso   1.00
Br718  Br    0.35753   0.27967   0.88903   0.00000  Uiso   1.00
Br719  Br    0.02987   0.10674   0.77814   0.00000  Uiso   1.00
Br720  Br    0.10753   0.47033   0.88903   0.00000  Uiso   1.00
C721   C     0.05988   0.19001   0.83334   0.00000  Uiso   1.00
C722   C     0.00004   0.21099   0.97604   0.00000  Uiso   1.00
C723   C     0.49996   0.21099   0.69062   0.00000  Uiso   1.00
C724   C     0.49996   0.28901   0.97604   0.00000  Uiso   1.00
C725   C     0.24996   0.03901   0.69062   0.00000  Uiso   1.00
C726   C     0.24995   0.46099   0.97604   0.00000  Uiso   1.00
C727   C     0.25004   0.46099   0.69062   0.00000  Uiso   1.00
C728   C     0.25005   0.03901   0.97604   0.00000  Uiso   1.00
C729   C     0.36777   0.16485   0.80919   0.00000  Uiso   1.00
C730   C     0.13223   0.33515   0.80919   0.00000  Uiso   1.00
C731   C     0.08528   0.38250   0.85739   0.00000  Uiso   1.00
C732   C     0.44012   0.30999   0.83334   0.00000  Uiso   1.00
C733   C     0.41472   0.11750   0.85739   0.00000  Uiso   1.00
C734   C     0.13223   0.16485   0.85747   0.00000  Uiso   1.00
C735   C     0.41472   0.38250   0.80928   0.00000  Uiso   1.00
C736   C     0.36777   0.33515   0.85747   0.00000  Uiso   1.00
C737   C     0.08528   0.11750   0.80928   0.00000  Uiso   1.00
C738   C     0.11777   0.41485   0.85747   0.00000  Uiso   1.00
C739   C     0.38223   0.08515   0.85747   0.00000  Uiso   1.00
C740   C     0.33528   0.13250   0.80928   0.00000  Uiso   1.00
C741   C     0.16472   0.36750   0.80928   0.00000  Uiso   1.00
C742   C     0.33528   0.36750   0.85739   0.00000  Uiso   1.00
C743   C     0.44012   0.19001   0.83333   0.00000  Uiso   1.00
C744   C     0.11777   0.08515   0.80919   0.00000  Uiso   1.00
C745   C     0.16472   0.13250   0.85739   0.00000  Uiso   1.00
C746   C     0.38223   0.41485   0.80919   0.00000  Uiso   1.00
C747   C     0.09298   0.34307   0.83330   0.00000  Uiso   1.00
C748   C     0.40702   0.15693   0.83330   0.00000  Uiso   1.00
C749   C     0.40702   0.34307   0.83337   0.00000  Uiso   1.00
C750   C     0.09298   0.15693   0.83337   0.00000  Uiso   1.00
C751   C     0.34298   0.09307   0.83337   0.00000  Uiso   1.00
C752   C     0.15702   0.40693   0.83337   0.00000  Uiso   1.00
C753   C     0.15702   0.09307   0.83330   0.00000  Uiso   1.00
C754   C     0.05988   0.30999   0.83333   0.00000  Uiso   1.00
C755   C     0.34298   0.40693   0.83330   0.00000  Uiso   1.00
C756   C     0.30988   0.44001   0.83333   0.00000  Uiso   1.00
C757   C     0.19012   0.05999   0.83333   0.00000  Uiso   1.00
C758   C     0.19012   0.44001   0.83334   0.00000  Uiso   1.00
C759   C     0.30988   0.05999   0.83334   0.00000  Uiso   1.00
C760   C     0.00004   0.28901   0.69062   0.00000  Uiso   1.00
H761   H     0.00014   0.32022   0.70871   0.00000  Uiso   1.00
H762   H     0.00015   0.17978   0.95795   0.00000  Uiso   1.00
H763   H     0.49986   0.17978   0.70871   0.00000  Uiso   1.00
H764   H     0.49985   0.32022   0.95795   0.00000  Uiso   1.00
H765   H     0.24987   0.07022   0.70871   0.00000  Uiso   1.00
H766   H     0.24985   0.42978   0.95795   0.00000  Uiso   1.00
H767   H     0.25013   0.42978   0.70871   0.00000  Uiso   1.00
H768   H     0.25015   0.07022   0.95795   0.00000  Uiso   1.00
N769   N     0.00000   0.25000   0.95240   0.00000  Uiso   1.00
N770   N     0.00000   0.25000   0.71427   0.00000  Uiso   1.00
N771   N     0.25000   0.00000   0.95240   0.00000  Uiso   1.00
N772   N     0.25000   0.00000   0.71427   0.00000  Uiso   1.00
O773   O     0.04580   0.20419   0.87154   0.00000  Uiso   1.00
O774   O     0.20419   0.04581   0.79513   0.00000  Uiso   1.00
O775   O     0.20419   0.04581   0.87154   0.00000  Uiso   1.00
O776   O     0.29580   0.45419   0.79513   0.00000  Uiso   1.00
O777   O     0.20419   0.45419   0.79513   0.00000  Uiso   1.00
O778   O     0.29580   0.04581   0.87154   0.00000  Uiso   1.00
O779   O     0.29580   0.04581   0.79513   0.00000  Uiso   1.00
O780   O     0.20419   0.45419   0.87154   0.00000  Uiso   1.00
O781   O     0.45419   0.29581   0.79513   0.00000  Uiso   1.00
O782   O     0.45419   0.29581   0.87154   0.00000  Uiso   1.00
O783   O     0.04580   0.20419   0.79513   0.00000  Uiso   1.00
O784   O     0.45419   0.20419   0.79513   0.00000  Uiso   1.00
O785   O     0.04580   0.29581   0.87154   0.00000  Uiso   1.00
O786   O     0.04580   0.29581   0.79513   0.00000  Uiso   1.00
O787   O     0.45419   0.20419   0.87154   0.00000  Uiso   1.00
O788   O     0.29580   0.45419   0.87154   0.00000  Uiso   1.00
Zn789  Zn    0.00000   0.25000   0.88437   0.00000  Uiso   1.00
Zn790  Zn    0.00000   0.25000   0.78229   0.00000  Uiso   1.00
Zn791  Zn    0.25000   0.00000   0.88437   0.00000  Uiso   1.00
Zn792  Zn    0.25000   0.00000   0.78229   0.00000  Uiso   1.00
Br793  Br    0.85753   0.22033   0.77763   0.00000  Uiso   1.00
Br794  Br    0.89247   0.02967   0.88903   0.00000  Uiso   1.00
Br795  Br    0.77987   0.14326   0.77814   0.00000  Uiso   1.00
Br796  Br    0.72013   0.35674   0.77814   0.00000  Uiso   1.00
Br797  Br    0.77987   0.35674   0.88853   0.00000  Uiso   1.00
Br798  Br    0.60753   0.02967   0.77763   0.00000  Uiso   1.00
Br799  Br    0.72013   0.14326   0.88853   0.00000  Uiso   1.00
Br800  Br    0.89247   0.47033   0.77763   0.00000  Uiso   1.00
Br801  Br    0.64247   0.27967   0.77763   0.00000  Uiso   1.00
Br802  Br    0.52987   0.39326   0.88852   0.00000  Uiso   1.00
Br803  Br    0.97013   0.10674   0.88852   0.00000  Uiso   1.00
Br804  Br    0.64247   0.22033   0.88903   0.00000  Uiso   1.00
Br805  Br    0.97013   0.39326   0.77814   0.00000  Uiso   1.00
Br806  Br    0.85753   0.27967   0.88903   0.00000  Uiso   1.00
Br807  Br    0.52987   0.10674   0.77814   0.00000  Uiso   1.00
Br808  Br    0.60753   0.47033   0.88903   0.00000  Uiso   1.00
C809   C     0.55988   0.19001   0.83334   0.00000  Uiso   1.00
C810   C     0.50004   0.21099   0.97604   0.00000  Uiso   1.00
C811   C     0.99996   0.21099   0.69062   0.00000  Uiso   1.00
C812   C     0.99996   0.28901   0.97604   0.00000  Uiso   1.00
C813   C     0.74996   0.03901   0.69062   0.00000  Uiso   1.00
C814   C     0.74995   0.46099   0.97604   0.00000  Uiso   1.00
C815   C     0.75004   0.46099   0.69062   0.00000  Uiso   1.00
C816   C     0.75005   0.03901   0.97604   0.00000  Uiso   1.00
C817   C     0.86777   0.16485   0.80919   0.00000  Uiso   1.00
C818   C     0.63223   0.33515   0.80919   0.00000  Uiso   1.00
C819   C     0.58528   0.38250   0.85739   0.00000  Uiso   1.00
C820   C     0.94012   0.30999   0.83334   0.00000  Uiso   1.00
C821   C     0.91472   0.11750   0.85739   0.00000  Uiso   1.00
C822   C     0.63223   0.16485   0.85747   0.00000  Uiso   1.00
C823   C     0.91472   0.38250   0.80928   0.00000  Uiso   1.00
C824   C     0.86777   0.33515   0.85747   0.00000  Uiso   1.00
C825   C     0.58528   0.11750   0.80928   0.00000  Uiso   1.00
C826   C     0.61777   0.41485   0.85747   0.00000  Uiso   1.00
C827   C     0.88223   0.08515   0.85747   0.00000  Uiso   1.00
C828   C     0.83528   0.13250   0.80928   0.00000  Uiso   1.00
C829   C     0.66472   0.36750   0.80928   0.00000  Uiso   1.00
C830   C     0.83528   0.36750   0.85739   0.00000  Uiso   1.00
C831   C     0.94012   0.19001   0.83333   0.00000  Uiso   1.00
C832   C     0.61777   0.08515   0.80919   0.00000  Uiso   1.00
C833   C     0.66472   0.13250   0.85739   0.00000  Uiso   1.00
C834   C     0.88223   0.41485   0.80919   0.00000  Uiso   1.00
C835   C     0.59298   0.34307   0.83330   0.00000  Uiso   1.00
C836   C     0.90702   0.15693   0.83330   0.00000  Uiso   1.00
C837   C     0.90702   0.34307   0.83337   0.00000  Uiso   1.00
C838   C     0.59298   0.15693   0.83337   0.00000  Uiso   1.00
C839   C     0.84298   0.09307   0.83337   0.00000  Uiso   1.00
C840   C     0.65702   0.40693   0.83337   0.00000  Uiso   1.00
C841   C     0.65702   0.09307   0.83330   0.00000  Uiso   1.00
C842   C     0.55988   0.30999   0.83333   0.00000  Uiso   1.00
C843   C     0.84298   0.40693   0.83330   0.00000  Uiso   1.00
C844   C     0.80988   0.44001   0.83333   0.00000  Uiso   1.00
C845   C     0.69012   0.05999   0.83333   0.00000  Uiso   1.00
C846   C     0.69012   0.44001   0.83334   0.00000  Uiso   1.00
C847   C     0.80988   0.05999   0.83334   0.00000  Uiso   1.00
C848   C     0.50004   0.28901   0.69062   0.00000  Uiso   1.00
H849   H     0.50014   0.32022   0.70871   0.00000  Uiso   1.00
H850   H     0.50015   0.17978   0.95795   0.00000  Uiso   1.00
H851   H     0.99986   0.17978   0.70871   0.00000  Uiso   1.00
H852   H     0.99985   0.32022   0.95795   0.00000  Uiso   1.00
H853   H     0.74987   0.07022   0.70871   0.00000  Uiso   1.00
H854   H     0.74985   0.42978   0.95795   0.00000  Uiso   1.00
H855   H     0.75013   0.42978   0.70871   0.00000  Uiso   1.00
H856   H     0.75015   0.07022   0.95795   0.00000  Uiso   1.00
N857   N     0.50000   0.25000   0.95240   0.00000  Uiso   1.00
N858   N     0.50000   0.25000   0.71427   0.00000  Uiso   1.00
N859   N     0.75000   0.00000   0.95240   0.00000  Uiso   1.00
N860   N     0.75000   0.00000   0.71427   0.00000  Uiso   1.00
O861   O     0.54580   0.20419   0.87154   0.00000  Uiso   1.00
O862   O     0.70419   0.04581   0.79513   0.00000  Uiso   1.00
O863   O     0.70419   0.04581   0.87154   0.00000  Uiso   1.00
O864   O     0.79580   0.45419   0.79513   0.00000  Uiso   1.00
O865   O     0.70419   0.45419   0.79513   0.00000  Uiso   1.00
O866   O     0.79580   0.04581   0.87154   0.00000  Uiso   1.00
O867   O     0.79580   0.04581   0.79513   0.00000  Uiso   1.00
O868   O     0.70419   0.45419   0.87154   0.00000  Uiso   1.00
O869   O     0.95419   0.29581   0.79513   0.00000  Uiso   1.00
O870   O     0.95419   0.29581   0.87154   0.00000  Uiso   1.00
O871   O     0.54580   0.20419   0.79513   0.00000  Uiso   1.00
O872   O     0.95419   0.20419   0.79513   0.00000  Uiso   1.00
O873   O     0.54580   0.29581   0.87154   0.00000  Uiso   1.00
O874   O     0.54580   0.29581   0.79513   0.00000  Uiso   1.00
O875   O     0.95419   0.20419   0.87154   0.00000  Uiso   1.00
O876   O     0.79580   0.45419   0.87154   0.00000  Uiso   1.00
Zn877  Zn    0.50000   0.25000   0.88437   0.00000  Uiso   1.00
Zn878  Zn    0.50000   0.25000   0.78229   0.00000  Uiso   1.00
Zn879  Zn    0.75000   0.00000   0.88437   0.00000  Uiso   1.00
Zn880  Zn    0.75000   0.00000   0.78229   0.00000  Uiso   1.00
Br881  Br    0.35753   0.72033   0.77763   0.00000  Uiso   1.00
Br882  Br    0.39247   0.52967   0.88903   0.00000  Uiso   1.00
Br883  Br    0.27987   0.64326   0.77814   0.00000  Uiso   1.00
Br884  Br    0.22013   0.85674   0.77814   0.00000  Uiso   1.00
Br885  Br    0.27987   0.85674   0.88853   0.00000  Uiso   1.00
Br886  Br    0.10753   0.52967   0.77763   0.00000  Uiso   1.00
Br887  Br    0.22013   0.64326   0.88853   0.00000  Uiso   1.00
Br888  Br    0.39247   0.97033   0.77763   0.00000  Uiso   1.00
Br889  Br    0.14247   0.77967   0.77763   0.00000  Uiso   1.00
Br890  Br    0.02987   0.89326   0.88852   0.00000  Uiso   1.00
Br891  Br    0.47013   0.60674   0.88852   0.00000  Uiso   1.00
Br892  Br    0.14247   0.72033   0.88903   0.00000  Uiso   1.00
Br893  Br    0.47013   0.89326   0.77814   0.00000  Uiso   1.00
Br894  Br    0.35753   0.77967   0.88903   0.00000  Uiso   1.00
Br895  Br    0.02987   0.60674   0.77814   0.00000  Uiso   1.00
Br896  Br    0.10753   0.97033   0.88903   0.00000  Uiso   1.00
C897   C     0.05988   0.69001   0.83334   0.00000  Uiso   1.00
C898   C     0.00004   0.71099   0.97604   0.00000  Uiso   1.00
C899   C     0.49996   0.71099   0.69062   0.00000  Uiso   1.00
C900   C     0.49996   0.78901   0.97604   0.00000  Uiso   1.00
C901   C     0.24996   0.53901   0.69062   0.00000  Uiso   1.00
C902   C     0.24995   0.96099   0.97604   0.00000  Uiso   1.00
C903   C     0.25004   0.96099   0.69062   0.00000  Uiso   1.00
C904   C     0.25005   0.53901   0.97604   0.00000  Uiso   1.00
C905   C     0.36777   0.66485   0.80919   0.00000  Uiso   1.00
C906   C     0.13223   0.83515   0.80919   0.00000  Uiso   1.00
C907   C     0.08528   0.88250   0.85739   0.00000  Uiso   1.00
C908   C     0.44012   0.80999   0.83334   0.00000  Uiso   1.00
C909   C     0.41472   0.61750   0.85739   0.00000  Uiso   1.00
C910   C     0.13223   0.66485   0.85747   0.00000  Uiso   1.00
C911   C     0.41472   0.88250   0.80928   0.00000  Uiso   1.00
C912   C     0.36777   0.83515   0.85747   0.00000  Uiso   1.00
C913   C     0.08528   0.61750   0.80928   0.00000  Uiso   1.00
C914   C     0.11777   0.91485   0.85747   0.00000  Uiso   1.00
C915   C     0.38223   0.58515   0.85747   0.00000  Uiso   1.00
C916   C     0.33528   0.63250   0.80928   0.00000  Uiso   1.00
C917   C     0.16472   0.86750   0.80928   0.00000  Uiso   1.00
C918   C     0.33528   0.86750   0.85739   0.00000  Uiso   1.00
C919   C     0.44012   0.69001   0.83333   0.00000  Uiso   1.00
C920   C     0.11777   0.58515   0.80919   0.00000  Uiso   1.00
C921   C     0.16472   0.63250   0.85739   0.00000  Uiso   1.00
C922   C     0.38223   0.91485   0.80919   0.00000  Uiso   1.00
C923   C     0.09298   0.84307   0.83330   0.00000  Uiso   1.00
C924   C     0.40702   0.65693   0.83330   0.00000  Uiso   1.00
C925   C     0.40702   0.84307   0.83337   0.00000  Uiso   1.00
C926   C     0.09298   0.65693   0.83337   0.00000  Uiso   1.00
C927   C     0.34298   0.59307   0.83337   0.00000  Uiso   1.00
C928   C     0.15702   0.90693   0.83337   0.00000  Uiso   1.00
C929   C     0.15702   0.59307   0.83330   0.00000  Uiso   1.00
C930   C     0.05988   0.80999   0.83333   0.00000  Uiso   1.00
C931   C     0.34298   0.90693   0.83330   0.00000  Uiso   1.00
C932   C     0.30988   0.94001   0.83333   0.00000  Uiso   1.00
C933   C     0.19012   0.55999   0.83333   0.00000  Uiso   1.00
C934   C     0.19012   0.94001   0.83334   0.00000  Uiso   1.00
C935   C     0.30988   0.55999   0.83334   0.00000  Uiso   1.00
C936   C     0.00004   0.78901   0.69062   0.00000  Uiso   1.00
H937   H     0.00014   0.82022   0.70871   0.00000  Uiso   1.00
H938   H     0.00015   0.67978   0.95795   0.00000  Uiso   1.00
H939   H     0.49986   0.67978   0.70871   0.00000  Uiso   1.00
H940   H     0.49985   0.82022   0.95795   0.00000  Uiso   1.00
H941   H     0.24987   0.57022   0.70871   0.00000  Uiso   1.00
H942   H     0.24985   0.92978   0.95795   0.00000  Uiso   1.00
H943   H     0.25013   0.92978   0.70871   0.00000  Uiso   1.00
H944   H     0.25015   0.57022   0.95795   0.00000  Uiso   1.00
N945   N     0.00000   0.75000   0.95240   0.00000  Uiso   1.00
N946   N     0.00000   0.75000   0.71427   0.00000  Uiso   1.00
N947   N     0.25000   0.50000   0.95240   0.00000  Uiso   1.00
N948   N     0.25000   0.50000   0.71427   0.00000  Uiso   1.00
O949   O     0.04580   0.70419   0.87154   0.00000  Uiso   1.00
O950   O     0.20419   0.54581   0.79513   0.00000  Uiso   1.00
O951   O     0.20419   0.54581   0.87154   0.00000  Uiso   1.00
O952   O     0.29580   0.95419   0.79513   0.00000  Uiso   1.00
O953   O     0.20419   0.95419   0.79513   0.00000  Uiso   1.00
O954   O     0.29580   0.54581   0.87154   0.00000  Uiso   1.00
O955   O     0.29580   0.54581   0.79513   0.00000  Uiso   1.00
O956   O     0.20419   0.95419   0.87154   0.00000  Uiso   1.00
O957   O     0.45419   0.79581   0.79513   0.00000  Uiso   1.00
O958   O     0.45419   0.79581   0.87154   0.00000  Uiso   1.00
O959   O     0.04580   0.70419   0.79513   0.00000  Uiso   1.00
O960   O     0.45419   0.70419   0.79513   0.00000  Uiso   1.00
O961   O     0.04580   0.79581   0.87154   0.00000  Uiso   1.00
O962   O     0.04580   0.79581   0.79513   0.00000  Uiso   1.00
O963   O     0.45419   0.70419   0.87154   0.00000  Uiso   1.00
O964   O     0.29580   0.95419   0.87154   0.00000  Uiso   1.00
Zn965  Zn    0.00000   0.75000   0.88437   0.00000  Uiso   1.00
Zn966  Zn    0.00000   0.75000   0.78229   0.00000  Uiso   1.00
Zn967  Zn    0.25000   0.50000   0.88437   0.00000  Uiso   1.00
Zn968  Zn    0.25000   0.50000   0.78229   0.00000  Uiso   1.00
Br969  Br    0.85753   0.72033   0.77763   0.00000  Uiso   1.00
Br970  Br    0.89247   0.52967   0.88903   0.00000  Uiso   1.00
Br971  Br    0.77987   0.64326   0.77814   0.00000  Uiso   1.00
Br972  Br    0.72013   0.85674   0.77814   0.00000  Uiso   1.00
Br973  Br    0.77987   0.85674   0.88853   0.00000  Uiso   1.00
Br974  Br    0.60753   0.52967   0.77763   0.00000  Uiso   1.00
Br975  Br    0.72013   0.64326   0.88853   0.00000  Uiso   1.00
Br976  Br    0.89247   0.97033   0.77763   0.00000  Uiso   1.00
Br977  Br    0.64247   0.77967   0.77763   0.00000  Uiso   1.00
Br978  Br    0.52987   0.89326   0.88852   0.00000  Uiso   1.00
Br979  Br    0.97013   0.60674   0.88852   0.00000  Uiso   1.00
Br980  Br    0.64247   0.72033   0.88903   0.00000  Uiso   1.00
Br981  Br    0.97013   0.89326   0.77814   0.00000  Uiso   1.00
Br982  Br    0.85753   0.77967   0.88903   0.00000  Uiso   1.00
Br983  Br    0.52987   0.60674   0.77814   0.00000  Uiso   1.00
Br984  Br    0.60753   0.97033   0.88903   0.00000  Uiso   1.00
C985   C     0.55988   0.69001   0.83334   0.00000  Uiso   1.00
C986   C     0.50004   0.71099   0.97604   0.00000  Uiso   1.00
C987   C     0.99996   0.71099   0.69062   0.00000  Uiso   1.00
C988   C     0.99996   0.78901   0.97604   0.00000  Uiso   1.00
C989   C     0.74996   0.53901   0.69062   0.00000  Uiso   1.00
C990   C     0.74995   0.96099   0.97604   0.00000  Uiso   1.00
C991   C     0.75004   0.96099   0.69062   0.00000  Uiso   1.00
C992   C     0.75005   0.53901   0.97604   0.00000  Uiso   1.00
C993   C     0.86777   0.66485   0.80919   0.00000  Uiso   1.00
C994   C     0.63223   0.83515   0.80919   0.00000  Uiso   1.00
C995   C     0.58528   0.88250   0.85739   0.00000  Uiso   1.00
C996   C     0.94012   0.80999   0.83334   0.00000  Uiso   1.00
C997   C     0.91472   0.61750   0.85739   0.00000  Uiso   1.00
C998   C     0.63223   0.66485   0.85747   0.00000  Uiso   1.00
C999   C     0.91472   0.88250   0.80928   0.00000  Uiso   1.00
C1000  C     0.86777   0.83515   0.85747   0.00000  Uiso   1.00
C1001  C     0.58528   0.61750   0.80928   0.00000  Uiso   1.00
C1002  C     0.61777   0.91485   0.85747   0.00000  Uiso   1.00
C1003  C     0.88223   0.58515   0.85747   0.00000  Uiso   1.00
C1004  C     0.83528   0.63250   0.80928   0.00000  Uiso   1.00
C1005  C     0.66472   0.86750   0.80928   0.00000  Uiso   1.00
C1006  C     0.83528   0.86750   0.85739   0.00000  Uiso   1.00
C1007  C     0.94012   0.69001   0.83333   0.00000  Uiso   1.00
C1008  C     0.61777   0.58515   0.80919   0.00000  Uiso   1.00
C1009  C     0.66472   0.63250   0.85739   0.00000  Uiso   1.00
C1010  C     0.88223   0.91485   0.80919   0.00000  Uiso   1.00
C1011  C     0.59298   0.84307   0.83330   0.00000  Uiso   1.00
C1012  C     0.90702   0.65693   0.83330   0.00000  Uiso   1.00
C1013  C     0.90702   0.84307   0.83337   0.00000  Uiso   1.00
C1014  C     0.59298   0.65693   0.83337   0.00000  Uiso   1.00
C1015  C     0.84298   0.59307   0.83337   0.00000  Uiso   1.00
C1016  C     0.65702   0.90693   0.83337   0.00000  Uiso   1.00
C1017  C     0.65702   0.59307   0.83330   0.00000  Uiso   1.00
C1018  C     0.55988   0.80999   0.83333   0.00000  Uiso   1.00
C1019  C     0.84298   0.90693   0.83330   0.00000  Uiso   1.00
C1020  C     0.80988   0.94001   0.83333   0.00000  Uiso   1.00
C1021  C     0.69012   0.55999   0.83333   0.00000  Uiso   1.00
C1022  C     0.69012   0.94001   0.83334   0.00000  Uiso   1.00
C1023  C     0.80988   0.55999   0.83334   0.00000  Uiso   1.00
C1024  C     0.50004   0.78901   0.69062   0.00000  Uiso   1.00
H1025  H     0.50014   0.82022   0.70871   0.00000  Uiso   1.00
H1026  H     0.50015   0.67978   0.95795   0.00000  Uiso   1.00
H1027  H     0.99986   0.67978   0.70871   0.00000  Uiso   1.00
H1028  H     0.99985   0.82022   0.95795   0.00000  Uiso   1.00
H1029  H     0.74987   0.57022   0.70871   0.00000  Uiso   1.00
H1030  H     0.74985   0.92978   0.95795   0.00000  Uiso   1.00
H1031  H     0.75013   0.92978   0.70871   0.00000  Uiso   1.00
H1032  H     0.75015   0.57022   0.95795   0.00000  Uiso   1.00
N1033  N     0.50000   0.75000   0.95240   0.00000  Uiso   1.00
N1034  N     0.50000   0.75000   0.71427   0.00000  Uiso   1.00
N1035  N     0.75000   0.50000   0.95240   0.00000  Uiso   1.00
N1036  N     0.75000   0.50000   0.71427   0.00000  Uiso   1.00
O1037  O     0.54580   0.70419   0.87154   0.00000  Uiso   1.00
O1038  O     0.70419   0.54581   0.79513   0.00000  Uiso   1.00
O1039  O     0.70419   0.54581   0.87154   0.00000  Uiso   1.00
O1040  O     0.79580   0.95419   0.79513   0.00000  Uiso   1.00
O1041  O     0.70419   0.95419   0.79513   0.00000  Uiso   1.00
O1042  O     0.79580   0.54581   0.87154   0.00000  Uiso   1.00
O1043  O     0.79580   0.54581   0.79513   0.00000  Uiso   1.00
O1044  O     0.70419   0.95419   0.87154   0.00000  Uiso   1.00
O1045  O     0.95419   0.79581   0.79513   0.00000  Uiso   1.00
O1046  O     0.95419   0.79581   0.87154   0.00000  Uiso   1.00
O1047  O     0.54580   0.70419   0.79513   0.00000  Uiso   1.00
O1048  O     0.95419   0.70419   0.79513   0.00000  Uiso   1.00
O1049  O     0.54580   0.79581   0.87154   0.00000  Uiso   1.00
O1050  O     0.54580   0.79581   0.79513   0.00000  Uiso   1.00
O1051  O     0.95419   0.70419   0.87154   0.00000  Uiso   1.00
O1052  O     0.79580   0.95419   0.87154   0.00000  Uiso   1.00
Zn1053 Zn    0.50000   0.75000   0.88437   0.00000  Uiso   1.00
Zn1054 Zn    0.50000   0.75000   0.78229   0.00000  Uiso   1.00
Zn1055 Zn    0.75000   0.50000   0.88437   0.00000  Uiso   1.00
Zn1056 Zn    0.75000   0.50000   0.78229   0.00000  Uiso   1.00
loop_
_geom_bond_atom_site_label_1
_geom_bond_atom_site_label_2
_geom_bond_distance
_geom_bond_site_symmetry_2
_ccdc_geom_bond_type
Br1    C25     1.938   .     S
Br2    C35     1.938   .     S
Br3    C36     1.937   .     S
Br4    C37     1.937   .     S
Br5    C38     1.937   .     S
Br6    C40     1.938   .     S
Br7    C41     1.937   .     S
Br8    C42     1.938   .     S
Br9    C26     1.938   .     S
Br10   C27     1.937   .     S
Br11   C29     1.937   .     S
Br12   C30     1.938   .     S
Br13   C31     1.937   .     S
Br14   C32     1.938   .     S
Br15   C33     1.937   .     S
Br16   C34     1.938   .     S
C17    O69     1.280   .     A
C17    O79     1.281   .     A
C17    C46     1.411   .     S
C18    N65     1.366   .     A
C18    H58     1.081   .     S
C18    C459    1.417   1_455 S
C19    H59     1.081   .     S
C19    C810    1.417   1_554 S
C19    N154    1.366   .     S
C20    H60     1.081   .     S
C20    C496    1.417   .     S
C20    N153    1.366   .     S
C21    H61     1.081   .     S
C21    N68     1.366   .     A
C21    C728    1.417   1_554 S
C22    H62     1.081   .     S
C22    C375    1.417   .     S
C22    N243    1.366   .     S
C23    H63     1.081   .     S
C23    C726    1.417   1_554 S
C23    N244    1.366   .     S
C24    N67     1.366   .     A
C24    H64     1.081   .     S
C24    C373    1.417   .     S
C25    C44     1.403   .     A
C25    C36     1.382   .     A
C26    C43     1.403   .     A
C26    C37     1.382   .     A
C27    C34     1.382   .     A
C27    C43     1.403   .     A
C28    O78     1.280   .     A
C28    C45     1.411   .     S
C28    O77     1.281   .     A
C29    C35     1.382   .     A
C29    C44     1.403   .     A
C30    C41     1.382   .     A
C30    C46     1.403   .     A
C31    C42     1.382   .     A
C31    C45     1.403   .     A
C32    C45     1.403   .     A
C32    C38     1.382   .     A
C33    C46     1.403   .     A
C33    C40     1.382   .     A
C34    C48     1.403   .     A
C35    C47     1.403   .     A
C36    C47     1.403   .     A
C37    C48     1.403   .     A
C38    C51     1.403   .     A
C39    C44     1.411   .     S
C39    O80     1.280   .     A
C39    O83     1.281   .     A
C40    C49     1.403   .     A
C41    C49     1.403   .     A
C42    C51     1.403   .     A
C43    C50     1.411   .     S
C47    C55     1.411   .     S
C48    C54     1.411   .     S
C49    C53     1.411   .     S
C50    O82     1.280   .     A
C50    O81     1.281   .     A
C51    C52     1.411   .     S
C52    O84     1.281   .     A
C52    O72     1.280   .     A
C53    O70     1.280   .     A
C53    O71     1.281   .     A
C54    O73     1.281   .     A
C54    O76     1.280   .     A
C55    O74     1.280   .     A
C55    O75     1.281   .     A
C56    N66     1.366   .     A
C56    H57     1.081   .     S
C56    C812    1.417   1_454 S
N65    Zn85    2.012   .     S
N65    C108    1.366   1_455 S
N66    Zn86    2.012   .     S
N66    C107    1.366   1_455 S
N67    Zn87    2.012   .     S
N67    C198    1.366   1_545 S
N68    Zn88    2.012   .     S
N68    C199    1.366   1_545 S
O69    Zn85    1.989   .     S
O70    Zn88    1.989   .     S
O71    Zn87    1.989   .     S
O72    Zn264   1.989   .     S
O73    Zn264   1.989   .     S
O74    Zn87    1.989   .     S
O75    Zn88    1.989   .     S
O76    Zn263   1.989   .     S
O77    Zn174   1.989   .     S
O78    Zn173   1.989   .     S
O79    Zn86    1.989   .     S
O80    Zn174   1.989   .     S
O81    Zn85    1.989   .     S
O82    Zn86    1.989   .     S
O83    Zn173   1.989   .     S
O84    Zn263   1.989   .     S
Zn85   O171    1.989   1_455 S
Zn85   O166    1.989   1_455 S
Zn86   O168    1.989   1_455 S
Zn86   O165    1.989   1_455 S
Zn87   O252    1.989   1_545 S
Zn87   O260    1.989   1_545 S
Zn88   O249    1.989   1_545 S
Zn88   O248    1.989   1_545 S
Br89   C113    1.938   .     S
Br90   C123    1.938   .     S
Br91   C124    1.937   .     S
Br92   C125    1.937   .     S
Br93   C126    1.937   .     S
Br94   C128    1.938   .     S
Br95   C129    1.937   .     S
Br96   C130    1.938   .     S
Br97   C114    1.938   .     S
Br98   C115    1.937   .     S
Br99   C117    1.937   .     S
Br100  C118    1.938   .     S
Br101  C119    1.937   .     S
Br102  C120    1.938   .     S
Br103  C121    1.937   .     S
Br104  C122    1.938   .     S
C105   O157    1.280   .     A
C105   O167    1.281   .     A
C105   C134    1.411   .     S
C106   N153    1.366   .     A
C106   H146    1.081   .     S
C106   C371    1.417   .     S
C107   H147    1.081   .     S
C107   C722    1.417   1_654 S
C107   N66     1.366   1_655 S
C108   H148    1.081   .     S
C108   C408    1.417   1_655 S
C108   N65     1.366   1_655 S
C109   H149    1.081   .     S
C109   N156    1.366   .     A
C109   C816    1.417   1_554 S
C110   H150    1.081   .     S
C110   C463    1.417   .     S
C110   N331    1.366   .     S
C111   H151    1.081   .     S
C111   C814    1.417   1_554 S
C111   N332    1.366   .     S
C112   N155    1.366   .     A
C112   H152    1.081   .     S
C112   C461    1.417   .     S
C113   C132    1.403   .     A
C113   C124    1.382   .     A
C114   C131    1.403   .     A
C114   C125    1.382   .     A
C115   C122    1.382   .     A
C115   C131    1.403   .     A
C116   O166    1.280   .     A
C116   C133    1.411   .     S
C116   O165    1.281   .     A
C117   C123    1.382   .     A
C117   C132    1.403   .     A
C118   C129    1.382   .     A
C118   C134    1.403   .     A
C119   C130    1.382   .     A
C119   C133    1.403   .     A
C120   C133    1.403   .     A
C120   C126    1.382   .     A
C121   C134    1.403   .     A
C121   C128    1.382   .     A
C122   C136    1.403   .     A
C123   C135    1.403   .     A
C124   C135    1.403   .     A
C125   C136    1.403   .     A
C126   C139    1.403   .     A
C127   C132    1.411   .     S
C127   O168    1.280   .     A
C127   O171    1.281   .     A
C128   C137    1.403   .     A
C129   C137    1.403   .     A
C130   C139    1.403   .     A
C131   C138    1.411   .     S
C135   C143    1.411   .     S
C136   C142    1.411   .     S
C137   C141    1.411   .     S
C138   O170    1.280   .     A
C138   O169    1.281   .     A
C139   C140    1.411   .     S
C140   O172    1.281   .     A
C140   O160    1.280   .     A
C141   O158    1.280   .     A
C141   O159    1.281   .     A
C142   O161    1.281   .     A
C142   O164    1.280   .     A
C143   O162    1.280   .     A
C143   O163    1.281   .     A
C144   N154    1.366   .     A
C144   H145    1.081   .     S
C144   C724    1.417   1_554 S
N153   Zn173   2.012   .     S
N154   Zn174   2.012   .     S
N155   Zn175   2.012   .     S
N155   C286    1.366   1_545 S
N156   Zn176   2.012   .     S
N156   C287    1.366   1_545 S
O157   Zn173   1.989   .     S
O158   Zn176   1.989   .     S
O159   Zn175   1.989   .     S
O160   Zn352   1.989   .     S
O161   Zn352   1.989   .     S
O162   Zn175   1.989   .     S
O163   Zn176   1.989   .     S
O164   Zn351   1.989   .     S
O165   Zn86    1.989   1_655 S
O166   Zn85    1.989   1_655 S
O167   Zn174   1.989   .     S
O168   Zn86    1.989   1_655 S
O169   Zn173   1.989   .     S
O170   Zn174   1.989   .     S
O171   Zn85    1.989   1_655 S
O172   Zn351   1.989   .     S
Zn175  O340    1.989   1_545 S
Zn175  O348    1.989   1_545 S
Zn176  O337    1.989   1_545 S
Zn176  O336    1.989   1_545 S
Br177  C201    1.938   .     S
Br178  C211    1.938   .     S
Br179  C212    1.937   .     S
Br180  C213    1.937   .     S
Br181  C214    1.937   .     S
Br182  C216    1.938   .     S
Br183  C217    1.937   .     S
Br184  C218    1.938   .     S
Br185  C202    1.938   .     S
Br186  C203    1.937   .     S
Br187  C205    1.937   .     S
Br188  C206    1.938   .     S
Br189  C207    1.937   .     S
Br190  C208    1.938   .     S
Br191  C209    1.937   .     S
Br192  C210    1.938   .     S
C193   O245    1.280   .     A
C193   O255    1.281   .     A
C193   C222    1.411   .     S
C194   N241    1.366   .     A
C194   H234    1.081   .     S
C194   C635    1.417   1_455 S
C195   H235    1.081   .     S
C195   C986    1.417   1_554 S
C195   N330    1.366   .     S
C196   H236    1.081   .     S
C196   C672    1.417   .     S
C196   N329    1.366   .     S
C197   H237    1.081   .     S
C197   N244    1.366   .     A
C197   C904    1.417   1_554 S
C198   H238    1.081   .     S
C198   C551    1.417   .     S
C198   N67     1.366   1_565 S
C199   H239    1.081   .     S
C199   C902    1.417   1_554 S
C199   N68     1.366   1_565 S
C200   N243    1.366   .     A
C200   H240    1.081   .     S
C200   C549    1.417   .     S
C201   C220    1.403   .     A
C201   C212    1.382   .     A
C202   C219    1.403   .     A
C202   C213    1.382   .     A
C203   C210    1.382   .     A
C203   C219    1.403   .     A
C204   O254    1.280   .     A
C204   C221    1.411   .     S
C204   O253    1.281   .     A
C205   C211    1.382   .     A
C205   C220    1.403   .     A
C206   C217    1.382   .     A
C206   C222    1.403   .     A
C207   C218    1.382   .     A
C207   C221    1.403   .     A
C208   C221    1.403   .     A
C208   C214    1.382   .     A
C209   C222    1.403   .     A
C209   C216    1.382   .     A
C210   C224    1.403   .     A
C211   C223    1.403   .     A
C212   C223    1.403   .     A
C213   C224    1.403   .     A
C214   C227    1.403   .     A
C215   C220    1.411   .     S
C215   O256    1.280   .     A
C215   O259    1.281   .     A
C216   C225    1.403   .     A
C217   C225    1.403   .     A
C218   C227    1.403   .     A
C219   C226    1.411   .     S
C223   C231    1.411   .     S
C224   C230    1.411   .     S
C225   C229    1.411   .     S
C226   O258    1.280   .     A
C226   O257    1.281   .     A
C227   C228    1.411   .     S
C228   O260    1.281   .     A
C228   O248    1.280   .     A
C229   O246    1.280   .     A
C229   O247    1.281   .     A
C230   O249    1.281   .     A
C230   O252    1.280   .     A
C231   O250    1.280   .     A
C231   O251    1.281   .     A
C232   N242    1.366   .     A
C232   H233    1.081   .     S
C232   C988    1.417   1_454 S
N241   Zn261   2.012   .     S
N241   C284    1.366   1_455 S
N242   Zn262   2.012   .     S
N242   C283    1.366   1_455 S
N243   Zn263   2.012   .     S
N244   Zn264   2.012   .     S
O245   Zn261   1.989   .     S
O246   Zn264   1.989   .     S
O247   Zn263   1.989   .     S
O248   Zn88    1.989   1_565 S
O249   Zn88    1.989   1_565 S
O250   Zn263   1.989   .     S
O251   Zn264   1.989   .     S
O252   Zn87    1.989   1_565 S
O253   Zn350   1.989   .     S
O254   Zn349   1.989   .     S
O255   Zn262   1.989   .     S
O256   Zn350   1.989   .     S
O257   Zn261   1.989   .     S
O258   Zn262   1.989   .     S
O259   Zn349   1.989   .     S
O260   Zn87    1.989   1_565 S
Zn261  O347    1.989   1_455 S
Zn261  O342    1.989   1_455 S
Zn262  O344    1.989   1_455 S
Zn262  O341    1.989   1_455 S
Br265  C289    1.938   .     S
Br266  C299    1.938   .     S
Br267  C300    1.937   .     S
Br268  C301    1.937   .     S
Br269  C302    1.937   .     S
Br270  C304    1.938   .     S
Br271  C305    1.937   .     S
Br272  C306    1.938   .     S
Br273  C290    1.938   .     S
Br274  C291    1.937   .     S
Br275  C293    1.937   .     S
Br276  C294    1.938   .     S
Br277  C295    1.937   .     S
Br278  C296    1.938   .     S
Br279  C297    1.937   .     S
Br280  C298    1.938   .     S
C281   O333    1.280   .     A
C281   O343    1.281   .     A
C281   C310    1.411   .     S
C282   N329    1.366   .     A
C282   H322    1.081   .     S
C282   C547    1.417   .     S
C283   H323    1.081   .     S
C283   C898    1.417   1_654 S
C283   N242    1.366   1_655 S
C284   H324    1.081   .     S
C284   C584    1.417   1_655 S
C284   N241    1.366   1_655 S
C285   H325    1.081   .     S
C285   N332    1.366   .     A
C285   C992    1.417   1_554 S
C286   H326    1.081   .     S
C286   C639    1.417   .     S
C286   N155    1.366   1_565 S
C287   H327    1.081   .     S
C287   C990    1.417   1_554 S
C287   N156    1.366   1_565 S
C288   N331    1.366   .     A
C288   H328    1.081   .     S
C288   C637    1.417   .     S
C289   C308    1.403   .     A
C289   C300    1.382   .     A
C290   C307    1.403   .     A
C290   C301    1.382   .     A
C291   C298    1.382   .     A
C291   C307    1.403   .     A
C292   O342    1.280   .     A
C292   C309    1.411   .     S
C292   O341    1.281   .     A
C293   C299    1.382   .     A
C293   C308    1.403   .     A
C294   C305    1.382   .     A
C294   C310    1.403   .     A
C295   C306    1.382   .     A
C295   C309    1.403   .     A
C296   C309    1.403   .     A
C296   C302    1.382   .     A
C297   C310    1.403   .     A
C297   C304    1.382   .     A
C298   C312    1.403   .     A
C299   C311    1.403   .     A
C300   C311    1.403   .     A
C301   C312    1.403   .     A
C302   C315    1.403   .     A
C303   C308    1.411   .     S
C303   O344    1.280   .     A
C303   O347    1.281   .     A
C304   C313    1.403   .     A
C305   C313    1.403   .     A
C306   C315    1.403   .     A
C307   C314    1.411   .     S
C311   C319    1.411   .     S
C312   C318    1.411   .     S
C313   C317    1.411   .     S
C314   O346    1.280   .     A
C314   O345    1.281   .     A
C315   C316    1.411   .     S
C316   O348    1.281   .     A
C316   O336    1.280   .     A
C317   O334    1.280   .     A
C317   O335    1.281   .     A
C318   O337    1.281   .     A
C318   O340    1.280   .     A
C319   O338    1.280   .     A
C319   O339    1.281   .     A
C320   N330    1.366   .     A
C320   H321    1.081   .     S
C320   C900    1.417   1_554 S
N329   Zn349   2.012   .     S
N330   Zn350   2.012   .     S
N331   Zn351   2.012   .     S
N332   Zn352   2.012   .     S
O333   Zn349   1.989   .     S
O334   Zn352   1.989   .     S
O335   Zn351   1.989   .     S
O336   Zn176   1.989   1_565 S
O337   Zn176   1.989   1_565 S
O338   Zn351   1.989   .     S
O339   Zn352   1.989   .     S
O340   Zn175   1.989   1_565 S
O341   Zn262   1.989   1_655 S
O342   Zn261   1.989   1_655 S
O343   Zn350   1.989   .     S
O344   Zn262   1.989   1_655 S
O345   Zn349   1.989   .     S
O346   Zn350   1.989   .     S
O347   Zn261   1.989   1_655 S
O348   Zn175   1.989   1_565 S
Br353  C377    1.938   .     S
Br354  C387    1.938   .     S
Br355  C388    1.937   .     S
Br356  C389    1.937   .     S
Br357  C390    1.937   .     S
Br358  C392    1.938   .     S
Br359  C393    1.937   .     S
Br360  C394    1.938   .     S
Br361  C378    1.938   .     S
Br362  C379    1.937   .     S
Br363  C381    1.937   .     S
Br364  C382    1.938   .     S
Br365  C383    1.937   .     S
Br366  C384    1.938   .     S
Br367  C385    1.937   .     S
Br368  C386    1.938   .     S
C369   O421    1.280   .     A
C369   O431    1.281   .     A
C369   C398    1.411   .     S
C370   N417    1.366   .     A
C370   H410    1.081   .     S
C370   C811    1.417   1_455 S
C371   H411    1.081   .     S
C371   N506    1.366   .     S
C372   H412    1.081   .     S
C372   C848    1.417   .     S
C372   N505    1.366   .     S
C373   H413    1.081   .     S
C373   N420    1.366   .     A
C374   H414    1.081   .     S
C374   C727    1.417   .     S
C374   N595    1.366   .     S
C375   H415    1.081   .     S
C375   N596    1.366   .     S
C376   N419    1.366   .     A
C376   H416    1.081   .     S
C376   C725    1.417   .     S
C377   C396    1.403   .     A
C377   C388    1.382   .     A
C378   C395    1.403   .     A
C378   C389    1.382   .     A
C379   C386    1.382   .     A
C379   C395    1.403   .     A
C380   O430    1.280   .     A
C380   C397    1.411   .     S
C380   O429    1.281   .     A
C381   C387    1.382   .     A
C381   C396    1.403   .     A
C382   C393    1.382   .     A
C382   C398    1.403   .     A
C383   C394    1.382   .     A
C383   C397    1.403   .     A
C384   C397    1.403   .     A
C384   C390    1.382   .     A
C385   C398    1.403   .     A
C385   C392    1.382   .     A
C386   C400    1.403   .     A
C387   C399    1.403   .     A
C388   C399    1.403   .     A
C389   C400    1.403   .     A
C390   C403    1.403   .     A
C391   C396    1.411   .     S
C391   O432    1.280   .     A
C391   O435    1.281   .     A
C392   C401    1.403   .     A
C393   C401    1.403   .     A
C394   C403    1.403   .     A
C395   C402    1.411   .     S
C399   C407    1.411   .     S
C400   C406    1.411   .     S
C401   C405    1.411   .     S
C402   O434    1.280   .     A
C402   O433    1.281   .     A
C403   C404    1.411   .     S
C404   O436    1.281   .     A
C404   O424    1.280   .     A
C405   O422    1.280   .     A
C405   O423    1.281   .     A
C406   O425    1.281   .     A
C406   O428    1.280   .     A
C407   O426    1.280   .     A
C407   O427    1.281   .     A
C408   N418    1.366   .     A
C408   H409    1.081   .     S
C408   C108    1.417   1_455 S
N417   Zn437   2.012   .     S
N417   C460    1.366   1_455 S
N418   Zn438   2.012   .     S
N418   C459    1.366   1_455 S
N419   Zn439   2.012   .     S
N419   C550    1.366   1_545 S
N420   Zn440   2.012   .     S
N420   C551    1.366   1_545 S
O421   Zn437   1.989   .     S
O422   Zn440   1.989   .     S
O423   Zn439   1.989   .     S
O424   Zn616   1.989   .     S
O425   Zn616   1.989   .     S
O426   Zn439   1.989   .     S
O427   Zn440   1.989   .     S
O428   Zn615   1.989   .     S
O429   Zn526   1.989   .     S
O430   Zn525   1.989   .     S
O431   Zn438   1.989   .     S
O432   Zn526   1.989   .     S
O433   Zn437   1.989   .     S
O434   Zn438   1.989   .     S
O435   Zn525   1.989   .     S
O436   Zn615   1.989   .     S
Zn437  O523    1.989   1_455 S
Zn437  O518    1.989   1_455 S
Zn438  O520    1.989   1_455 S
Zn438  O517    1.989   1_455 S
Zn439  O604    1.989   1_545 S
Zn439  O612    1.989   1_545 S
Zn440  O601    1.989   1_545 S
Zn440  O600    1.989   1_545 S
Br441  C465    1.938   .     S
Br442  C475    1.938   .     S
Br443  C476    1.937   .     S
Br444  C477    1.937   .     S
Br445  C478    1.937   .     S
Br446  C480    1.938   .     S
Br447  C481    1.937   .     S
Br448  C482    1.938   .     S
Br449  C466    1.938   .     S
Br450  C467    1.937   .     S
Br451  C469    1.937   .     S
Br452  C470    1.938   .     S
Br453  C471    1.937   .     S
Br454  C472    1.938   .     S
Br455  C473    1.937   .     S
Br456  C474    1.938   .     S
C457   O509    1.280   .     A
C457   O519    1.281   .     A
C457   C486    1.411   .     S
C458   N505    1.366   .     A
C458   H498    1.081   .     S
C458   C723    1.417   .     S
C459   H499    1.081   .     S
C459   C18     1.417   1_655 S
C459   N418    1.366   1_655 S
C460   H500    1.081   .     S
C460   C760    1.417   1_655 S
C460   N417    1.366   1_655 S
C461   H501    1.081   .     S
C461   N508    1.366   .     A
C462   H502    1.081   .     S
C462   C815    1.417   .     S
C462   N683    1.366   .     S
C463   H503    1.081   .     S
C463   N684    1.366   .     S
C464   N507    1.366   .     A
C464   H504    1.081   .     S
C464   C813    1.417   .     S
C465   C484    1.403   .     A
C465   C476    1.382   .     A
C466   C483    1.403   .     A
C466   C477    1.382   .     A
C467   C474    1.382   .     A
C467   C483    1.403   .     A
C468   O518    1.280   .     A
C468   C485    1.411   .     S
C468   O517    1.281   .     A
C469   C475    1.382   .     A
C469   C484    1.403   .     A
C470   C481    1.382   .     A
C470   C486    1.403   .     A
C471   C482    1.382   .     A
C471   C485    1.403   .     A
C472   C485    1.403   .     A
C472   C478    1.382   .     A
C473   C486    1.403   .     A
C473   C480    1.382   .     A
C474   C488    1.403   .     A
C475   C487    1.403   .     A
C476   C487    1.403   .     A
C477   C488    1.403   .     A
C478   C491    1.403   .     A
C479   C484    1.411   .     S
C479   O520    1.280   .     A
C479   O523    1.281   .     A
C480   C489    1.403   .     A
C481   C489    1.403   .     A
C482   C491    1.403   .     A
C483   C490    1.411   .     S
C487   C495    1.411   .     S
C488   C494    1.411   .     S
C489   C493    1.411   .     S
C490   O522    1.280   .     A
C490   O521    1.281   .     A
C491   C492    1.411   .     S
C492   O524    1.281   .     A
C492   O512    1.280   .     A
C493   O510    1.280   .     A
C493   O511    1.281   .     A
C494   O513    1.281   .     A
C494   O516    1.280   .     A
C495   O514    1.280   .     A
C495   O515    1.281   .     A
C496   N506    1.366   .     A
C496   H497    1.081   .     S
N505   Zn525   2.012   .     S
N506   Zn526   2.012   .     S
N507   Zn527   2.012   .     S
N507   C638    1.366   1_545 S
N508   Zn528   2.012   .     S
N508   C639    1.366   1_545 S
O509   Zn525   1.989   .     S
O510   Zn528   1.989   .     S
O511   Zn527   1.989   .     S
O512   Zn704   1.989   .     S
O513   Zn704   1.989   .     S
O514   Zn527   1.989   .     S
O515   Zn528   1.989   .     S
O516   Zn703   1.989   .     S
O517   Zn438   1.989   1_655 S
O518   Zn437   1.989   1_655 S
O519   Zn526   1.989   .     S
O520   Zn438   1.989   1_655 S
O521   Zn525   1.989   .     S
O522   Zn526   1.989   .     S
O523   Zn437   1.989   1_655 S
O524   Zn703   1.989   .     S
Zn527  O692    1.989   1_545 S
Zn527  O700    1.989   1_545 S
Zn528  O689    1.989   1_545 S
Zn528  O688    1.989   1_545 S
Br529  C553    1.938   .     S
Br530  C563    1.938   .     S
Br531  C564    1.937   .     S
Br532  C565    1.937   .     S
Br533  C566    1.937   .     S
Br534  C568    1.938   .     S
Br535  C569    1.937   .     S
Br536  C570    1.938   .     S
Br537  C554    1.938   .     S
Br538  C555    1.937   .     S
Br539  C557    1.937   .     S
Br540  C558    1.938   .     S
Br541  C559    1.937   .     S
Br542  C560    1.938   .     S
Br543  C561    1.937   .     S
Br544  C562    1.938   .     S
C545   O597    1.280   .     A
C545   O607    1.281   .     A
C545   C574    1.411   .     S
C546   N593    1.366   .     A
C546   H586    1.081   .     S
C546   C987    1.417   1_455 S
C547   H587    1.081   .     S
C547   N682    1.366   .     S
C548   H588    1.081   .     S
C548   C1024   1.417   .     S
C548   N681    1.366   .     S
C549   H589    1.081   .     S
C549   N596    1.366   .     A
C550   H590    1.081   .     S
C550   C903    1.417   .     S
C550   N419    1.366   1_565 S
C551   H591    1.081   .     S
C551   N420    1.366   1_565 S
C552   N595    1.366   .     A
C552   H592    1.081   .     S
C552   C901    1.417   .     S
C553   C572    1.403   .     A
C553   C564    1.382   .     A
C554   C571    1.403   .     A
C554   C565    1.382   .     A
C555   C562    1.382   .     A
C555   C571    1.403   .     A
C556   O606    1.280   .     A
C556   C573    1.411   .     S
C556   O605    1.281   .     A
C557   C563    1.382   .     A
C557   C572    1.403   .     A
C558   C569    1.382   .     A
C558   C574    1.403   .     A
C559   C570    1.382   .     A
C559   C573    1.403   .     A
C560   C573    1.403   .     A
C560   C566    1.382   .     A
C561   C574    1.403   .     A
C561   C568    1.382   .     A
C562   C576    1.403   .     A
C563   C575    1.403   .     A
C564   C575    1.403   .     A
C565   C576    1.403   .     A
C566   C579    1.403   .     A
C567   C572    1.411   .     S
C567   O608    1.280   .     A
C567   O611    1.281   .     A
C568   C577    1.403   .     A
C569   C577    1.403   .     A
C570   C579    1.403   .     A
C571   C578    1.411   .     S
C575   C583    1.411   .     S
C576   C582    1.411   .     S
C577   C581    1.411   .     S
C578   O610    1.280   .     A
C578   O609    1.281   .     A
C579   C580    1.411   .     S
C580   O612    1.281   .     A
C580   O600    1.280   .     A
C581   O598    1.280   .     A
C581   O599    1.281   .     A
C582   O601    1.281   .     A
C582   O604    1.280   .     A
C583   O602    1.280   .     A
C583   O603    1.281   .     A
C584   N594    1.366   .     A
C584   H585    1.081   .     S
C584   C284    1.417   1_455 S
N593   Zn613   2.012   .     S
N593   C636    1.366   1_455 S
N594   Zn614   2.012   .     S
N594   C635    1.366   1_455 S
N595   Zn615   2.012   .     S
N596   Zn616   2.012   .     S
O597   Zn613   1.989   .     S
O598   Zn616   1.989   .     S
O599   Zn615   1.989   .     S
O600   Zn440   1.989   1_565 S
O601   Zn440   1.989   1_565 S
O602   Zn615   1.989   .     S
O603   Zn616   1.989   .     S
O604   Zn439   1.989   1_565 S
O605   Zn702   1.989   .     S
O606   Zn701   1.989   .     S
O607   Zn614   1.989   .     S
O608   Zn702   1.989   .     S
O609   Zn613   1.989   .     S
O610   Zn614   1.989   .     S
O611   Zn701   1.989   .     S
O612   Zn439   1.989   1_565 S
Zn613  O699    1.989   1_455 S
Zn613  O694    1.989   1_455 S
Zn614  O696    1.989   1_455 S
Zn614  O693    1.989   1_455 S
Br617  C641    1.938   .     S
Br618  C651    1.938   .     S
Br619  C652    1.937   .     S
Br620  C653    1.937   .     S
Br621  C654    1.937   .     S
Br622  C656    1.938   .     S
Br623  C657    1.937   .     S
Br624  C658    1.938   .     S
Br625  C642    1.938   .     S
Br626  C643    1.937   .     S
Br627  C645    1.937   .     S
Br628  C646    1.938   .     S
Br629  C647    1.937   .     S
Br630  C648    1.938   .     S
Br631  C649    1.937   .     S
Br632  C650    1.938   .     S
C633   O685    1.280   .     A
C633   O695    1.281   .     A
C633   C662    1.411   .     S
C634   N681    1.366   .     A
C634   H674    1.081   .     S
C634   C899    1.417   .     S
C635   H675    1.081   .     S
C635   C194    1.417   1_655 S
C635   N594    1.366   1_655 S
C636   H676    1.081   .     S
C636   C936    1.417   1_655 S
C636   N593    1.366   1_655 S
C637   H677    1.081   .     S
C637   N684    1.366   .     A
C638   H678    1.081   .     S
C638   C991    1.417   .     S
C638   N507    1.366   1_565 S
C639   H679    1.081   .     S
C639   N508    1.366   1_565 S
C640   N683    1.366   .     A
C640   H680    1.081   .     S
C640   C989    1.417   .     S
C641   C660    1.403   .     A
C641   C652    1.382   .     A
C642   C659    1.403   .     A
C642   C653    1.382   .     A
C643   C650    1.382   .     A
C643   C659    1.403   .     A
C644   O694    1.280   .     A
C644   C661    1.411   .     S
C644   O693    1.281   .     A
C645   C651    1.382   .     A
C645   C660    1.403   .     A
C646   C657    1.382   .     A
C646   C662    1.403   .     A
C647   C658    1.382   .     A
C647   C661    1.403   .     A
C648   C661    1.403   .     A
C648   C654    1.382   .     A
C649   C662    1.403   .     A
C649   C656    1.382   .     A
C650   C664    1.403   .     A
C651   C663    1.403   .     A
C652   C663    1.403   .     A
C653   C664    1.403   .     A
C654   C667    1.403   .     A
C655   C660    1.411   .     S
C655   O696    1.280   .     A
C655   O699    1.281   .     A
C656   C665    1.403   .     A
C657   C665    1.403   .     A
C658   C667    1.403   .     A
C659   C666    1.411   .     S
C663   C671    1.411   .     S
C664   C670    1.411   .     S
C665   C669    1.411   .     S
C666   O698    1.280   .     A
C666   O697    1.281   .     A
C667   C668    1.411   .     S
C668   O700    1.281   .     A
C668   O688    1.280   .     A
C669   O686    1.280   .     A
C669   O687    1.281   .     A
C670   O689    1.281   .     A
C670   O692    1.280   .     A
C671   O690    1.280   .     A
C671   O691    1.281   .     A
C672   N682    1.366   .     A
C672   H673    1.081   .     S
N681   Zn701   2.012   .     S
N682   Zn702   2.012   .     S
N683   Zn703   2.012   .     S
N684   Zn704   2.012   .     S
O685   Zn701   1.989   .     S
O686   Zn704   1.989   .     S
O687   Zn703   1.989   .     S
O688   Zn528   1.989   1_565 S
O689   Zn528   1.989   1_565 S
O690   Zn703   1.989   .     S
O691   Zn704   1.989   .     S
O692   Zn527   1.989   1_565 S
O693   Zn614   1.989   1_655 S
O694   Zn613   1.989   1_655 S
O695   Zn702   1.989   .     S
O696   Zn614   1.989   1_655 S
O697   Zn701   1.989   .     S
O698   Zn702   1.989   .     S
O699   Zn613   1.989   1_655 S
O700   Zn527   1.989   1_565 S
Br705  C729    1.938   .     S
Br706  C739    1.938   .     S
Br707  C740    1.937   .     S
Br708  C741    1.937   .     S
Br709  C742    1.937   .     S
Br710  C744    1.938   .     S
Br711  C745    1.937   .     S
Br712  C746    1.938   .     S
Br713  C730    1.938   .     S
Br714  C731    1.937   .     S
Br715  C733    1.937   .     S
Br716  C734    1.938   .     S
Br717  C735    1.937   .     S
Br718  C736    1.938   .     S
Br719  C737    1.937   .     S
Br720  C738    1.938   .     S
C721   O773    1.280   .     A
C721   O783    1.281   .     A
C721   C750    1.411   .     S
C722   N769    1.366   .     A
C722   H762    1.081   .     S
C722   C107    1.417   1_456 S
C723   H763    1.081   .     S
C723   N858    1.366   .     S
C724   H764    1.081   .     S
C724   C144    1.417   1_556 S
C724   N857    1.366   .     S
C725   H765    1.081   .     S
C725   N772    1.366   .     A
C726   H766    1.081   .     S
C726   C23     1.417   1_556 S
C726   N947    1.366   .     S
C727   H767    1.081   .     S
C727   N948    1.366   .     S
C728   N771    1.366   .     A
C728   H768    1.081   .     S
C728   C21     1.417   1_556 S
C729   C748    1.403   .     A
C729   C740    1.382   .     A
C730   C747    1.403   .     A
C730   C741    1.382   .     A
C731   C738    1.382   .     A
C731   C747    1.403   .     A
C732   O782    1.280   .     A
C732   C749    1.411   .     S
C732   O781    1.281   .     A
C733   C739    1.382   .     A
C733   C748    1.403   .     A
C734   C745    1.382   .     A
C734   C750    1.403   .     A
C735   C746    1.382   .     A
C735   C749    1.403   .     A
C736   C749    1.403   .     A
C736   C742    1.382   .     A
C737   C750    1.403   .     A
C737   C744    1.382   .     A
C738   C752    1.403   .     A
C739   C751    1.403   .     A
C740   C751    1.403   .     A
C741   C752    1.403   .     A
C742   C755    1.403   .     A
C743   C748    1.411   .     S
C743   O784    1.280   .     A
C743   O787    1.281   .     A
C744   C753    1.403   .     A
C745   C753    1.403   .     A
C746   C755    1.403   .     A
C747   C754    1.411   .     S
C751   C759    1.411   .     S
C752   C758    1.411   .     S
C753   C757    1.411   .     S
C754   O786    1.280   .     A
C754   O785    1.281   .     A
C755   C756    1.411   .     S
C756   O788    1.281   .     A
C756   O776    1.280   .     A
C757   O774    1.280   .     A
C757   O775    1.281   .     A
C758   O777    1.281   .     A
C758   O780    1.280   .     A
C759   O778    1.280   .     A
C759   O779    1.281   .     A
C760   N770    1.366   .     A
C760   H761    1.081   .     S
C760   C460    1.417   1_455 S
N769   Zn789   2.012   .     S
N769   C812    1.366   1_455 S
N770   Zn790   2.012   .     S
N770   C811    1.366   1_455 S
N771   Zn791   2.012   .     S
N771   C902    1.366   1_545 S
N772   Zn792   2.012   .     S
N772   C903    1.366   1_545 S
O773   Zn789   1.989   .     S
O774   Zn792   1.989   .     S
O775   Zn791   1.989   .     S
O776   Zn968   1.989   .     S
O777   Zn968   1.989   .     S
O778   Zn791   1.989   .     S
O779   Zn792   1.989   .     S
O780   Zn967   1.989   .     S
O781   Zn878   1.989   .     S
O782   Zn877   1.989   .     S
O783   Zn790   1.989   .     S
O784   Zn878   1.989   .     S
O785   Zn789   1.989   .     S
O786   Zn790   1.989   .     S
O787   Zn877   1.989   .     S
O788   Zn967   1.989   .     S
Zn789  O875    1.989   1_455 S
Zn789  O870    1.989   1_455 S
Zn790  O872    1.989   1_455 S
Zn790  O869    1.989   1_455 S
Zn791  O956    1.989   1_545 S
Zn791  O964    1.989   1_545 S
Zn792  O953    1.989   1_545 S
Zn792  O952    1.989   1_545 S
Br793  C817    1.938   .     S
Br794  C827    1.938   .     S
Br795  C828    1.937   .     S
Br796  C829    1.937   .     S
Br797  C830    1.937   .     S
Br798  C832    1.938   .     S
Br799  C833    1.937   .     S
Br800  C834    1.938   .     S
Br801  C818    1.938   .     S
Br802  C819    1.937   .     S
Br803  C821    1.937   .     S
Br804  C822    1.938   .     S
Br805  C823    1.937   .     S
Br806  C824    1.938   .     S
Br807  C825    1.937   .     S
Br808  C826    1.938   .     S
C809   O861    1.280   .     A
C809   O871    1.281   .     A
C809   C838    1.411   .     S
C810   N857    1.366   .     A
C810   H850    1.081   .     S
C810   C19     1.417   1_556 S
C811   H851    1.081   .     S
C811   C370    1.417   1_655 S
C811   N770    1.366   1_655 S
C812   H852    1.081   .     S
C812   C56     1.417   1_656 S
C812   N769    1.366   1_655 S
C813   H853    1.081   .     S
C813   N860    1.366   .     A
C814   H854    1.081   .     S
C814   C111    1.417   1_556 S
C814   N1035   1.366   .     S
C815   H855    1.081   .     S
C815   N1036   1.366   .     S
C816   N859    1.366   .     A
C816   H856    1.081   .     S
C816   C109    1.417   1_556 S
C817   C836    1.403   .     A
C817   C828    1.382   .     A
C818   C835    1.403   .     A
C818   C829    1.382   .     A
C819   C826    1.382   .     A
C819   C835    1.403   .     A
C820   O870    1.280   .     A
C820   C837    1.411   .     S
C820   O869    1.281   .     A
C821   C827    1.382   .     A
C821   C836    1.403   .     A
C822   C833    1.382   .     A
C822   C838    1.403   .     A
C823   C834    1.382   .     A
C823   C837    1.403   .     A
C824   C837    1.403   .     A
C824   C830    1.382   .     A
C825   C838    1.403   .     A
C825   C832    1.382   .     A
C826   C840    1.403   .     A
C827   C839    1.403   .     A
C828   C839    1.403   .     A
C829   C840    1.403   .     A
C830   C843    1.403   .     A
C831   C836    1.411   .     S
C831   O872    1.280   .     A
C831   O875    1.281   .     A
C832   C841    1.403   .     A
C833   C841    1.403   .     A
C834   C843    1.403   .     A
C835   C842    1.411   .     S
C839   C847    1.411   .     S
C840   C846    1.411   .     S
C841   C845    1.411   .     S
C842   O874    1.280   .     A
C842   O873    1.281   .     A
C843   C844    1.411   .     S
C844   O876    1.281   .     A
C844   O864    1.280   .     A
C845   O862    1.280   .     A
C845   O863    1.281   .     A
C846   O865    1.281   .     A
C846   O868    1.280   .     A
C847   O866    1.280   .     A
C847   O867    1.281   .     A
C848   N858    1.366   .     A
C848   H849    1.081   .     S
N857   Zn877   2.012   .     S
N858   Zn878   2.012   .     S
N859   Zn879   2.012   .     S
N859   C990    1.366   1_545 S
N860   Zn880   2.012   .     S
N860   C991    1.366   1_545 S
O861   Zn877   1.989   .     S
O862   Zn880   1.989   .     S
O863   Zn879   1.989   .     S
O864   Zn1056  1.989   .     S
O865   Zn1056  1.989   .     S
O866   Zn879   1.989   .     S
O867   Zn880   1.989   .     S
O868   Zn1055  1.989   .     S
O869   Zn790   1.989   1_655 S
O870   Zn789   1.989   1_655 S
O871   Zn878   1.989   .     S
O872   Zn790   1.989   1_655 S
O873   Zn877   1.989   .     S
O874   Zn878   1.989   .     S
O875   Zn789   1.989   1_655 S
O876   Zn1055  1.989   .     S
Zn879  O1044   1.989   1_545 S
Zn879  O1052   1.989   1_545 S
Zn880  O1041   1.989   1_545 S
Zn880  O1040   1.989   1_545 S
Br881  C905    1.938   .     S
Br882  C915    1.938   .     S
Br883  C916    1.937   .     S
Br884  C917    1.937   .     S
Br885  C918    1.937   .     S
Br886  C920    1.938   .     S
Br887  C921    1.937   .     S
Br888  C922    1.938   .     S
Br889  C906    1.938   .     S
Br890  C907    1.937   .     S
Br891  C909    1.937   .     S
Br892  C910    1.938   .     S
Br893  C911    1.937   .     S
Br894  C912    1.938   .     S
Br895  C913    1.937   .     S
Br896  C914    1.938   .     S
C897   O949    1.280   .     A
C897   O959    1.281   .     A
C897   C926    1.411   .     S
C898   N945    1.366   .     A
C898   H938    1.081   .     S
C898   C283    1.417   1_456 S
C899   H939    1.081   .     S
C899   N1034   1.366   .     S
C900   H940    1.081   .     S
C900   C320    1.417   1_556 S
C900   N1033   1.366   .     S
C901   H941    1.081   .     S
C901   N948    1.366   .     A
C902   H942    1.081   .     S
C902   C199    1.417   1_556 S
C902   N771    1.366   1_565 S
C903   H943    1.081   .     S
C903   N772    1.366   1_565 S
C904   N947    1.366   .     A
C904   H944    1.081   .     S
C904   C197    1.417   1_556 S
C905   C924    1.403   .     A
C905   C916    1.382   .     A
C906   C923    1.403   .     A
C906   C917    1.382   .     A
C907   C914    1.382   .     A
C907   C923    1.403   .     A
C908   O958    1.280   .     A
C908   C925    1.411   .     S
C908   O957    1.281   .     A
C909   C915    1.382   .     A
C909   C924    1.403   .     A
C910   C921    1.382   .     A
C910   C926    1.403   .     A
C911   C922    1.382   .     A
C911   C925    1.403   .     A
C912   C925    1.403   .     A
C912   C918    1.382   .     A
C913   C926    1.403   .     A
C913   C920    1.382   .     A
C914   C928    1.403   .     A
C915   C927    1.403   .     A
C916   C927    1.403   .     A
C917   C928    1.403   .     A
C918   C931    1.403   .     A
C919   C924    1.411   .     S
C919   O960    1.280   .     A
C919   O963    1.281   .     A
C920   C929    1.403   .     A
C921   C929    1.403   .     A
C922   C931    1.403   .     A
C923   C930    1.411   .     S
C927   C935    1.411   .     S
C928   C934    1.411   .     S
C929   C933    1.411   .     S
C930   O962    1.280   .     A
C930   O961    1.281   .     A
C931   C932    1.411   .     S
C932   O964    1.281   .     A
C932   O952    1.280   .     A
C933   O950    1.280   .     A
C933   O951    1.281   .     A
C934   O953    1.281   .     A
C934   O956    1.280   .     A
C935   O954    1.280   .     A
C935   O955    1.281   .     A
C936   N946    1.366   .     A
C936   H937    1.081   .     S
C936   C636    1.417   1_455 S
N945   Zn965   2.012   .     S
N945   C988    1.366   1_455 S
N946   Zn966   2.012   .     S
N946   C987    1.366   1_455 S
N947   Zn967   2.012   .     S
N948   Zn968   2.012   .     S
O949   Zn965   1.989   .     S
O950   Zn968   1.989   .     S
O951   Zn967   1.989   .     S
O952   Zn792   1.989   1_565 S
O953   Zn792   1.989   1_565 S
O954   Zn967   1.989   .     S
O955   Zn968   1.989   .     S
O956   Zn791   1.989   1_565 S
O957   Zn1054  1.989   .     S
O958   Zn1053  1.989   .     S
O959   Zn966   1.989   .     S
O960   Zn1054  1.989   .     S
O961   Zn965   1.989   .     S
O962   Zn966   1.989   .     S
O963   Zn1053  1.989   .     S
O964   Zn791   1.989   1_565 S
Zn965  O1051   1.989   1_455 S
Zn965  O1046   1.989   1_455 S
Zn966  O1048   1.989   1_455 S
Zn966  O1045   1.989   1_455 S
Br969  C993    1.938   .     S
Br970  C1003   1.938   .     S
Br971  C1004   1.937   .     S
Br972  C1005   1.937   .     S
Br973  C1006   1.937   .     S
Br974  C1008   1.938   .     S
Br975  C1009   1.937   .     S
Br976  C1010   1.938   .     S
Br977  C994    1.938   .     S
Br978  C995    1.937   .     S
Br979  C997    1.937   .     S
Br980  C998    1.938   .     S
Br981  C999    1.937   .     S
Br982  C1000   1.938   .     S
Br983  C1001   1.937   .     S
Br984  C1002   1.938   .     S
C985   O1037   1.280   .     A
C985   O1047   1.281   .     A
C985   C1014   1.411   .     S
C986   N1033   1.366   .     A
C986   H1026   1.081   .     S
C986   C195    1.417   1_556 S
C987   H1027   1.081   .     S
C987   C546    1.417   1_655 S
C987   N946    1.366   1_655 S
C988   H1028   1.081   .     S
C988   C232    1.417   1_656 S
C988   N945    1.366   1_655 S
C989   H1029   1.081   .     S
C989   N1036   1.366   .     A
C990   H1030   1.081   .     S
C990   C287    1.417   1_556 S
C990   N859    1.366   1_565 S
C991   H1031   1.081   .     S
C991   N860    1.366   1_565 S
C992   N1035   1.366   .     A
C992   H1032   1.081   .     S
C992   C285    1.417   1_556 S
C993   C1012   1.403   .     A
C993   C1004   1.382   .     A
C994   C1011   1.403   .     A
C994   C1005   1.382   .     A
C995   C1002   1.382   .     A
C995   C1011   1.403   .     A
C996   O1046   1.280   .     A
C996   C1013   1.411   .     S
C996   O1045   1.281   .     A
C997   C1003   1.382   .     A
C997   C1012   1.403   .     A
C998   C1009   1.382   .     A
C998   C1014   1.403   .     A
C999   C1010   1.382   .     A
C999   C1013   1.403   .     A
C1000  C1013   1.403   .     A
C1000  C1006   1.382   .     A
C1001  C1014   1.403   .     A
C1001  C1008   1.382   .     A
C1002  C1016   1.403   .     A
C1003  C1015   1.403   .     A
C1004  C1015   1.403   .     A
C1005  C1016   1.403   .     A
C1006  C1019   1.403   .     A
C1007  C1012   1.411   .     S
C1007  O1048   1.280   .     A
C1007  O1051   1.281   .     A
C1008  C1017   1.403   .     A
C1009  C1017   1.403   .     A
C1010  C1019   1.403   .     A
C1011  C1018   1.411   .     S
C1015  C1023   1.411   .     S
C1016  C1022   1.411   .     S
C1017  C1021   1.411   .     S
C1018  O1050   1.280   .     A
C1018  O1049   1.281   .     A
C1019  C1020   1.411   .     S
C1020  O1052   1.281   .     A
C1020  O1040   1.280   .     A
C1021  O1038   1.280   .     A
C1021  O1039   1.281   .     A
C1022  O1041   1.281   .     A
C1022  O1044   1.280   .     A
C1023  O1042   1.280   .     A
C1023  O1043   1.281   .     A
C1024  N1034   1.366   .     A
C1024  H1025   1.081   .     S
N1033  Zn1053  2.012   .     S
N1034  Zn1054  2.012   .     S
N1035  Zn1055  2.012   .     S
N1036  Zn1056  2.012   .     S
O1037  Zn1053  1.989   .     S
O1038  Zn1056  1.989   .     S
O1039  Zn1055  1.989   .     S
O1040  Zn880   1.989   1_565 S
O1041  Zn880   1.989   1_565 S
O1042  Zn1055  1.989   .     S
O1043  Zn1056  1.989   .     S
O1044  Zn879   1.989   1_565 S
O1045  Zn966   1.989   1_655 S
O1046  Zn965   1.989   1_655 S
O1047  Zn1054  1.989   .     S
O1048  Zn966   1.989   1_655 S
O1049  Zn1053  1.989   .     S
O1050  Zn1054  1.989   .     S
O1051  Zn965   1.989   1_655 S
O1052  Zn879   1.989   1_565 S
