data_str_m3_o10_o16_pcu_sym.106
_audit_creation_date              2020-01-03
_audit_creation_method            'Materials Studio'
_symmetry_space_group_name_H-M    'P1'
_symmetry_Int_Tables_number       1
_symmetry_cell_setting            triclinic
loop_
_symmetry_equiv_pos_as_xyz
  x,y,z
_cell_length_a                    23.8921
_cell_length_b                    25.6739
_cell_length_c                    24.0874
_cell_angle_alpha                 94.7125
_cell_angle_beta                  101.0797
_cell_angle_gamma                 93.7520
loop_
_atom_site_label
_atom_site_type_symbol
_atom_site_fract_x
_atom_site_fract_y
_atom_site_fract_z
_atom_site_U_iso_or_equiv
_atom_site_adp_type
_atom_site_occupancy
C1     C     0.01464   0.26469   0.24887   0.00000  Uiso   1.00
C2     C     0.05364   0.16903   0.41662   0.00000  Uiso   1.00
C3     C     0.02223   0.31927   0.24819   0.00000  Uiso   1.00
C4     C     0.03523   0.16814   0.35516   0.00000  Uiso   1.00
C5     C     0.31128   0.01412   0.25237   0.00000  Uiso   1.00
C6     C     0.31875   0.06866   0.25131   0.00000  Uiso   1.00
C7     C     0.29770   0.16294   0.14475   0.00000  Uiso   1.00
C8     C     0.26924   0.09858   0.49637   0.00000  Uiso   1.00
C9     C     0.27702   0.15400   0.08380   0.00000  Uiso   1.00
C10    C     0.02647   0.20015   0.45219   0.00000  Uiso   1.00
C11    C     0.05165   0.21224   0.00907   0.00000  Uiso   1.00
C12    C     0.13398   0.16492   0.49456   0.00000  Uiso   1.00
C13    C     0.10552   0.19616   0.02998   0.00000  Uiso   1.00
C14    C     0.11427   0.09431   0.15126   0.00000  Uiso   1.00
C15    C     0.21867   0.23783   0.34960   0.00000  Uiso   1.00
C16    C     0.10437   0.14651   0.43934   0.00000  Uiso   1.00
C17    C     0.19069   0.15116   0.01201   0.00000  Uiso   1.00
C18    C     0.21388   0.11383   0.47780   0.00000  Uiso   1.00
C19    C     0.18088   0.09112   0.42649   0.00000  Uiso   1.00
C20    C     0.12665   0.10694   0.40761   0.00000  Uiso   1.00
C21    C     0.22515   0.17358   0.06270   0.00000  Uiso   1.00
C22    C     0.30028   0.11770   0.05003   0.00000  Uiso   1.00
H23    H     0.00727   0.10212   0.06612   0.00000  Uiso   1.00
H24    H     0.06408   0.00273   0.24408   0.00000  Uiso   1.00
H25    H     0.19624   0.10790   0.19532   0.00000  Uiso   1.00
H26    H     0.12920   0.06213   0.12547   0.00000  Uiso   1.00
H27    H     0.10865   0.12835   0.12573   0.00000  Uiso   1.00
H28    H     0.07303   0.07945   0.16062   0.00000  Uiso   1.00
H29    H     0.13702   0.22551   0.30452   0.00000  Uiso   1.00
H30    H     0.20397   0.27011   0.37544   0.00000  Uiso   1.00
H31    H     0.26036   0.25225   0.34086   0.00000  Uiso   1.00
H32    H     0.22313   0.20337   0.37471   0.00000  Uiso   1.00
H33    H     0.26945   0.33068   0.25654   0.00000  Uiso   1.00
H34    H     0.19713   0.06132   0.40069   0.00000  Uiso   1.00
H35    H     0.28718   0.06995   0.47069   0.00000  Uiso   1.00
H36    H     0.21127   0.20456   0.08855   0.00000  Uiso   1.00
H37    H     0.32040   0.21700   0.43560   0.00000  Uiso   1.00
H38    H     0.12310   0.20780   0.07424   0.00000  Uiso   1.00
H39    H     0.03044   0.23609   0.03655   0.00000  Uiso   1.00
H40    H     0.10206   0.08752   0.36802   0.00000  Uiso   1.00
N41    N     0.14493   0.15223   0.23542   0.00000  Uiso   1.00
N42    N     0.18840   0.18110   0.26457   0.00000  Uiso   1.00
N43    N     0.15607   0.10865   0.20294   0.00000  Uiso   1.00
N44    N     0.17734   0.22447   0.29742   0.00000  Uiso   1.00
O45    O     0.29769   0.24629   0.25357   0.00000  Uiso   1.00
O46    O     0.05742   0.23704   0.24424   0.00000  Uiso   1.00
O47    O     0.31490   0.17358   0.33380   0.00000  Uiso   1.00
O48    O     0.07463   0.16433   0.32446   0.00000  Uiso   1.00
O49    O     0.27592   0.09629   0.25576   0.00000  Uiso   1.00
O50    O     0.03565   0.08704   0.24642   0.00000  Uiso   1.00
O51    O     0.25870   0.16901   0.17554   0.00000  Uiso   1.00
O52    O     0.01843   0.15976   0.16620   0.00000  Uiso   1.00
Zn53   Zn    0.27119   0.17284   0.25623   0.00000  Uiso   1.00
Zn54   Zn    0.06214   0.16049   0.24376   0.00000  Uiso   1.00
C55    C     0.34797   0.26469   0.24887   0.00000  Uiso   1.00
C56    C     0.38697   0.16903   0.41662   0.00000  Uiso   1.00
C57    C     0.35556   0.31927   0.24819   0.00000  Uiso   1.00
C58    C     0.36857   0.16814   0.35516   0.00000  Uiso   1.00
C59    C     0.64461   0.01412   0.25237   0.00000  Uiso   1.00
C60    C     0.65208   0.06866   0.25131   0.00000  Uiso   1.00
C61    C     0.63104   0.16294   0.14475   0.00000  Uiso   1.00
C62    C     0.60257   0.09858   0.49637   0.00000  Uiso   1.00
C63    C     0.61035   0.15400   0.08380   0.00000  Uiso   1.00
C64    C     0.35980   0.20015   0.45219   0.00000  Uiso   1.00
C65    C     0.38498   0.21224   0.00907   0.00000  Uiso   1.00
C66    C     0.46731   0.16492   0.49456   0.00000  Uiso   1.00
C67    C     0.43886   0.19616   0.02998   0.00000  Uiso   1.00
C68    C     0.44760   0.09431   0.15126   0.00000  Uiso   1.00
C69    C     0.55200   0.23783   0.34960   0.00000  Uiso   1.00
C70    C     0.43770   0.14651   0.43934   0.00000  Uiso   1.00
C71    C     0.52403   0.15116   0.01201   0.00000  Uiso   1.00
C72    C     0.54721   0.11383   0.47780   0.00000  Uiso   1.00
C73    C     0.51421   0.09112   0.42649   0.00000  Uiso   1.00
C74    C     0.45999   0.10694   0.40761   0.00000  Uiso   1.00
C75    C     0.55849   0.17358   0.06270   0.00000  Uiso   1.00
C76    C     0.63362   0.11770   0.05003   0.00000  Uiso   1.00
H77    H     0.34060   0.10212   0.06612   0.00000  Uiso   1.00
H78    H     0.39741   0.00273   0.24408   0.00000  Uiso   1.00
H79    H     0.52957   0.10790   0.19532   0.00000  Uiso   1.00
H80    H     0.46254   0.06213   0.12547   0.00000  Uiso   1.00
H81    H     0.44199   0.12835   0.12573   0.00000  Uiso   1.00
H82    H     0.40637   0.07945   0.16062   0.00000  Uiso   1.00
H83    H     0.47035   0.22551   0.30452   0.00000  Uiso   1.00
H84    H     0.53731   0.27011   0.37544   0.00000  Uiso   1.00
H85    H     0.59370   0.25225   0.34086   0.00000  Uiso   1.00
H86    H     0.55646   0.20337   0.37471   0.00000  Uiso   1.00
H87    H     0.60278   0.33068   0.25654   0.00000  Uiso   1.00
H88    H     0.53046   0.06132   0.40069   0.00000  Uiso   1.00
H89    H     0.62051   0.06995   0.47069   0.00000  Uiso   1.00
H90    H     0.54460   0.20456   0.08855   0.00000  Uiso   1.00
H91    H     0.65374   0.21700   0.43560   0.00000  Uiso   1.00
H92    H     0.45643   0.20780   0.07424   0.00000  Uiso   1.00
H93    H     0.36377   0.23609   0.03655   0.00000  Uiso   1.00
H94    H     0.43539   0.08752   0.36802   0.00000  Uiso   1.00
N95    N     0.47827   0.15223   0.23542   0.00000  Uiso   1.00
N96    N     0.52173   0.18110   0.26457   0.00000  Uiso   1.00
N97    N     0.48940   0.10865   0.20294   0.00000  Uiso   1.00
N98    N     0.51067   0.22447   0.29742   0.00000  Uiso   1.00
O99    O     0.63102   0.24629   0.25357   0.00000  Uiso   1.00
O100   O     0.39075   0.23704   0.24424   0.00000  Uiso   1.00
O101   O     0.64823   0.17358   0.33380   0.00000  Uiso   1.00
O102   O     0.40796   0.16433   0.32446   0.00000  Uiso   1.00
O103   O     0.60925   0.09629   0.25576   0.00000  Uiso   1.00
O104   O     0.36898   0.08704   0.24642   0.00000  Uiso   1.00
O105   O     0.59204   0.16901   0.17554   0.00000  Uiso   1.00
O106   O     0.35177   0.15976   0.16620   0.00000  Uiso   1.00
Zn107  Zn    0.60453   0.17284   0.25623   0.00000  Uiso   1.00
Zn108  Zn    0.39547   0.16049   0.24376   0.00000  Uiso   1.00
C109   C     0.68131   0.26469   0.24887   0.00000  Uiso   1.00
C110   C     0.72030   0.16903   0.41662   0.00000  Uiso   1.00
C111   C     0.68890   0.31927   0.24819   0.00000  Uiso   1.00
C112   C     0.70190   0.16814   0.35516   0.00000  Uiso   1.00
C113   C     0.97794   0.01412   0.25237   0.00000  Uiso   1.00
C114   C     0.98542   0.06866   0.25131   0.00000  Uiso   1.00
C115   C     0.96437   0.16294   0.14475   0.00000  Uiso   1.00
C116   C     0.93591   0.09858   0.49637   0.00000  Uiso   1.00
C117   C     0.94368   0.15400   0.08380   0.00000  Uiso   1.00
C118   C     0.69314   0.20015   0.45219   0.00000  Uiso   1.00
C119   C     0.71831   0.21224   0.00907   0.00000  Uiso   1.00
C120   C     0.80065   0.16492   0.49456   0.00000  Uiso   1.00
C121   C     0.77219   0.19616   0.02998   0.00000  Uiso   1.00
C122   C     0.78094   0.09431   0.15126   0.00000  Uiso   1.00
C123   C     0.88534   0.23783   0.34960   0.00000  Uiso   1.00
C124   C     0.77103   0.14651   0.43934   0.00000  Uiso   1.00
C125   C     0.85736   0.15116   0.01201   0.00000  Uiso   1.00
C126   C     0.88054   0.11383   0.47780   0.00000  Uiso   1.00
C127   C     0.84755   0.09112   0.42649   0.00000  Uiso   1.00
C128   C     0.79332   0.10694   0.40761   0.00000  Uiso   1.00
C129   C     0.89182   0.17358   0.06270   0.00000  Uiso   1.00
C130   C     0.96695   0.11770   0.05003   0.00000  Uiso   1.00
H131   H     0.67394   0.10212   0.06612   0.00000  Uiso   1.00
H132   H     0.73074   0.00273   0.24408   0.00000  Uiso   1.00
H133   H     0.86290   0.10790   0.19532   0.00000  Uiso   1.00
H134   H     0.79587   0.06213   0.12547   0.00000  Uiso   1.00
H135   H     0.77532   0.12835   0.12573   0.00000  Uiso   1.00
H136   H     0.73970   0.07945   0.16062   0.00000  Uiso   1.00
H137   H     0.80368   0.22551   0.30452   0.00000  Uiso   1.00
H138   H     0.87064   0.27011   0.37544   0.00000  Uiso   1.00
H139   H     0.92703   0.25225   0.34086   0.00000  Uiso   1.00
H140   H     0.88979   0.20337   0.37471   0.00000  Uiso   1.00
H141   H     0.93612   0.33068   0.25654   0.00000  Uiso   1.00
H142   H     0.86379   0.06132   0.40069   0.00000  Uiso   1.00
H143   H     0.95385   0.06995   0.47069   0.00000  Uiso   1.00
H144   H     0.87793   0.20456   0.08855   0.00000  Uiso   1.00
H145   H     0.98707   0.21700   0.43560   0.00000  Uiso   1.00
H146   H     0.78976   0.20780   0.07424   0.00000  Uiso   1.00
H147   H     0.69711   0.23609   0.03655   0.00000  Uiso   1.00
H148   H     0.76872   0.08752   0.36802   0.00000  Uiso   1.00
N149   N     0.81160   0.15223   0.23542   0.00000  Uiso   1.00
N150   N     0.85507   0.18110   0.26457   0.00000  Uiso   1.00
N151   N     0.82274   0.10865   0.20294   0.00000  Uiso   1.00
N152   N     0.84400   0.22447   0.29742   0.00000  Uiso   1.00
O153   O     0.96435   0.24629   0.25357   0.00000  Uiso   1.00
O154   O     0.72408   0.23704   0.24424   0.00000  Uiso   1.00
O155   O     0.98157   0.17358   0.33380   0.00000  Uiso   1.00
O156   O     0.74130   0.16433   0.32446   0.00000  Uiso   1.00
O157   O     0.94258   0.09629   0.25576   0.00000  Uiso   1.00
O158   O     0.70231   0.08704   0.24642   0.00000  Uiso   1.00
O159   O     0.92537   0.16901   0.17554   0.00000  Uiso   1.00
O160   O     0.68510   0.15976   0.16620   0.00000  Uiso   1.00
Zn161  Zn    0.93786   0.17284   0.25623   0.00000  Uiso   1.00
Zn162  Zn    0.72881   0.16049   0.24376   0.00000  Uiso   1.00
C163   C     0.01464   0.59803   0.24887   0.00000  Uiso   1.00
C164   C     0.05364   0.50236   0.41662   0.00000  Uiso   1.00
C165   C     0.02223   0.65261   0.24819   0.00000  Uiso   1.00
C166   C     0.03523   0.50147   0.35516   0.00000  Uiso   1.00
C167   C     0.31128   0.34745   0.25237   0.00000  Uiso   1.00
C168   C     0.31875   0.40199   0.25131   0.00000  Uiso   1.00
C169   C     0.29770   0.49627   0.14475   0.00000  Uiso   1.00
C170   C     0.26924   0.43191   0.49637   0.00000  Uiso   1.00
C171   C     0.27702   0.48734   0.08380   0.00000  Uiso   1.00
C172   C     0.02647   0.53348   0.45219   0.00000  Uiso   1.00
C173   C     0.05165   0.54558   0.00907   0.00000  Uiso   1.00
C174   C     0.13398   0.49825   0.49456   0.00000  Uiso   1.00
C175   C     0.10552   0.52949   0.02998   0.00000  Uiso   1.00
C176   C     0.11427   0.42764   0.15126   0.00000  Uiso   1.00
C177   C     0.21867   0.57116   0.34960   0.00000  Uiso   1.00
C178   C     0.10437   0.47984   0.43934   0.00000  Uiso   1.00
C179   C     0.19069   0.48449   0.01201   0.00000  Uiso   1.00
C180   C     0.21388   0.44716   0.47780   0.00000  Uiso   1.00
C181   C     0.18088   0.42445   0.42649   0.00000  Uiso   1.00
C182   C     0.12665   0.44027   0.40761   0.00000  Uiso   1.00
C183   C     0.22515   0.50692   0.06270   0.00000  Uiso   1.00
C184   C     0.30028   0.45103   0.05003   0.00000  Uiso   1.00
H185   H     0.00727   0.43546   0.06612   0.00000  Uiso   1.00
H186   H     0.06408   0.33606   0.24408   0.00000  Uiso   1.00
H187   H     0.19624   0.44123   0.19532   0.00000  Uiso   1.00
H188   H     0.12920   0.39546   0.12547   0.00000  Uiso   1.00
H189   H     0.10865   0.46168   0.12573   0.00000  Uiso   1.00
H190   H     0.07303   0.41279   0.16062   0.00000  Uiso   1.00
H191   H     0.13702   0.55884   0.30452   0.00000  Uiso   1.00
H192   H     0.20397   0.60344   0.37544   0.00000  Uiso   1.00
H193   H     0.26036   0.58558   0.34086   0.00000  Uiso   1.00
H194   H     0.22313   0.53671   0.37471   0.00000  Uiso   1.00
H195   H     0.26945   0.66401   0.25654   0.00000  Uiso   1.00
H196   H     0.19713   0.39466   0.40069   0.00000  Uiso   1.00
H197   H     0.28718   0.40328   0.47069   0.00000  Uiso   1.00
H198   H     0.21127   0.53790   0.08855   0.00000  Uiso   1.00
H199   H     0.32040   0.55033   0.43560   0.00000  Uiso   1.00
H200   H     0.12310   0.54113   0.07424   0.00000  Uiso   1.00
H201   H     0.03044   0.56942   0.03655   0.00000  Uiso   1.00
H202   H     0.10206   0.42085   0.36802   0.00000  Uiso   1.00
N203   N     0.14493   0.48556   0.23542   0.00000  Uiso   1.00
N204   N     0.18840   0.51444   0.26457   0.00000  Uiso   1.00
N205   N     0.15607   0.44198   0.20294   0.00000  Uiso   1.00
N206   N     0.17734   0.55781   0.29742   0.00000  Uiso   1.00
O207   O     0.29769   0.57963   0.25357   0.00000  Uiso   1.00
O208   O     0.05742   0.57038   0.24424   0.00000  Uiso   1.00
O209   O     0.31490   0.50691   0.33380   0.00000  Uiso   1.00
O210   O     0.07463   0.49766   0.32446   0.00000  Uiso   1.00
O211   O     0.27592   0.42962   0.25576   0.00000  Uiso   1.00
O212   O     0.03565   0.42037   0.24642   0.00000  Uiso   1.00
O213   O     0.25870   0.50234   0.17554   0.00000  Uiso   1.00
O214   O     0.01843   0.49309   0.16620   0.00000  Uiso   1.00
Zn215  Zn    0.27119   0.50618   0.25623   0.00000  Uiso   1.00
Zn216  Zn    0.06214   0.49382   0.24376   0.00000  Uiso   1.00
C217   C     0.34797   0.59803   0.24887   0.00000  Uiso   1.00
C218   C     0.38697   0.50236   0.41662   0.00000  Uiso   1.00
C219   C     0.35556   0.65261   0.24819   0.00000  Uiso   1.00
C220   C     0.36857   0.50147   0.35516   0.00000  Uiso   1.00
C221   C     0.64461   0.34745   0.25237   0.00000  Uiso   1.00
C222   C     0.65208   0.40199   0.25131   0.00000  Uiso   1.00
C223   C     0.63104   0.49627   0.14475   0.00000  Uiso   1.00
C224   C     0.60257   0.43191   0.49637   0.00000  Uiso   1.00
C225   C     0.61035   0.48734   0.08380   0.00000  Uiso   1.00
C226   C     0.35980   0.53348   0.45219   0.00000  Uiso   1.00
C227   C     0.38498   0.54558   0.00907   0.00000  Uiso   1.00
C228   C     0.46731   0.49825   0.49456   0.00000  Uiso   1.00
C229   C     0.43886   0.52949   0.02998   0.00000  Uiso   1.00
C230   C     0.44760   0.42764   0.15126   0.00000  Uiso   1.00
C231   C     0.55200   0.57116   0.34960   0.00000  Uiso   1.00
C232   C     0.43770   0.47984   0.43934   0.00000  Uiso   1.00
C233   C     0.52403   0.48449   0.01201   0.00000  Uiso   1.00
C234   C     0.54721   0.44716   0.47780   0.00000  Uiso   1.00
C235   C     0.51421   0.42445   0.42649   0.00000  Uiso   1.00
C236   C     0.45999   0.44027   0.40761   0.00000  Uiso   1.00
C237   C     0.55849   0.50692   0.06270   0.00000  Uiso   1.00
C238   C     0.63362   0.45103   0.05003   0.00000  Uiso   1.00
H239   H     0.34060   0.43546   0.06612   0.00000  Uiso   1.00
H240   H     0.39741   0.33606   0.24408   0.00000  Uiso   1.00
H241   H     0.52957   0.44123   0.19532   0.00000  Uiso   1.00
H242   H     0.46254   0.39546   0.12547   0.00000  Uiso   1.00
H243   H     0.44199   0.46168   0.12573   0.00000  Uiso   1.00
H244   H     0.40637   0.41279   0.16062   0.00000  Uiso   1.00
H245   H     0.47035   0.55884   0.30452   0.00000  Uiso   1.00
H246   H     0.53731   0.60344   0.37544   0.00000  Uiso   1.00
H247   H     0.59370   0.58558   0.34086   0.00000  Uiso   1.00
H248   H     0.55646   0.53671   0.37471   0.00000  Uiso   1.00
H249   H     0.60278   0.66401   0.25654   0.00000  Uiso   1.00
H250   H     0.53046   0.39466   0.40069   0.00000  Uiso   1.00
H251   H     0.62051   0.40328   0.47069   0.00000  Uiso   1.00
H252   H     0.54460   0.53790   0.08855   0.00000  Uiso   1.00
H253   H     0.65374   0.55033   0.43560   0.00000  Uiso   1.00
H254   H     0.45643   0.54113   0.07424   0.00000  Uiso   1.00
H255   H     0.36377   0.56942   0.03655   0.00000  Uiso   1.00
H256   H     0.43539   0.42085   0.36802   0.00000  Uiso   1.00
N257   N     0.47827   0.48556   0.23542   0.00000  Uiso   1.00
N258   N     0.52173   0.51444   0.26457   0.00000  Uiso   1.00
N259   N     0.48940   0.44198   0.20294   0.00000  Uiso   1.00
N260   N     0.51067   0.55781   0.29742   0.00000  Uiso   1.00
O261   O     0.63102   0.57963   0.25357   0.00000  Uiso   1.00
O262   O     0.39075   0.57038   0.24424   0.00000  Uiso   1.00
O263   O     0.64823   0.50691   0.33380   0.00000  Uiso   1.00
O264   O     0.40796   0.49766   0.32446   0.00000  Uiso   1.00
O265   O     0.60925   0.42962   0.25576   0.00000  Uiso   1.00
O266   O     0.36898   0.42037   0.24642   0.00000  Uiso   1.00
O267   O     0.59204   0.50234   0.17554   0.00000  Uiso   1.00
O268   O     0.35177   0.49309   0.16620   0.00000  Uiso   1.00
Zn269  Zn    0.60453   0.50618   0.25623   0.00000  Uiso   1.00
Zn270  Zn    0.39547   0.49382   0.24376   0.00000  Uiso   1.00
C271   C     0.68131   0.59803   0.24887   0.00000  Uiso   1.00
C272   C     0.72030   0.50236   0.41662   0.00000  Uiso   1.00
C273   C     0.68890   0.65261   0.24819   0.00000  Uiso   1.00
C274   C     0.70190   0.50147   0.35516   0.00000  Uiso   1.00
C275   C     0.97794   0.34745   0.25237   0.00000  Uiso   1.00
C276   C     0.98542   0.40199   0.25131   0.00000  Uiso   1.00
C277   C     0.96437   0.49627   0.14475   0.00000  Uiso   1.00
C278   C     0.93591   0.43191   0.49637   0.00000  Uiso   1.00
C279   C     0.94368   0.48734   0.08380   0.00000  Uiso   1.00
C280   C     0.69314   0.53348   0.45219   0.00000  Uiso   1.00
C281   C     0.71831   0.54558   0.00907   0.00000  Uiso   1.00
C282   C     0.80065   0.49825   0.49456   0.00000  Uiso   1.00
C283   C     0.77219   0.52949   0.02998   0.00000  Uiso   1.00
C284   C     0.78094   0.42764   0.15126   0.00000  Uiso   1.00
C285   C     0.88534   0.57116   0.34960   0.00000  Uiso   1.00
C286   C     0.77103   0.47984   0.43934   0.00000  Uiso   1.00
C287   C     0.85736   0.48449   0.01201   0.00000  Uiso   1.00
C288   C     0.88054   0.44716   0.47780   0.00000  Uiso   1.00
C289   C     0.84755   0.42445   0.42649   0.00000  Uiso   1.00
C290   C     0.79332   0.44027   0.40761   0.00000  Uiso   1.00
C291   C     0.89182   0.50692   0.06270   0.00000  Uiso   1.00
C292   C     0.96695   0.45103   0.05003   0.00000  Uiso   1.00
H293   H     0.67394   0.43546   0.06612   0.00000  Uiso   1.00
H294   H     0.73074   0.33606   0.24408   0.00000  Uiso   1.00
H295   H     0.86290   0.44123   0.19532   0.00000  Uiso   1.00
H296   H     0.79587   0.39546   0.12547   0.00000  Uiso   1.00
H297   H     0.77532   0.46168   0.12573   0.00000  Uiso   1.00
H298   H     0.73970   0.41279   0.16062   0.00000  Uiso   1.00
H299   H     0.80368   0.55884   0.30452   0.00000  Uiso   1.00
H300   H     0.87064   0.60344   0.37544   0.00000  Uiso   1.00
H301   H     0.92703   0.58558   0.34086   0.00000  Uiso   1.00
H302   H     0.88979   0.53671   0.37471   0.00000  Uiso   1.00
H303   H     0.93612   0.66401   0.25654   0.00000  Uiso   1.00
H304   H     0.86379   0.39466   0.40069   0.00000  Uiso   1.00
H305   H     0.95385   0.40328   0.47069   0.00000  Uiso   1.00
H306   H     0.87793   0.53790   0.08855   0.00000  Uiso   1.00
H307   H     0.98707   0.55033   0.43560   0.00000  Uiso   1.00
H308   H     0.78976   0.54113   0.07424   0.00000  Uiso   1.00
H309   H     0.69711   0.56942   0.03655   0.00000  Uiso   1.00
H310   H     0.76872   0.42085   0.36802   0.00000  Uiso   1.00
N311   N     0.81160   0.48556   0.23542   0.00000  Uiso   1.00
N312   N     0.85507   0.51444   0.26457   0.00000  Uiso   1.00
N313   N     0.82274   0.44198   0.20294   0.00000  Uiso   1.00
N314   N     0.84400   0.55781   0.29742   0.00000  Uiso   1.00
O315   O     0.96435   0.57963   0.25357   0.00000  Uiso   1.00
O316   O     0.72408   0.57038   0.24424   0.00000  Uiso   1.00
O317   O     0.98157   0.50691   0.33380   0.00000  Uiso   1.00
O318   O     0.74130   0.49766   0.32446   0.00000  Uiso   1.00
O319   O     0.94258   0.42962   0.25576   0.00000  Uiso   1.00
O320   O     0.70231   0.42037   0.24642   0.00000  Uiso   1.00
O321   O     0.92537   0.50234   0.17554   0.00000  Uiso   1.00
O322   O     0.68510   0.49309   0.16620   0.00000  Uiso   1.00
Zn323  Zn    0.93786   0.50618   0.25623   0.00000  Uiso   1.00
Zn324  Zn    0.72881   0.49382   0.24376   0.00000  Uiso   1.00
C325   C     0.01464   0.93136   0.24887   0.00000  Uiso   1.00
C326   C     0.05364   0.83570   0.41662   0.00000  Uiso   1.00
C327   C     0.02223   0.98594   0.24819   0.00000  Uiso   1.00
C328   C     0.03523   0.83480   0.35516   0.00000  Uiso   1.00
C329   C     0.31128   0.68079   0.25237   0.00000  Uiso   1.00
C330   C     0.31875   0.73532   0.25131   0.00000  Uiso   1.00
C331   C     0.29770   0.82961   0.14475   0.00000  Uiso   1.00
C332   C     0.26924   0.76524   0.49637   0.00000  Uiso   1.00
C333   C     0.27702   0.82067   0.08380   0.00000  Uiso   1.00
C334   C     0.02647   0.86682   0.45219   0.00000  Uiso   1.00
C335   C     0.05165   0.87891   0.00907   0.00000  Uiso   1.00
C336   C     0.13398   0.83158   0.49456   0.00000  Uiso   1.00
C337   C     0.10552   0.86282   0.02998   0.00000  Uiso   1.00
C338   C     0.11427   0.76097   0.15126   0.00000  Uiso   1.00
C339   C     0.21867   0.90449   0.34960   0.00000  Uiso   1.00
C340   C     0.10437   0.81318   0.43934   0.00000  Uiso   1.00
C341   C     0.19069   0.81782   0.01201   0.00000  Uiso   1.00
C342   C     0.21388   0.78050   0.47780   0.00000  Uiso   1.00
C343   C     0.18088   0.75778   0.42649   0.00000  Uiso   1.00
C344   C     0.12665   0.77361   0.40761   0.00000  Uiso   1.00
C345   C     0.22515   0.84025   0.06270   0.00000  Uiso   1.00
C346   C     0.30028   0.78437   0.05003   0.00000  Uiso   1.00
H347   H     0.00727   0.76879   0.06612   0.00000  Uiso   1.00
H348   H     0.06408   0.66939   0.24408   0.00000  Uiso   1.00
H349   H     0.19624   0.77457   0.19532   0.00000  Uiso   1.00
H350   H     0.12920   0.72880   0.12547   0.00000  Uiso   1.00
H351   H     0.10865   0.79501   0.12573   0.00000  Uiso   1.00
H352   H     0.07303   0.74612   0.16062   0.00000  Uiso   1.00
H353   H     0.13702   0.89218   0.30452   0.00000  Uiso   1.00
H354   H     0.20397   0.93678   0.37544   0.00000  Uiso   1.00
H355   H     0.26036   0.91892   0.34086   0.00000  Uiso   1.00
H356   H     0.22313   0.87004   0.37471   0.00000  Uiso   1.00
H357   H     0.26945   0.99734   0.25654   0.00000  Uiso   1.00
H358   H     0.19713   0.72799   0.40069   0.00000  Uiso   1.00
H359   H     0.28718   0.73662   0.47069   0.00000  Uiso   1.00
H360   H     0.21127   0.87123   0.08855   0.00000  Uiso   1.00
H361   H     0.32040   0.88366   0.43560   0.00000  Uiso   1.00
H362   H     0.12310   0.87447   0.07424   0.00000  Uiso   1.00
H363   H     0.03044   0.90275   0.03655   0.00000  Uiso   1.00
H364   H     0.10206   0.75418   0.36802   0.00000  Uiso   1.00
N365   N     0.14493   0.81890   0.23542   0.00000  Uiso   1.00
N366   N     0.18840   0.84777   0.26457   0.00000  Uiso   1.00
N367   N     0.15607   0.77531   0.20294   0.00000  Uiso   1.00
N368   N     0.17734   0.89114   0.29742   0.00000  Uiso   1.00
O369   O     0.29769   0.91296   0.25357   0.00000  Uiso   1.00
O370   O     0.05742   0.90371   0.24424   0.00000  Uiso   1.00
O371   O     0.31490   0.84024   0.33380   0.00000  Uiso   1.00
O372   O     0.07463   0.83099   0.32446   0.00000  Uiso   1.00
O373   O     0.27592   0.76296   0.25576   0.00000  Uiso   1.00
O374   O     0.03565   0.75371   0.24642   0.00000  Uiso   1.00
O375   O     0.25870   0.83567   0.17554   0.00000  Uiso   1.00
O376   O     0.01843   0.82642   0.16620   0.00000  Uiso   1.00
Zn377  Zn    0.27119   0.83951   0.25623   0.00000  Uiso   1.00
Zn378  Zn    0.06214   0.82716   0.24376   0.00000  Uiso   1.00
C379   C     0.34797   0.93136   0.24887   0.00000  Uiso   1.00
C380   C     0.38697   0.83570   0.41662   0.00000  Uiso   1.00
C381   C     0.35556   0.98594   0.24819   0.00000  Uiso   1.00
C382   C     0.36857   0.83480   0.35516   0.00000  Uiso   1.00
C383   C     0.64461   0.68079   0.25237   0.00000  Uiso   1.00
C384   C     0.65208   0.73532   0.25131   0.00000  Uiso   1.00
C385   C     0.63104   0.82961   0.14475   0.00000  Uiso   1.00
C386   C     0.60257   0.76524   0.49637   0.00000  Uiso   1.00
C387   C     0.61035   0.82067   0.08380   0.00000  Uiso   1.00
C388   C     0.35980   0.86682   0.45219   0.00000  Uiso   1.00
C389   C     0.38498   0.87891   0.00907   0.00000  Uiso   1.00
C390   C     0.46731   0.83158   0.49456   0.00000  Uiso   1.00
C391   C     0.43886   0.86282   0.02998   0.00000  Uiso   1.00
C392   C     0.44760   0.76097   0.15126   0.00000  Uiso   1.00
C393   C     0.55200   0.90449   0.34960   0.00000  Uiso   1.00
C394   C     0.43770   0.81318   0.43934   0.00000  Uiso   1.00
C395   C     0.52403   0.81782   0.01201   0.00000  Uiso   1.00
C396   C     0.54721   0.78050   0.47780   0.00000  Uiso   1.00
C397   C     0.51421   0.75778   0.42649   0.00000  Uiso   1.00
C398   C     0.45999   0.77361   0.40761   0.00000  Uiso   1.00
C399   C     0.55849   0.84025   0.06270   0.00000  Uiso   1.00
C400   C     0.63362   0.78437   0.05003   0.00000  Uiso   1.00
H401   H     0.34060   0.76879   0.06612   0.00000  Uiso   1.00
H402   H     0.39741   0.66939   0.24408   0.00000  Uiso   1.00
H403   H     0.52957   0.77457   0.19532   0.00000  Uiso   1.00
H404   H     0.46254   0.72880   0.12547   0.00000  Uiso   1.00
H405   H     0.44199   0.79501   0.12573   0.00000  Uiso   1.00
H406   H     0.40637   0.74612   0.16062   0.00000  Uiso   1.00
H407   H     0.47035   0.89218   0.30452   0.00000  Uiso   1.00
H408   H     0.53731   0.93678   0.37544   0.00000  Uiso   1.00
H409   H     0.59370   0.91892   0.34086   0.00000  Uiso   1.00
H410   H     0.55646   0.87004   0.37471   0.00000  Uiso   1.00
H411   H     0.60278   0.99734   0.25654   0.00000  Uiso   1.00
H412   H     0.53046   0.72799   0.40069   0.00000  Uiso   1.00
H413   H     0.62051   0.73662   0.47069   0.00000  Uiso   1.00
H414   H     0.54460   0.87123   0.08855   0.00000  Uiso   1.00
H415   H     0.65374   0.88366   0.43560   0.00000  Uiso   1.00
H416   H     0.45643   0.87447   0.07424   0.00000  Uiso   1.00
H417   H     0.36377   0.90275   0.03655   0.00000  Uiso   1.00
H418   H     0.43539   0.75418   0.36802   0.00000  Uiso   1.00
N419   N     0.47827   0.81890   0.23542   0.00000  Uiso   1.00
N420   N     0.52173   0.84777   0.26457   0.00000  Uiso   1.00
N421   N     0.48940   0.77531   0.20294   0.00000  Uiso   1.00
N422   N     0.51067   0.89114   0.29742   0.00000  Uiso   1.00
O423   O     0.63102   0.91296   0.25357   0.00000  Uiso   1.00
O424   O     0.39075   0.90371   0.24424   0.00000  Uiso   1.00
O425   O     0.64823   0.84024   0.33380   0.00000  Uiso   1.00
O426   O     0.40796   0.83099   0.32446   0.00000  Uiso   1.00
O427   O     0.60925   0.76296   0.25576   0.00000  Uiso   1.00
O428   O     0.36898   0.75371   0.24642   0.00000  Uiso   1.00
O429   O     0.59204   0.83567   0.17554   0.00000  Uiso   1.00
O430   O     0.35177   0.82642   0.16620   0.00000  Uiso   1.00
Zn431  Zn    0.60453   0.83951   0.25623   0.00000  Uiso   1.00
Zn432  Zn    0.39547   0.82716   0.24376   0.00000  Uiso   1.00
C433   C     0.68131   0.93136   0.24887   0.00000  Uiso   1.00
C434   C     0.72030   0.83570   0.41662   0.00000  Uiso   1.00
C435   C     0.68890   0.98594   0.24819   0.00000  Uiso   1.00
C436   C     0.70190   0.83480   0.35516   0.00000  Uiso   1.00
C437   C     0.97794   0.68079   0.25237   0.00000  Uiso   1.00
C438   C     0.98542   0.73532   0.25131   0.00000  Uiso   1.00
C439   C     0.96437   0.82961   0.14475   0.00000  Uiso   1.00
C440   C     0.93591   0.76524   0.49637   0.00000  Uiso   1.00
C441   C     0.94368   0.82067   0.08380   0.00000  Uiso   1.00
C442   C     0.69314   0.86682   0.45219   0.00000  Uiso   1.00
C443   C     0.71831   0.87891   0.00907   0.00000  Uiso   1.00
C444   C     0.80065   0.83158   0.49456   0.00000  Uiso   1.00
C445   C     0.77219   0.86282   0.02998   0.00000  Uiso   1.00
C446   C     0.78094   0.76097   0.15126   0.00000  Uiso   1.00
C447   C     0.88534   0.90449   0.34960   0.00000  Uiso   1.00
C448   C     0.77103   0.81318   0.43934   0.00000  Uiso   1.00
C449   C     0.85736   0.81782   0.01201   0.00000  Uiso   1.00
C450   C     0.88054   0.78050   0.47780   0.00000  Uiso   1.00
C451   C     0.84755   0.75778   0.42649   0.00000  Uiso   1.00
C452   C     0.79332   0.77361   0.40761   0.00000  Uiso   1.00
C453   C     0.89182   0.84025   0.06270   0.00000  Uiso   1.00
C454   C     0.96695   0.78437   0.05003   0.00000  Uiso   1.00
H455   H     0.67394   0.76879   0.06612   0.00000  Uiso   1.00
H456   H     0.73074   0.66939   0.24408   0.00000  Uiso   1.00
H457   H     0.86290   0.77457   0.19532   0.00000  Uiso   1.00
H458   H     0.79587   0.72880   0.12547   0.00000  Uiso   1.00
H459   H     0.77532   0.79501   0.12573   0.00000  Uiso   1.00
H460   H     0.73970   0.74612   0.16062   0.00000  Uiso   1.00
H461   H     0.80368   0.89218   0.30452   0.00000  Uiso   1.00
H462   H     0.87064   0.93678   0.37544   0.00000  Uiso   1.00
H463   H     0.92703   0.91892   0.34086   0.00000  Uiso   1.00
H464   H     0.88979   0.87004   0.37471   0.00000  Uiso   1.00
H465   H     0.93612   0.99734   0.25654   0.00000  Uiso   1.00
H466   H     0.86379   0.72799   0.40069   0.00000  Uiso   1.00
H467   H     0.95385   0.73662   0.47069   0.00000  Uiso   1.00
H468   H     0.87793   0.87123   0.08855   0.00000  Uiso   1.00
H469   H     0.98707   0.88366   0.43560   0.00000  Uiso   1.00
H470   H     0.78976   0.87447   0.07424   0.00000  Uiso   1.00
H471   H     0.69711   0.90275   0.03655   0.00000  Uiso   1.00
H472   H     0.76872   0.75418   0.36802   0.00000  Uiso   1.00
N473   N     0.81160   0.81890   0.23542   0.00000  Uiso   1.00
N474   N     0.85507   0.84777   0.26457   0.00000  Uiso   1.00
N475   N     0.82274   0.77531   0.20294   0.00000  Uiso   1.00
N476   N     0.84400   0.89114   0.29742   0.00000  Uiso   1.00
O477   O     0.96435   0.91296   0.25357   0.00000  Uiso   1.00
O478   O     0.72408   0.90371   0.24424   0.00000  Uiso   1.00
O479   O     0.98157   0.84024   0.33380   0.00000  Uiso   1.00
O480   O     0.74130   0.83099   0.32446   0.00000  Uiso   1.00
O481   O     0.94258   0.76296   0.25576   0.00000  Uiso   1.00
O482   O     0.70231   0.75371   0.24642   0.00000  Uiso   1.00
O483   O     0.92537   0.83567   0.17554   0.00000  Uiso   1.00
O484   O     0.68510   0.82642   0.16620   0.00000  Uiso   1.00
Zn485  Zn    0.93786   0.83951   0.25623   0.00000  Uiso   1.00
Zn486  Zn    0.72881   0.82716   0.24376   0.00000  Uiso   1.00
C487   C     0.01464   0.26469   0.74887   0.00000  Uiso   1.00
C488   C     0.05364   0.16903   0.91662   0.00000  Uiso   1.00
C489   C     0.02223   0.31927   0.74819   0.00000  Uiso   1.00
C490   C     0.03523   0.16814   0.85516   0.00000  Uiso   1.00
C491   C     0.31128   0.01412   0.75237   0.00000  Uiso   1.00
C492   C     0.31875   0.06866   0.75131   0.00000  Uiso   1.00
C493   C     0.29770   0.16294   0.64475   0.00000  Uiso   1.00
C494   C     0.26924   0.09858   0.99637   0.00000  Uiso   1.00
C495   C     0.27702   0.15400   0.58380   0.00000  Uiso   1.00
C496   C     0.02647   0.20015   0.95219   0.00000  Uiso   1.00
C497   C     0.05165   0.21224   0.50907   0.00000  Uiso   1.00
C498   C     0.13398   0.16492   0.99456   0.00000  Uiso   1.00
C499   C     0.10552   0.19616   0.52998   0.00000  Uiso   1.00
C500   C     0.11427   0.09431   0.65126   0.00000  Uiso   1.00
C501   C     0.21867   0.23783   0.84960   0.00000  Uiso   1.00
C502   C     0.10437   0.14651   0.93934   0.00000  Uiso   1.00
C503   C     0.19069   0.15116   0.51201   0.00000  Uiso   1.00
C504   C     0.21388   0.11383   0.97780   0.00000  Uiso   1.00
C505   C     0.18088   0.09112   0.92649   0.00000  Uiso   1.00
C506   C     0.12665   0.10694   0.90761   0.00000  Uiso   1.00
C507   C     0.22515   0.17358   0.56270   0.00000  Uiso   1.00
C508   C     0.30028   0.11770   0.55003   0.00000  Uiso   1.00
H509   H     0.00727   0.10212   0.56612   0.00000  Uiso   1.00
H510   H     0.06408   0.00273   0.74408   0.00000  Uiso   1.00
H511   H     0.19624   0.10790   0.69532   0.00000  Uiso   1.00
H512   H     0.12920   0.06213   0.62547   0.00000  Uiso   1.00
H513   H     0.10865   0.12835   0.62573   0.00000  Uiso   1.00
H514   H     0.07303   0.07945   0.66062   0.00000  Uiso   1.00
H515   H     0.13702   0.22551   0.80452   0.00000  Uiso   1.00
H516   H     0.20397   0.27011   0.87544   0.00000  Uiso   1.00
H517   H     0.26036   0.25225   0.84086   0.00000  Uiso   1.00
H518   H     0.22313   0.20337   0.87471   0.00000  Uiso   1.00
H519   H     0.26945   0.33068   0.75654   0.00000  Uiso   1.00
H520   H     0.19713   0.06132   0.90069   0.00000  Uiso   1.00
H521   H     0.28718   0.06995   0.97069   0.00000  Uiso   1.00
H522   H     0.21127   0.20456   0.58855   0.00000  Uiso   1.00
H523   H     0.32040   0.21700   0.93560   0.00000  Uiso   1.00
H524   H     0.12310   0.20780   0.57424   0.00000  Uiso   1.00
H525   H     0.03044   0.23609   0.53655   0.00000  Uiso   1.00
H526   H     0.10206   0.08752   0.86802   0.00000  Uiso   1.00
N527   N     0.14493   0.15223   0.73542   0.00000  Uiso   1.00
N528   N     0.18840   0.18110   0.76457   0.00000  Uiso   1.00
N529   N     0.15607   0.10865   0.70294   0.00000  Uiso   1.00
N530   N     0.17734   0.22447   0.79742   0.00000  Uiso   1.00
O531   O     0.29769   0.24629   0.75357   0.00000  Uiso   1.00
O532   O     0.05742   0.23704   0.74424   0.00000  Uiso   1.00
O533   O     0.31490   0.17358   0.83380   0.00000  Uiso   1.00
O534   O     0.07463   0.16433   0.82446   0.00000  Uiso   1.00
O535   O     0.27592   0.09629   0.75576   0.00000  Uiso   1.00
O536   O     0.03565   0.08704   0.74642   0.00000  Uiso   1.00
O537   O     0.25870   0.16901   0.67554   0.00000  Uiso   1.00
O538   O     0.01843   0.15976   0.66620   0.00000  Uiso   1.00
Zn539  Zn    0.27119   0.17284   0.75623   0.00000  Uiso   1.00
Zn540  Zn    0.06214   0.16049   0.74376   0.00000  Uiso   1.00
C541   C     0.34797   0.26469   0.74887   0.00000  Uiso   1.00
C542   C     0.38697   0.16903   0.91662   0.00000  Uiso   1.00
C543   C     0.35556   0.31927   0.74819   0.00000  Uiso   1.00
C544   C     0.36857   0.16814   0.85516   0.00000  Uiso   1.00
C545   C     0.64461   0.01412   0.75237   0.00000  Uiso   1.00
C546   C     0.65208   0.06866   0.75131   0.00000  Uiso   1.00
C547   C     0.63104   0.16294   0.64475   0.00000  Uiso   1.00
C548   C     0.60257   0.09858   0.99637   0.00000  Uiso   1.00
C549   C     0.61035   0.15400   0.58380   0.00000  Uiso   1.00
C550   C     0.35980   0.20015   0.95219   0.00000  Uiso   1.00
C551   C     0.38498   0.21224   0.50907   0.00000  Uiso   1.00
C552   C     0.46731   0.16492   0.99456   0.00000  Uiso   1.00
C553   C     0.43886   0.19616   0.52998   0.00000  Uiso   1.00
C554   C     0.44760   0.09431   0.65126   0.00000  Uiso   1.00
C555   C     0.55200   0.23783   0.84960   0.00000  Uiso   1.00
C556   C     0.43770   0.14651   0.93934   0.00000  Uiso   1.00
C557   C     0.52403   0.15116   0.51201   0.00000  Uiso   1.00
C558   C     0.54721   0.11383   0.97780   0.00000  Uiso   1.00
C559   C     0.51421   0.09112   0.92649   0.00000  Uiso   1.00
C560   C     0.45999   0.10694   0.90761   0.00000  Uiso   1.00
C561   C     0.55849   0.17358   0.56270   0.00000  Uiso   1.00
C562   C     0.63362   0.11770   0.55003   0.00000  Uiso   1.00
H563   H     0.34060   0.10212   0.56612   0.00000  Uiso   1.00
H564   H     0.39741   0.00273   0.74408   0.00000  Uiso   1.00
H565   H     0.52957   0.10790   0.69532   0.00000  Uiso   1.00
H566   H     0.46254   0.06213   0.62547   0.00000  Uiso   1.00
H567   H     0.44199   0.12835   0.62573   0.00000  Uiso   1.00
H568   H     0.40637   0.07945   0.66062   0.00000  Uiso   1.00
H569   H     0.47035   0.22551   0.80452   0.00000  Uiso   1.00
H570   H     0.53731   0.27011   0.87544   0.00000  Uiso   1.00
H571   H     0.59370   0.25225   0.84086   0.00000  Uiso   1.00
H572   H     0.55646   0.20337   0.87471   0.00000  Uiso   1.00
H573   H     0.60278   0.33068   0.75654   0.00000  Uiso   1.00
H574   H     0.53046   0.06132   0.90069   0.00000  Uiso   1.00
H575   H     0.62051   0.06995   0.97069   0.00000  Uiso   1.00
H576   H     0.54460   0.20456   0.58855   0.00000  Uiso   1.00
H577   H     0.65374   0.21700   0.93560   0.00000  Uiso   1.00
H578   H     0.45643   0.20780   0.57424   0.00000  Uiso   1.00
H579   H     0.36377   0.23609   0.53655   0.00000  Uiso   1.00
H580   H     0.43539   0.08752   0.86802   0.00000  Uiso   1.00
N581   N     0.47827   0.15223   0.73542   0.00000  Uiso   1.00
N582   N     0.52173   0.18110   0.76457   0.00000  Uiso   1.00
N583   N     0.48940   0.10865   0.70294   0.00000  Uiso   1.00
N584   N     0.51067   0.22447   0.79742   0.00000  Uiso   1.00
O585   O     0.63102   0.24629   0.75357   0.00000  Uiso   1.00
O586   O     0.39075   0.23704   0.74424   0.00000  Uiso   1.00
O587   O     0.64823   0.17358   0.83380   0.00000  Uiso   1.00
O588   O     0.40796   0.16433   0.82446   0.00000  Uiso   1.00
O589   O     0.60925   0.09629   0.75576   0.00000  Uiso   1.00
O590   O     0.36898   0.08704   0.74642   0.00000  Uiso   1.00
O591   O     0.59204   0.16901   0.67554   0.00000  Uiso   1.00
O592   O     0.35177   0.15976   0.66620   0.00000  Uiso   1.00
Zn593  Zn    0.60453   0.17284   0.75623   0.00000  Uiso   1.00
Zn594  Zn    0.39547   0.16049   0.74376   0.00000  Uiso   1.00
C595   C     0.68131   0.26469   0.74887   0.00000  Uiso   1.00
C596   C     0.72030   0.16903   0.91662   0.00000  Uiso   1.00
C597   C     0.68890   0.31927   0.74819   0.00000  Uiso   1.00
C598   C     0.70190   0.16814   0.85516   0.00000  Uiso   1.00
C599   C     0.97794   0.01412   0.75237   0.00000  Uiso   1.00
C600   C     0.98542   0.06866   0.75131   0.00000  Uiso   1.00
C601   C     0.96437   0.16294   0.64475   0.00000  Uiso   1.00
C602   C     0.93591   0.09858   0.99637   0.00000  Uiso   1.00
C603   C     0.94368   0.15400   0.58380   0.00000  Uiso   1.00
C604   C     0.69314   0.20015   0.95219   0.00000  Uiso   1.00
C605   C     0.71831   0.21224   0.50907   0.00000  Uiso   1.00
C606   C     0.80065   0.16492   0.99456   0.00000  Uiso   1.00
C607   C     0.77219   0.19616   0.52998   0.00000  Uiso   1.00
C608   C     0.78094   0.09431   0.65126   0.00000  Uiso   1.00
C609   C     0.88534   0.23783   0.84960   0.00000  Uiso   1.00
C610   C     0.77103   0.14651   0.93934   0.00000  Uiso   1.00
C611   C     0.85736   0.15116   0.51201   0.00000  Uiso   1.00
C612   C     0.88054   0.11383   0.97780   0.00000  Uiso   1.00
C613   C     0.84755   0.09112   0.92649   0.00000  Uiso   1.00
C614   C     0.79332   0.10694   0.90761   0.00000  Uiso   1.00
C615   C     0.89182   0.17358   0.56270   0.00000  Uiso   1.00
C616   C     0.96695   0.11770   0.55003   0.00000  Uiso   1.00
H617   H     0.67394   0.10212   0.56612   0.00000  Uiso   1.00
H618   H     0.73074   0.00273   0.74408   0.00000  Uiso   1.00
H619   H     0.86290   0.10790   0.69532   0.00000  Uiso   1.00
H620   H     0.79587   0.06213   0.62547   0.00000  Uiso   1.00
H621   H     0.77532   0.12835   0.62573   0.00000  Uiso   1.00
H622   H     0.73970   0.07945   0.66062   0.00000  Uiso   1.00
H623   H     0.80368   0.22551   0.80452   0.00000  Uiso   1.00
H624   H     0.87064   0.27011   0.87544   0.00000  Uiso   1.00
H625   H     0.92703   0.25225   0.84086   0.00000  Uiso   1.00
H626   H     0.88979   0.20337   0.87471   0.00000  Uiso   1.00
H627   H     0.93612   0.33068   0.75654   0.00000  Uiso   1.00
H628   H     0.86379   0.06132   0.90069   0.00000  Uiso   1.00
H629   H     0.95385   0.06995   0.97069   0.00000  Uiso   1.00
H630   H     0.87793   0.20456   0.58855   0.00000  Uiso   1.00
H631   H     0.98707   0.21700   0.93560   0.00000  Uiso   1.00
H632   H     0.78976   0.20780   0.57424   0.00000  Uiso   1.00
H633   H     0.69711   0.23609   0.53655   0.00000  Uiso   1.00
H634   H     0.76872   0.08752   0.86802   0.00000  Uiso   1.00
N635   N     0.81160   0.15223   0.73542   0.00000  Uiso   1.00
N636   N     0.85507   0.18110   0.76457   0.00000  Uiso   1.00
N637   N     0.82274   0.10865   0.70294   0.00000  Uiso   1.00
N638   N     0.84400   0.22447   0.79742   0.00000  Uiso   1.00
O639   O     0.96435   0.24629   0.75357   0.00000  Uiso   1.00
O640   O     0.72408   0.23704   0.74424   0.00000  Uiso   1.00
O641   O     0.98157   0.17358   0.83380   0.00000  Uiso   1.00
O642   O     0.74130   0.16433   0.82446   0.00000  Uiso   1.00
O643   O     0.94258   0.09629   0.75576   0.00000  Uiso   1.00
O644   O     0.70231   0.08704   0.74642   0.00000  Uiso   1.00
O645   O     0.92537   0.16901   0.67554   0.00000  Uiso   1.00
O646   O     0.68510   0.15976   0.66620   0.00000  Uiso   1.00
Zn647  Zn    0.93786   0.17284   0.75623   0.00000  Uiso   1.00
Zn648  Zn    0.72881   0.16049   0.74376   0.00000  Uiso   1.00
C649   C     0.01464   0.59803   0.74887   0.00000  Uiso   1.00
C650   C     0.05364   0.50236   0.91662   0.00000  Uiso   1.00
C651   C     0.02223   0.65261   0.74819   0.00000  Uiso   1.00
C652   C     0.03523   0.50147   0.85516   0.00000  Uiso   1.00
C653   C     0.31128   0.34745   0.75237   0.00000  Uiso   1.00
C654   C     0.31875   0.40199   0.75131   0.00000  Uiso   1.00
C655   C     0.29770   0.49627   0.64475   0.00000  Uiso   1.00
C656   C     0.26924   0.43191   0.99637   0.00000  Uiso   1.00
C657   C     0.27702   0.48734   0.58380   0.00000  Uiso   1.00
C658   C     0.02647   0.53348   0.95219   0.00000  Uiso   1.00
C659   C     0.05165   0.54558   0.50907   0.00000  Uiso   1.00
C660   C     0.13398   0.49825   0.99456   0.00000  Uiso   1.00
C661   C     0.10552   0.52949   0.52998   0.00000  Uiso   1.00
C662   C     0.11427   0.42764   0.65126   0.00000  Uiso   1.00
C663   C     0.21867   0.57116   0.84960   0.00000  Uiso   1.00
C664   C     0.10437   0.47984   0.93934   0.00000  Uiso   1.00
C665   C     0.19069   0.48449   0.51201   0.00000  Uiso   1.00
C666   C     0.21388   0.44716   0.97780   0.00000  Uiso   1.00
C667   C     0.18088   0.42445   0.92649   0.00000  Uiso   1.00
C668   C     0.12665   0.44027   0.90761   0.00000  Uiso   1.00
C669   C     0.22515   0.50692   0.56270   0.00000  Uiso   1.00
C670   C     0.30028   0.45103   0.55003   0.00000  Uiso   1.00
H671   H     0.00727   0.43546   0.56612   0.00000  Uiso   1.00
H672   H     0.06408   0.33606   0.74408   0.00000  Uiso   1.00
H673   H     0.19624   0.44123   0.69532   0.00000  Uiso   1.00
H674   H     0.12920   0.39546   0.62547   0.00000  Uiso   1.00
H675   H     0.10865   0.46168   0.62573   0.00000  Uiso   1.00
H676   H     0.07303   0.41279   0.66062   0.00000  Uiso   1.00
H677   H     0.13702   0.55884   0.80452   0.00000  Uiso   1.00
H678   H     0.20397   0.60344   0.87544   0.00000  Uiso   1.00
H679   H     0.26036   0.58558   0.84086   0.00000  Uiso   1.00
H680   H     0.22313   0.53671   0.87471   0.00000  Uiso   1.00
H681   H     0.26945   0.66401   0.75654   0.00000  Uiso   1.00
H682   H     0.19713   0.39466   0.90069   0.00000  Uiso   1.00
H683   H     0.28718   0.40328   0.97069   0.00000  Uiso   1.00
H684   H     0.21127   0.53790   0.58855   0.00000  Uiso   1.00
H685   H     0.32040   0.55033   0.93560   0.00000  Uiso   1.00
H686   H     0.12310   0.54113   0.57424   0.00000  Uiso   1.00
H687   H     0.03044   0.56942   0.53655   0.00000  Uiso   1.00
H688   H     0.10206   0.42085   0.86802   0.00000  Uiso   1.00
N689   N     0.14493   0.48556   0.73542   0.00000  Uiso   1.00
N690   N     0.18840   0.51444   0.76457   0.00000  Uiso   1.00
N691   N     0.15607   0.44198   0.70294   0.00000  Uiso   1.00
N692   N     0.17734   0.55781   0.79742   0.00000  Uiso   1.00
O693   O     0.29769   0.57963   0.75357   0.00000  Uiso   1.00
O694   O     0.05742   0.57038   0.74424   0.00000  Uiso   1.00
O695   O     0.31490   0.50691   0.83380   0.00000  Uiso   1.00
O696   O     0.07463   0.49766   0.82446   0.00000  Uiso   1.00
O697   O     0.27592   0.42962   0.75576   0.00000  Uiso   1.00
O698   O     0.03565   0.42037   0.74642   0.00000  Uiso   1.00
O699   O     0.25870   0.50234   0.67554   0.00000  Uiso   1.00
O700   O     0.01843   0.49309   0.66620   0.00000  Uiso   1.00
Zn701  Zn    0.27119   0.50618   0.75623   0.00000  Uiso   1.00
Zn702  Zn    0.06214   0.49382   0.74376   0.00000  Uiso   1.00
C703   C     0.34797   0.59803   0.74887   0.00000  Uiso   1.00
C704   C     0.38697   0.50236   0.91662   0.00000  Uiso   1.00
C705   C     0.35556   0.65261   0.74819   0.00000  Uiso   1.00
C706   C     0.36857   0.50147   0.85516   0.00000  Uiso   1.00
C707   C     0.64461   0.34745   0.75237   0.00000  Uiso   1.00
C708   C     0.65208   0.40199   0.75131   0.00000  Uiso   1.00
C709   C     0.63104   0.49627   0.64475   0.00000  Uiso   1.00
C710   C     0.60257   0.43191   0.99637   0.00000  Uiso   1.00
C711   C     0.61035   0.48734   0.58380   0.00000  Uiso   1.00
C712   C     0.35980   0.53348   0.95219   0.00000  Uiso   1.00
C713   C     0.38498   0.54558   0.50907   0.00000  Uiso   1.00
C714   C     0.46731   0.49825   0.99456   0.00000  Uiso   1.00
C715   C     0.43886   0.52949   0.52998   0.00000  Uiso   1.00
C716   C     0.44760   0.42764   0.65126   0.00000  Uiso   1.00
C717   C     0.55200   0.57116   0.84960   0.00000  Uiso   1.00
C718   C     0.43770   0.47984   0.93934   0.00000  Uiso   1.00
C719   C     0.52403   0.48449   0.51201   0.00000  Uiso   1.00
C720   C     0.54721   0.44716   0.97780   0.00000  Uiso   1.00
C721   C     0.51421   0.42445   0.92649   0.00000  Uiso   1.00
C722   C     0.45999   0.44027   0.90761   0.00000  Uiso   1.00
C723   C     0.55849   0.50692   0.56270   0.00000  Uiso   1.00
C724   C     0.63362   0.45103   0.55003   0.00000  Uiso   1.00
H725   H     0.34060   0.43546   0.56612   0.00000  Uiso   1.00
H726   H     0.39741   0.33606   0.74408   0.00000  Uiso   1.00
H727   H     0.52957   0.44123   0.69532   0.00000  Uiso   1.00
H728   H     0.46254   0.39546   0.62547   0.00000  Uiso   1.00
H729   H     0.44199   0.46168   0.62573   0.00000  Uiso   1.00
H730   H     0.40637   0.41279   0.66062   0.00000  Uiso   1.00
H731   H     0.47035   0.55884   0.80452   0.00000  Uiso   1.00
H732   H     0.53731   0.60344   0.87544   0.00000  Uiso   1.00
H733   H     0.59370   0.58558   0.84086   0.00000  Uiso   1.00
H734   H     0.55646   0.53671   0.87471   0.00000  Uiso   1.00
H735   H     0.60278   0.66401   0.75654   0.00000  Uiso   1.00
H736   H     0.53046   0.39466   0.90069   0.00000  Uiso   1.00
H737   H     0.62051   0.40328   0.97069   0.00000  Uiso   1.00
H738   H     0.54460   0.53790   0.58855   0.00000  Uiso   1.00
H739   H     0.65374   0.55033   0.93560   0.00000  Uiso   1.00
H740   H     0.45643   0.54113   0.57424   0.00000  Uiso   1.00
H741   H     0.36377   0.56942   0.53655   0.00000  Uiso   1.00
H742   H     0.43539   0.42085   0.86802   0.00000  Uiso   1.00
N743   N     0.47827   0.48556   0.73542   0.00000  Uiso   1.00
N744   N     0.52173   0.51444   0.76457   0.00000  Uiso   1.00
N745   N     0.48940   0.44198   0.70294   0.00000  Uiso   1.00
N746   N     0.51067   0.55781   0.79742   0.00000  Uiso   1.00
O747   O     0.63102   0.57963   0.75357   0.00000  Uiso   1.00
O748   O     0.39075   0.57038   0.74424   0.00000  Uiso   1.00
O749   O     0.64823   0.50691   0.83380   0.00000  Uiso   1.00
O750   O     0.40796   0.49766   0.82446   0.00000  Uiso   1.00
O751   O     0.60925   0.42962   0.75576   0.00000  Uiso   1.00
O752   O     0.36898   0.42037   0.74642   0.00000  Uiso   1.00
O753   O     0.59204   0.50234   0.67554   0.00000  Uiso   1.00
O754   O     0.35177   0.49309   0.66620   0.00000  Uiso   1.00
Zn755  Zn    0.60453   0.50618   0.75623   0.00000  Uiso   1.00
Zn756  Zn    0.39547   0.49382   0.74376   0.00000  Uiso   1.00
C757   C     0.68131   0.59803   0.74887   0.00000  Uiso   1.00
C758   C     0.72030   0.50236   0.91662   0.00000  Uiso   1.00
C759   C     0.68890   0.65261   0.74819   0.00000  Uiso   1.00
C760   C     0.70190   0.50147   0.85516   0.00000  Uiso   1.00
C761   C     0.97794   0.34745   0.75237   0.00000  Uiso   1.00
C762   C     0.98542   0.40199   0.75131   0.00000  Uiso   1.00
C763   C     0.96437   0.49627   0.64475   0.00000  Uiso   1.00
C764   C     0.93591   0.43191   0.99637   0.00000  Uiso   1.00
C765   C     0.94368   0.48734   0.58380   0.00000  Uiso   1.00
C766   C     0.69314   0.53348   0.95219   0.00000  Uiso   1.00
C767   C     0.71831   0.54558   0.50907   0.00000  Uiso   1.00
C768   C     0.80065   0.49825   0.99456   0.00000  Uiso   1.00
C769   C     0.77219   0.52949   0.52998   0.00000  Uiso   1.00
C770   C     0.78094   0.42764   0.65126   0.00000  Uiso   1.00
C771   C     0.88534   0.57116   0.84960   0.00000  Uiso   1.00
C772   C     0.77103   0.47984   0.93934   0.00000  Uiso   1.00
C773   C     0.85736   0.48449   0.51201   0.00000  Uiso   1.00
C774   C     0.88054   0.44716   0.97780   0.00000  Uiso   1.00
C775   C     0.84755   0.42445   0.92649   0.00000  Uiso   1.00
C776   C     0.79332   0.44027   0.90761   0.00000  Uiso   1.00
C777   C     0.89182   0.50692   0.56270   0.00000  Uiso   1.00
C778   C     0.96695   0.45103   0.55003   0.00000  Uiso   1.00
H779   H     0.67394   0.43546   0.56612   0.00000  Uiso   1.00
H780   H     0.73074   0.33606   0.74408   0.00000  Uiso   1.00
H781   H     0.86290   0.44123   0.69532   0.00000  Uiso   1.00
H782   H     0.79587   0.39546   0.62547   0.00000  Uiso   1.00
H783   H     0.77532   0.46168   0.62573   0.00000  Uiso   1.00
H784   H     0.73970   0.41279   0.66062   0.00000  Uiso   1.00
H785   H     0.80368   0.55884   0.80452   0.00000  Uiso   1.00
H786   H     0.87064   0.60344   0.87544   0.00000  Uiso   1.00
H787   H     0.92703   0.58558   0.84086   0.00000  Uiso   1.00
H788   H     0.88979   0.53671   0.87471   0.00000  Uiso   1.00
H789   H     0.93612   0.66401   0.75654   0.00000  Uiso   1.00
H790   H     0.86379   0.39466   0.90069   0.00000  Uiso   1.00
H791   H     0.95385   0.40328   0.97069   0.00000  Uiso   1.00
H792   H     0.87793   0.53790   0.58855   0.00000  Uiso   1.00
H793   H     0.98707   0.55033   0.93560   0.00000  Uiso   1.00
H794   H     0.78976   0.54113   0.57424   0.00000  Uiso   1.00
H795   H     0.69711   0.56942   0.53655   0.00000  Uiso   1.00
H796   H     0.76872   0.42085   0.86802   0.00000  Uiso   1.00
N797   N     0.81160   0.48556   0.73542   0.00000  Uiso   1.00
N798   N     0.85507   0.51444   0.76457   0.00000  Uiso   1.00
N799   N     0.82274   0.44198   0.70294   0.00000  Uiso   1.00
N800   N     0.84400   0.55781   0.79742   0.00000  Uiso   1.00
O801   O     0.96435   0.57963   0.75357   0.00000  Uiso   1.00
O802   O     0.72408   0.57038   0.74424   0.00000  Uiso   1.00
O803   O     0.98157   0.50691   0.83380   0.00000  Uiso   1.00
O804   O     0.74130   0.49766   0.82446   0.00000  Uiso   1.00
O805   O     0.94258   0.42962   0.75576   0.00000  Uiso   1.00
O806   O     0.70231   0.42037   0.74642   0.00000  Uiso   1.00
O807   O     0.92537   0.50234   0.67554   0.00000  Uiso   1.00
O808   O     0.68510   0.49309   0.66620   0.00000  Uiso   1.00
Zn809  Zn    0.93786   0.50618   0.75623   0.00000  Uiso   1.00
Zn810  Zn    0.72881   0.49382   0.74376   0.00000  Uiso   1.00
C811   C     0.01464   0.93136   0.74887   0.00000  Uiso   1.00
C812   C     0.05364   0.83570   0.91662   0.00000  Uiso   1.00
C813   C     0.02223   0.98594   0.74819   0.00000  Uiso   1.00
C814   C     0.03523   0.83480   0.85516   0.00000  Uiso   1.00
C815   C     0.31128   0.68079   0.75237   0.00000  Uiso   1.00
C816   C     0.31875   0.73532   0.75131   0.00000  Uiso   1.00
C817   C     0.29770   0.82961   0.64475   0.00000  Uiso   1.00
C818   C     0.26924   0.76524   0.99637   0.00000  Uiso   1.00
C819   C     0.27702   0.82067   0.58380   0.00000  Uiso   1.00
C820   C     0.02647   0.86682   0.95219   0.00000  Uiso   1.00
C821   C     0.05165   0.87891   0.50907   0.00000  Uiso   1.00
C822   C     0.13398   0.83158   0.99456   0.00000  Uiso   1.00
C823   C     0.10552   0.86282   0.52998   0.00000  Uiso   1.00
C824   C     0.11427   0.76097   0.65126   0.00000  Uiso   1.00
C825   C     0.21867   0.90449   0.84960   0.00000  Uiso   1.00
C826   C     0.10437   0.81318   0.93934   0.00000  Uiso   1.00
C827   C     0.19069   0.81782   0.51201   0.00000  Uiso   1.00
C828   C     0.21388   0.78050   0.97780   0.00000  Uiso   1.00
C829   C     0.18088   0.75778   0.92649   0.00000  Uiso   1.00
C830   C     0.12665   0.77361   0.90761   0.00000  Uiso   1.00
C831   C     0.22515   0.84025   0.56270   0.00000  Uiso   1.00
C832   C     0.30028   0.78437   0.55003   0.00000  Uiso   1.00
H833   H     0.00727   0.76879   0.56612   0.00000  Uiso   1.00
H834   H     0.06408   0.66939   0.74408   0.00000  Uiso   1.00
H835   H     0.19624   0.77457   0.69532   0.00000  Uiso   1.00
H836   H     0.12920   0.72880   0.62547   0.00000  Uiso   1.00
H837   H     0.10865   0.79501   0.62573   0.00000  Uiso   1.00
H838   H     0.07303   0.74612   0.66062   0.00000  Uiso   1.00
H839   H     0.13702   0.89218   0.80452   0.00000  Uiso   1.00
H840   H     0.20397   0.93678   0.87544   0.00000  Uiso   1.00
H841   H     0.26036   0.91892   0.84086   0.00000  Uiso   1.00
H842   H     0.22313   0.87004   0.87471   0.00000  Uiso   1.00
H843   H     0.26945   0.99734   0.75654   0.00000  Uiso   1.00
H844   H     0.19713   0.72799   0.90069   0.00000  Uiso   1.00
H845   H     0.28718   0.73662   0.97069   0.00000  Uiso   1.00
H846   H     0.21127   0.87123   0.58855   0.00000  Uiso   1.00
H847   H     0.32040   0.88366   0.93560   0.00000  Uiso   1.00
H848   H     0.12310   0.87447   0.57424   0.00000  Uiso   1.00
H849   H     0.03044   0.90275   0.53655   0.00000  Uiso   1.00
H850   H     0.10206   0.75418   0.86802   0.00000  Uiso   1.00
N851   N     0.14493   0.81890   0.73542   0.00000  Uiso   1.00
N852   N     0.18840   0.84777   0.76457   0.00000  Uiso   1.00
N853   N     0.15607   0.77531   0.70294   0.00000  Uiso   1.00
N854   N     0.17734   0.89114   0.79742   0.00000  Uiso   1.00
O855   O     0.29769   0.91296   0.75357   0.00000  Uiso   1.00
O856   O     0.05742   0.90371   0.74424   0.00000  Uiso   1.00
O857   O     0.31490   0.84024   0.83380   0.00000  Uiso   1.00
O858   O     0.07463   0.83099   0.82446   0.00000  Uiso   1.00
O859   O     0.27592   0.76296   0.75576   0.00000  Uiso   1.00
O860   O     0.03565   0.75371   0.74642   0.00000  Uiso   1.00
O861   O     0.25870   0.83567   0.67554   0.00000  Uiso   1.00
O862   O     0.01843   0.82642   0.66620   0.00000  Uiso   1.00
Zn863  Zn    0.27119   0.83951   0.75623   0.00000  Uiso   1.00
Zn864  Zn    0.06214   0.82716   0.74376   0.00000  Uiso   1.00
C865   C     0.34797   0.93136   0.74887   0.00000  Uiso   1.00
C866   C     0.38697   0.83570   0.91662   0.00000  Uiso   1.00
C867   C     0.35556   0.98594   0.74819   0.00000  Uiso   1.00
C868   C     0.36857   0.83480   0.85516   0.00000  Uiso   1.00
C869   C     0.64461   0.68079   0.75237   0.00000  Uiso   1.00
C870   C     0.65208   0.73532   0.75131   0.00000  Uiso   1.00
C871   C     0.63104   0.82961   0.64475   0.00000  Uiso   1.00
C872   C     0.60257   0.76524   0.99637   0.00000  Uiso   1.00
C873   C     0.61035   0.82067   0.58380   0.00000  Uiso   1.00
C874   C     0.35980   0.86682   0.95219   0.00000  Uiso   1.00
C875   C     0.38498   0.87891   0.50907   0.00000  Uiso   1.00
C876   C     0.46731   0.83158   0.99456   0.00000  Uiso   1.00
C877   C     0.43886   0.86282   0.52998   0.00000  Uiso   1.00
C878   C     0.44760   0.76097   0.65126   0.00000  Uiso   1.00
C879   C     0.55200   0.90449   0.84960   0.00000  Uiso   1.00
C880   C     0.43770   0.81318   0.93934   0.00000  Uiso   1.00
C881   C     0.52403   0.81782   0.51201   0.00000  Uiso   1.00
C882   C     0.54721   0.78050   0.97780   0.00000  Uiso   1.00
C883   C     0.51421   0.75778   0.92649   0.00000  Uiso   1.00
C884   C     0.45999   0.77361   0.90761   0.00000  Uiso   1.00
C885   C     0.55849   0.84025   0.56270   0.00000  Uiso   1.00
C886   C     0.63362   0.78437   0.55003   0.00000  Uiso   1.00
H887   H     0.34060   0.76879   0.56612   0.00000  Uiso   1.00
H888   H     0.39741   0.66939   0.74408   0.00000  Uiso   1.00
H889   H     0.52957   0.77457   0.69532   0.00000  Uiso   1.00
H890   H     0.46254   0.72880   0.62547   0.00000  Uiso   1.00
H891   H     0.44199   0.79501   0.62573   0.00000  Uiso   1.00
H892   H     0.40637   0.74612   0.66062   0.00000  Uiso   1.00
H893   H     0.47035   0.89218   0.80452   0.00000  Uiso   1.00
H894   H     0.53731   0.93678   0.87544   0.00000  Uiso   1.00
H895   H     0.59370   0.91892   0.84086   0.00000  Uiso   1.00
H896   H     0.55646   0.87004   0.87471   0.00000  Uiso   1.00
H897   H     0.60278   0.99734   0.75654   0.00000  Uiso   1.00
H898   H     0.53046   0.72799   0.90069   0.00000  Uiso   1.00
H899   H     0.62051   0.73662   0.97069   0.00000  Uiso   1.00
H900   H     0.54460   0.87123   0.58855   0.00000  Uiso   1.00
H901   H     0.65374   0.88366   0.93560   0.00000  Uiso   1.00
H902   H     0.45643   0.87447   0.57424   0.00000  Uiso   1.00
H903   H     0.36377   0.90275   0.53655   0.00000  Uiso   1.00
H904   H     0.43539   0.75418   0.86802   0.00000  Uiso   1.00
N905   N     0.47827   0.81890   0.73542   0.00000  Uiso   1.00
N906   N     0.52173   0.84777   0.76457   0.00000  Uiso   1.00
N907   N     0.48940   0.77531   0.70294   0.00000  Uiso   1.00
N908   N     0.51067   0.89114   0.79742   0.00000  Uiso   1.00
O909   O     0.63102   0.91296   0.75357   0.00000  Uiso   1.00
O910   O     0.39075   0.90371   0.74424   0.00000  Uiso   1.00
O911   O     0.64823   0.84024   0.83380   0.00000  Uiso   1.00
O912   O     0.40796   0.83099   0.82446   0.00000  Uiso   1.00
O913   O     0.60925   0.76296   0.75576   0.00000  Uiso   1.00
O914   O     0.36898   0.75371   0.74642   0.00000  Uiso   1.00
O915   O     0.59204   0.83567   0.67554   0.00000  Uiso   1.00
O916   O     0.35177   0.82642   0.66620   0.00000  Uiso   1.00
Zn917  Zn    0.60453   0.83951   0.75623   0.00000  Uiso   1.00
Zn918  Zn    0.39547   0.82716   0.74376   0.00000  Uiso   1.00
C919   C     0.68131   0.93136   0.74887   0.00000  Uiso   1.00
C920   C     0.72030   0.83570   0.91662   0.00000  Uiso   1.00
C921   C     0.68890   0.98594   0.74819   0.00000  Uiso   1.00
C922   C     0.70190   0.83480   0.85516   0.00000  Uiso   1.00
C923   C     0.97794   0.68079   0.75237   0.00000  Uiso   1.00
C924   C     0.98542   0.73532   0.75131   0.00000  Uiso   1.00
C925   C     0.96437   0.82961   0.64475   0.00000  Uiso   1.00
C926   C     0.93591   0.76524   0.99637   0.00000  Uiso   1.00
C927   C     0.94368   0.82067   0.58380   0.00000  Uiso   1.00
C928   C     0.69314   0.86682   0.95219   0.00000  Uiso   1.00
C929   C     0.71831   0.87891   0.50907   0.00000  Uiso   1.00
C930   C     0.80065   0.83158   0.99456   0.00000  Uiso   1.00
C931   C     0.77219   0.86282   0.52998   0.00000  Uiso   1.00
C932   C     0.78094   0.76097   0.65126   0.00000  Uiso   1.00
C933   C     0.88534   0.90449   0.84960   0.00000  Uiso   1.00
C934   C     0.77103   0.81318   0.93934   0.00000  Uiso   1.00
C935   C     0.85736   0.81782   0.51201   0.00000  Uiso   1.00
C936   C     0.88054   0.78050   0.97780   0.00000  Uiso   1.00
C937   C     0.84755   0.75778   0.92649   0.00000  Uiso   1.00
C938   C     0.79332   0.77361   0.90761   0.00000  Uiso   1.00
C939   C     0.89182   0.84025   0.56270   0.00000  Uiso   1.00
C940   C     0.96695   0.78437   0.55003   0.00000  Uiso   1.00
H941   H     0.67394   0.76879   0.56612   0.00000  Uiso   1.00
H942   H     0.73074   0.66939   0.74408   0.00000  Uiso   1.00
H943   H     0.86290   0.77457   0.69532   0.00000  Uiso   1.00
H944   H     0.79587   0.72880   0.62547   0.00000  Uiso   1.00
H945   H     0.77532   0.79501   0.62573   0.00000  Uiso   1.00
H946   H     0.73970   0.74612   0.66062   0.00000  Uiso   1.00
H947   H     0.80368   0.89218   0.80452   0.00000  Uiso   1.00
H948   H     0.87064   0.93678   0.87544   0.00000  Uiso   1.00
H949   H     0.92703   0.91892   0.84086   0.00000  Uiso   1.00
H950   H     0.88979   0.87004   0.87471   0.00000  Uiso   1.00
H951   H     0.93612   0.99734   0.75654   0.00000  Uiso   1.00
H952   H     0.86379   0.72799   0.90069   0.00000  Uiso   1.00
H953   H     0.95385   0.73662   0.97069   0.00000  Uiso   1.00
H954   H     0.87793   0.87123   0.58855   0.00000  Uiso   1.00
H955   H     0.98707   0.88366   0.93560   0.00000  Uiso   1.00
H956   H     0.78976   0.87447   0.57424   0.00000  Uiso   1.00
H957   H     0.69711   0.90275   0.53655   0.00000  Uiso   1.00
H958   H     0.76872   0.75418   0.86802   0.00000  Uiso   1.00
N959   N     0.81160   0.81890   0.73542   0.00000  Uiso   1.00
N960   N     0.85507   0.84777   0.76457   0.00000  Uiso   1.00
N961   N     0.82274   0.77531   0.70294   0.00000  Uiso   1.00
N962   N     0.84400   0.89114   0.79742   0.00000  Uiso   1.00
O963   O     0.96435   0.91296   0.75357   0.00000  Uiso   1.00
O964   O     0.72408   0.90371   0.74424   0.00000  Uiso   1.00
O965   O     0.98157   0.84024   0.83380   0.00000  Uiso   1.00
O966   O     0.74130   0.83099   0.82446   0.00000  Uiso   1.00
O967   O     0.94258   0.76296   0.75576   0.00000  Uiso   1.00
O968   O     0.70231   0.75371   0.74642   0.00000  Uiso   1.00
O969   O     0.92537   0.83567   0.67554   0.00000  Uiso   1.00
O970   O     0.68510   0.82642   0.66620   0.00000  Uiso   1.00
Zn971  Zn    0.93786   0.83951   0.75623   0.00000  Uiso   1.00
Zn972  Zn    0.72881   0.82716   0.74376   0.00000  Uiso   1.00
loop_
_geom_bond_atom_site_label_1
_geom_bond_atom_site_label_2
_geom_bond_distance
_geom_bond_site_symmetry_2
_ccdc_geom_bond_type
C1     O46     1.299   .     A
C1     C3      1.403   .     S
C1     O153    1.291   1_455 S
C2     C16     1.411   .     A
C2     C4      1.459   .     S
C2     C10     1.401   .     A
C3     C275    1.335   1_455 S
C3     H186    1.088   .     S
C4     O48     1.308   .     A
C4     O155    1.308   1_455 S
C5     C6      1.403   .     S
C5     C381    1.335   1_545 S
C5     H357    1.088   1_545 S
C6     O49     1.299   .     A
C6     O104    1.291   .     S
C7     O51     1.307   .     A
C7     C9      1.450   .     S
C7     O106    1.306   .     S
C8     H35     1.084   .     S
C8     C18     1.404   .     A
C8     C508    1.393   .     S
C9     C21     1.389   .     A
C9     C22     1.399   .     A
C10    C497    1.387   .     S
C10    H145    1.082   1_455 S
C11    H39     1.083   .     S
C11    C13     1.391   .     A
C11    C496    1.387   1_554 S
C12    C16     1.409   .     A
C12    C499    1.420   .     S
C12    C503    1.416   .     S
C13    H38     1.078   .     S
C13    C498    1.420   1_554 S
C14    H27     1.110   .     S
C14    H26     1.111   .     S
C14    H28     1.103   .     S
C14    N43     1.443   .     S
C15    N44     1.442   .     S
C15    H31     1.104   .     S
C15    H32     1.111   .     S
C15    H30     1.111   .     S
C16    C20     1.414   .     A
C17    C21     1.391   .     A
C17    C498    1.416   1_554 S
C17    C504    1.421   1_554 S
C18    C19     1.392   .     A
C18    C503    1.421   .     S
C19    C20     1.387   .     A
C19    H34     1.084   .     S
C20    H40     1.082   .     S
C21    H36     1.078   .     S
C22    C494    1.393   1_554 S
C22    H77     1.082   .     S
H23    C130    1.082   1_455 S
H24    C327    1.088   1_545 S
H25    N43     1.012   .     S
H29    N44     1.012   .     S
H33    C167    1.088   .     S
H37    C64     1.082   .     S
N41    N42     1.286   .     D
N41    N43     1.382   .     S
N41    Zn54    2.049   .     S
N42    Zn53    2.049   .     S
N42    N44     1.382   .     S
O45    Zn53    1.960   .     S
O45    C55     1.291   .     S
O46    Zn54    1.975   .     S
O47    Zn53    1.955   .     S
O47    C58     1.308   .     S
O48    Zn54    1.902   .     S
O49    Zn53    1.975   .     S
O50    Zn54    1.960   .     S
O50    C114    1.291   1_455 S
O51    Zn53    1.902   .     S
O52    Zn54    1.955   .     S
O52    C115    1.306   1_455 S
C55    O100    1.299   .     A
C55    C57     1.403   .     S
C56    C70     1.411   .     A
C56    C58     1.459   .     S
C56    C64     1.401   .     A
C57    C167    1.335   .     S
C57    H240    1.088   .     S
C58    O102    1.308   .     A
C59    C60     1.403   .     S
C59    C435    1.335   1_545 S
C59    H411    1.088   1_545 S
C60    O103    1.299   .     A
C60    O158    1.291   .     S
C61    O105    1.307   .     A
C61    C63     1.450   .     S
C61    O160    1.306   .     S
C62    H89     1.084   .     S
C62    C72     1.404   .     A
C62    C562    1.393   .     S
C63    C75     1.389   .     A
C63    C76     1.399   .     A
C64    C551    1.387   .     S
C65    H93     1.083   .     S
C65    C67     1.391   .     A
C65    C550    1.387   1_554 S
C66    C70     1.409   .     A
C66    C553    1.420   .     S
C66    C557    1.416   .     S
C67    H92     1.078   .     S
C67    C552    1.420   1_554 S
C68    H81     1.110   .     S
C68    H80     1.111   .     S
C68    H82     1.103   .     S
C68    N97     1.443   .     S
C69    N98     1.442   .     S
C69    H85     1.104   .     S
C69    H86     1.111   .     S
C69    H84     1.111   .     S
C70    C74     1.414   .     A
C71    C75     1.391   .     A
C71    C552    1.416   1_554 S
C71    C558    1.421   1_554 S
C72    C73     1.392   .     A
C72    C557    1.421   .     S
C73    C74     1.387   .     A
C73    H88     1.084   .     S
C74    H94     1.082   .     S
C75    H90     1.078   .     S
C76    C548    1.393   1_554 S
C76    H131    1.082   .     S
H78    C381    1.088   1_545 S
H79    N97     1.012   .     S
H83    N98     1.012   .     S
H87    C221    1.088   .     S
H91    C118    1.082   .     S
N95    N96     1.286   .     D
N95    N97     1.382   .     S
N95    Zn108   2.049   .     S
N96    Zn107   2.049   .     S
N96    N98     1.382   .     S
O99    Zn107   1.960   .     S
O99    C109    1.291   .     S
O100   Zn108   1.975   .     S
O101   Zn107   1.955   .     S
O101   C112    1.308   .     S
O102   Zn108   1.902   .     S
O103   Zn107   1.975   .     S
O104   Zn108   1.960   .     S
O105   Zn107   1.902   .     S
O106   Zn108   1.955   .     S
C109   O154    1.299   .     A
C109   C111    1.403   .     S
C110   C124    1.411   .     A
C110   C112    1.459   .     S
C110   C118    1.401   .     A
C111   C221    1.335   .     S
C111   H294    1.088   .     S
C112   O156    1.308   .     A
C113   C114    1.403   .     S
C113   C327    1.335   1_645 S
C113   H465    1.088   1_545 S
C114   O157    1.299   .     A
C114   O50     1.291   1_655 S
C115   O159    1.307   .     A
C115   C117    1.450   .     S
C115   O52     1.306   1_655 S
C116   H143    1.084   .     S
C116   C126    1.404   .     A
C116   C616    1.393   .     S
C117   C129    1.389   .     A
C117   C130    1.399   .     A
C118   C605    1.387   .     S
C119   H147    1.083   .     S
C119   C121    1.391   .     A
C119   C604    1.387   1_554 S
C120   C124    1.409   .     A
C120   C607    1.420   .     S
C120   C611    1.416   .     S
C121   H146    1.078   .     S
C121   C606    1.420   1_554 S
C122   H135    1.110   .     S
C122   H134    1.111   .     S
C122   H136    1.103   .     S
C122   N151    1.443   .     S
C123   N152    1.442   .     S
C123   H139    1.104   .     S
C123   H140    1.111   .     S
C123   H138    1.111   .     S
C124   C128    1.414   .     A
C125   C129    1.391   .     A
C125   C606    1.416   1_554 S
C125   C612    1.421   1_554 S
C126   C127    1.392   .     A
C126   C611    1.421   .     S
C127   C128    1.387   .     A
C127   H142    1.084   .     S
C128   H148    1.082   .     S
C129   H144    1.078   .     S
C130   C602    1.393   1_554 S
C130   H23     1.082   1_655 S
H132   C435    1.088   1_545 S
H133   N151    1.012   .     S
H137   N152    1.012   .     S
H141   C275    1.088   .     S
H145   C10     1.082   1_655 S
N149   N150    1.286   .     D
N149   N151    1.382   .     S
N149   Zn162   2.049   .     S
N150   Zn161   2.049   .     S
N150   N152    1.382   .     S
O153   Zn161   1.960   .     S
O153   C1      1.291   1_655 S
O154   Zn162   1.975   .     S
O155   Zn161   1.955   .     S
O155   C4      1.308   1_655 S
O156   Zn162   1.902   .     S
O157   Zn161   1.975   .     S
O158   Zn162   1.960   .     S
O159   Zn161   1.902   .     S
O160   Zn162   1.955   .     S
C163   O208    1.299   .     A
C163   C165    1.403   .     S
C163   O315    1.291   1_455 S
C164   C178    1.411   .     A
C164   C166    1.459   .     S
C164   C172    1.401   .     A
C165   C437    1.335   1_455 S
C165   H348    1.088   .     S
C166   O210    1.308   .     A
C166   O317    1.308   1_455 S
C167   C168    1.403   .     S
C168   O211    1.299   .     A
C168   O266    1.291   .     S
C169   O213    1.307   .     A
C169   C171    1.450   .     S
C169   O268    1.306   .     S
C170   H197    1.084   .     S
C170   C180    1.404   .     A
C170   C670    1.393   .     S
C171   C183    1.389   .     A
C171   C184    1.399   .     A
C172   C659    1.387   .     S
C172   H307    1.082   1_455 S
C173   H201    1.083   .     S
C173   C175    1.391   .     A
C173   C658    1.387   1_554 S
C174   C178    1.409   .     A
C174   C661    1.420   .     S
C174   C665    1.416   .     S
C175   H200    1.078   .     S
C175   C660    1.420   1_554 S
C176   H189    1.110   .     S
C176   H188    1.111   .     S
C176   H190    1.103   .     S
C176   N205    1.443   .     S
C177   N206    1.442   .     S
C177   H193    1.104   .     S
C177   H194    1.111   .     S
C177   H192    1.111   .     S
C178   C182    1.414   .     A
C179   C183    1.391   .     A
C179   C660    1.416   1_554 S
C179   C666    1.421   1_554 S
C180   C181    1.392   .     A
C180   C665    1.421   .     S
C181   C182    1.387   .     A
C181   H196    1.084   .     S
C182   H202    1.082   .     S
C183   H198    1.078   .     S
C184   C656    1.393   1_554 S
C184   H239    1.082   .     S
H185   C292    1.082   1_455 S
H187   N205    1.012   .     S
H191   N206    1.012   .     S
H195   C329    1.088   .     S
H199   C226    1.082   .     S
N203   N204    1.286   .     D
N203   N205    1.382   .     S
N203   Zn216   2.049   .     S
N204   Zn215   2.049   .     S
N204   N206    1.382   .     S
O207   Zn215   1.960   .     S
O207   C217    1.291   .     S
O208   Zn216   1.975   .     S
O209   Zn215   1.955   .     S
O209   C220    1.308   .     S
O210   Zn216   1.902   .     S
O211   Zn215   1.975   .     S
O212   Zn216   1.960   .     S
O212   C276    1.291   1_455 S
O213   Zn215   1.902   .     S
O214   Zn216   1.955   .     S
O214   C277    1.306   1_455 S
C217   O262    1.299   .     A
C217   C219    1.403   .     S
C218   C232    1.411   .     A
C218   C220    1.459   .     S
C218   C226    1.401   .     A
C219   C329    1.335   .     S
C219   H402    1.088   .     S
C220   O264    1.308   .     A
C221   C222    1.403   .     S
C222   O265    1.299   .     A
C222   O320    1.291   .     S
C223   O267    1.307   .     A
C223   C225    1.450   .     S
C223   O322    1.306   .     S
C224   H251    1.084   .     S
C224   C234    1.404   .     A
C224   C724    1.393   .     S
C225   C237    1.389   .     A
C225   C238    1.399   .     A
C226   C713    1.387   .     S
C227   H255    1.083   .     S
C227   C229    1.391   .     A
C227   C712    1.387   1_554 S
C228   C232    1.409   .     A
C228   C715    1.420   .     S
C228   C719    1.416   .     S
C229   H254    1.078   .     S
C229   C714    1.420   1_554 S
C230   H243    1.110   .     S
C230   H242    1.111   .     S
C230   H244    1.103   .     S
C230   N259    1.443   .     S
C231   N260    1.442   .     S
C231   H247    1.104   .     S
C231   H248    1.111   .     S
C231   H246    1.111   .     S
C232   C236    1.414   .     A
C233   C237    1.391   .     A
C233   C714    1.416   1_554 S
C233   C720    1.421   1_554 S
C234   C235    1.392   .     A
C234   C719    1.421   .     S
C235   C236    1.387   .     A
C235   H250    1.084   .     S
C236   H256    1.082   .     S
C237   H252    1.078   .     S
C238   C710    1.393   1_554 S
C238   H293    1.082   .     S
H241   N259    1.012   .     S
H245   N260    1.012   .     S
H249   C383    1.088   .     S
H253   C280    1.082   .     S
N257   N258    1.286   .     D
N257   N259    1.382   .     S
N257   Zn270   2.049   .     S
N258   Zn269   2.049   .     S
N258   N260    1.382   .     S
O261   Zn269   1.960   .     S
O261   C271    1.291   .     S
O262   Zn270   1.975   .     S
O263   Zn269   1.955   .     S
O263   C274    1.308   .     S
O264   Zn270   1.902   .     S
O265   Zn269   1.975   .     S
O266   Zn270   1.960   .     S
O267   Zn269   1.902   .     S
O268   Zn270   1.955   .     S
C271   O316    1.299   .     A
C271   C273    1.403   .     S
C272   C286    1.411   .     A
C272   C274    1.459   .     S
C272   C280    1.401   .     A
C273   C383    1.335   .     S
C273   H456    1.088   .     S
C274   O318    1.308   .     A
C275   C276    1.403   .     S
C275   C3      1.335   1_655 S
C276   O319    1.299   .     A
C276   O212    1.291   1_655 S
C277   O321    1.307   .     A
C277   C279    1.450   .     S
C277   O214    1.306   1_655 S
C278   H305    1.084   .     S
C278   C288    1.404   .     A
C278   C778    1.393   .     S
C279   C291    1.389   .     A
C279   C292    1.399   .     A
C280   C767    1.387   .     S
C281   H309    1.083   .     S
C281   C283    1.391   .     A
C281   C766    1.387   1_554 S
C282   C286    1.409   .     A
C282   C769    1.420   .     S
C282   C773    1.416   .     S
C283   H308    1.078   .     S
C283   C768    1.420   1_554 S
C284   H297    1.110   .     S
C284   H296    1.111   .     S
C284   H298    1.103   .     S
C284   N313    1.443   .     S
C285   N314    1.442   .     S
C285   H301    1.104   .     S
C285   H302    1.111   .     S
C285   H300    1.111   .     S
C286   C290    1.414   .     A
C287   C291    1.391   .     A
C287   C768    1.416   1_554 S
C287   C774    1.421   1_554 S
C288   C289    1.392   .     A
C288   C773    1.421   .     S
C289   C290    1.387   .     A
C289   H304    1.084   .     S
C290   H310    1.082   .     S
C291   H306    1.078   .     S
C292   C764    1.393   1_554 S
C292   H185    1.082   1_655 S
H295   N313    1.012   .     S
H299   N314    1.012   .     S
H303   C437    1.088   .     S
H307   C172    1.082   1_655 S
N311   N312    1.286   .     D
N311   N313    1.382   .     S
N311   Zn324   2.049   .     S
N312   Zn323   2.049   .     S
N312   N314    1.382   .     S
O315   Zn323   1.960   .     S
O315   C163    1.291   1_655 S
O316   Zn324   1.975   .     S
O317   Zn323   1.955   .     S
O317   C166    1.308   1_655 S
O318   Zn324   1.902   .     S
O319   Zn323   1.975   .     S
O320   Zn324   1.960   .     S
O321   Zn323   1.902   .     S
O322   Zn324   1.955   .     S
C325   O370    1.299   .     A
C325   C327    1.403   .     S
C325   O477    1.291   1_455 S
C326   C340    1.411   .     A
C326   C328    1.459   .     S
C326   C334    1.401   .     A
C327   C113    1.335   1_465 S
C327   H24     1.088   1_565 S
C328   O372    1.308   .     A
C328   O479    1.308   1_455 S
C329   C330    1.403   .     S
C330   O373    1.299   .     A
C330   O428    1.291   .     S
C331   O375    1.307   .     A
C331   C333    1.450   .     S
C331   O430    1.306   .     S
C332   H359    1.084   .     S
C332   C342    1.404   .     A
C332   C832    1.393   .     S
C333   C345    1.389   .     A
C333   C346    1.399   .     A
C334   C821    1.387   .     S
C334   H469    1.082   1_455 S
C335   H363    1.083   .     S
C335   C337    1.391   .     A
C335   C820    1.387   1_554 S
C336   C340    1.409   .     A
C336   C823    1.420   .     S
C336   C827    1.416   .     S
C337   H362    1.078   .     S
C337   C822    1.420   1_554 S
C338   H351    1.110   .     S
C338   H350    1.111   .     S
C338   H352    1.103   .     S
C338   N367    1.443   .     S
C339   N368    1.442   .     S
C339   H355    1.104   .     S
C339   H356    1.111   .     S
C339   H354    1.111   .     S
C340   C344    1.414   .     A
C341   C345    1.391   .     A
C341   C822    1.416   1_554 S
C341   C828    1.421   1_554 S
C342   C343    1.392   .     A
C342   C827    1.421   .     S
C343   C344    1.387   .     A
C343   H358    1.084   .     S
C344   H364    1.082   .     S
C345   H360    1.078   .     S
C346   C818    1.393   1_554 S
C346   H401    1.082   .     S
H347   C454    1.082   1_455 S
H349   N367    1.012   .     S
H353   N368    1.012   .     S
H357   C5      1.088   1_565 S
H361   C388    1.082   .     S
N365   N366    1.286   .     D
N365   N367    1.382   .     S
N365   Zn378   2.049   .     S
N366   Zn377   2.049   .     S
N366   N368    1.382   .     S
O369   Zn377   1.960   .     S
O369   C379    1.291   .     S
O370   Zn378   1.975   .     S
O371   Zn377   1.955   .     S
O371   C382    1.308   .     S
O372   Zn378   1.902   .     S
O373   Zn377   1.975   .     S
O374   Zn378   1.960   .     S
O374   C438    1.291   1_455 S
O375   Zn377   1.902   .     S
O376   Zn378   1.955   .     S
O376   C439    1.306   1_455 S
C379   O424    1.299   .     A
C379   C381    1.403   .     S
C380   C394    1.411   .     A
C380   C382    1.459   .     S
C380   C388    1.401   .     A
C381   C5      1.335   1_565 S
C381   H78     1.088   1_565 S
C382   O426    1.308   .     A
C383   C384    1.403   .     S
C384   O427    1.299   .     A
C384   O482    1.291   .     S
C385   O429    1.307   .     A
C385   C387    1.450   .     S
C385   O484    1.306   .     S
C386   H413    1.084   .     S
C386   C396    1.404   .     A
C386   C886    1.393   .     S
C387   C399    1.389   .     A
C387   C400    1.399   .     A
C388   C875    1.387   .     S
C389   H417    1.083   .     S
C389   C391    1.391   .     A
C389   C874    1.387   1_554 S
C390   C394    1.409   .     A
C390   C877    1.420   .     S
C390   C881    1.416   .     S
C391   H416    1.078   .     S
C391   C876    1.420   1_554 S
C392   H405    1.110   .     S
C392   H404    1.111   .     S
C392   H406    1.103   .     S
C392   N421    1.443   .     S
C393   N422    1.442   .     S
C393   H409    1.104   .     S
C393   H410    1.111   .     S
C393   H408    1.111   .     S
C394   C398    1.414   .     A
C395   C399    1.391   .     A
C395   C876    1.416   1_554 S
C395   C882    1.421   1_554 S
C396   C397    1.392   .     A
C396   C881    1.421   .     S
C397   C398    1.387   .     A
C397   H412    1.084   .     S
C398   H418    1.082   .     S
C399   H414    1.078   .     S
C400   C872    1.393   1_554 S
C400   H455    1.082   .     S
H403   N421    1.012   .     S
H407   N422    1.012   .     S
H411   C59     1.088   1_565 S
H415   C442    1.082   .     S
N419   N420    1.286   .     D
N419   N421    1.382   .     S
N419   Zn432   2.049   .     S
N420   Zn431   2.049   .     S
N420   N422    1.382   .     S
O423   Zn431   1.960   .     S
O423   C433    1.291   .     S
O424   Zn432   1.975   .     S
O425   Zn431   1.955   .     S
O425   C436    1.308   .     S
O426   Zn432   1.902   .     S
O427   Zn431   1.975   .     S
O428   Zn432   1.960   .     S
O429   Zn431   1.902   .     S
O430   Zn432   1.955   .     S
C433   O478    1.299   .     A
C433   C435    1.403   .     S
C434   C448    1.411   .     A
C434   C436    1.459   .     S
C434   C442    1.401   .     A
C435   C59     1.335   1_565 S
C435   H132    1.088   1_565 S
C436   O480    1.308   .     A
C437   C438    1.403   .     S
C437   C165    1.335   1_655 S
C438   O481    1.299   .     A
C438   O374    1.291   1_655 S
C439   O483    1.307   .     A
C439   C441    1.450   .     S
C439   O376    1.306   1_655 S
C440   H467    1.084   .     S
C440   C450    1.404   .     A
C440   C940    1.393   .     S
C441   C453    1.389   .     A
C441   C454    1.399   .     A
C442   C929    1.387   .     S
C443   H471    1.083   .     S
C443   C445    1.391   .     A
C443   C928    1.387   1_554 S
C444   C448    1.409   .     A
C444   C931    1.420   .     S
C444   C935    1.416   .     S
C445   H470    1.078   .     S
C445   C930    1.420   1_554 S
C446   H459    1.110   .     S
C446   H458    1.111   .     S
C446   H460    1.103   .     S
C446   N475    1.443   .     S
C447   N476    1.442   .     S
C447   H463    1.104   .     S
C447   H464    1.111   .     S
C447   H462    1.111   .     S
C448   C452    1.414   .     A
C449   C453    1.391   .     A
C449   C930    1.416   1_554 S
C449   C936    1.421   1_554 S
C450   C451    1.392   .     A
C450   C935    1.421   .     S
C451   C452    1.387   .     A
C451   H466    1.084   .     S
C452   H472    1.082   .     S
C453   H468    1.078   .     S
C454   C926    1.393   1_554 S
C454   H347    1.082   1_655 S
H457   N475    1.012   .     S
H461   N476    1.012   .     S
H465   C113    1.088   1_565 S
H469   C334    1.082   1_655 S
N473   N474    1.286   .     D
N473   N475    1.382   .     S
N473   Zn486   2.049   .     S
N474   Zn485   2.049   .     S
N474   N476    1.382   .     S
O477   Zn485   1.960   .     S
O477   C325    1.291   1_655 S
O478   Zn486   1.975   .     S
O479   Zn485   1.955   .     S
O479   C328    1.308   1_655 S
O480   Zn486   1.902   .     S
O481   Zn485   1.975   .     S
O482   Zn486   1.960   .     S
O483   Zn485   1.902   .     S
O484   Zn486   1.955   .     S
C487   O532    1.299   .     A
C487   C489    1.403   .     S
C487   O639    1.291   1_455 S
C488   C502    1.411   .     A
C488   C490    1.459   .     S
C488   C496    1.401   .     A
C489   C761    1.335   1_455 S
C489   H672    1.088   .     S
C490   O534    1.308   .     A
C490   O641    1.308   1_455 S
C491   C492    1.403   .     S
C491   C867    1.335   1_545 S
C491   H843    1.088   1_545 S
C492   O535    1.299   .     A
C492   O590    1.291   .     S
C493   O537    1.307   .     A
C493   C495    1.450   .     S
C493   O592    1.306   .     S
C494   H521    1.084   .     S
C494   C504    1.404   .     A
C494   C22     1.393   1_556 S
C495   C507    1.389   .     A
C495   C508    1.399   .     A
C496   C11     1.387   1_556 S
C496   H631    1.082   1_455 S
C497   H525    1.083   .     S
C497   C499    1.391   .     A
C498   C502    1.409   .     A
C498   C13     1.420   1_556 S
C498   C17     1.416   1_556 S
C499   H524    1.078   .     S
C500   H513    1.110   .     S
C500   H512    1.111   .     S
C500   H514    1.103   .     S
C500   N529    1.443   .     S
C501   N530    1.442   .     S
C501   H517    1.104   .     S
C501   H518    1.111   .     S
C501   H516    1.111   .     S
C502   C506    1.414   .     A
C503   C507    1.391   .     A
C504   C505    1.392   .     A
C504   C17     1.421   1_556 S
C505   C506    1.387   .     A
C505   H520    1.084   .     S
C506   H526    1.082   .     S
C507   H522    1.078   .     S
C508   H563    1.082   .     S
H509   C616    1.082   1_455 S
H510   C813    1.088   1_545 S
H511   N529    1.012   .     S
H515   N530    1.012   .     S
H519   C653    1.088   .     S
H523   C550    1.082   .     S
N527   N528    1.286   .     D
N527   N529    1.382   .     S
N527   Zn540   2.049   .     S
N528   Zn539   2.049   .     S
N528   N530    1.382   .     S
O531   Zn539   1.960   .     S
O531   C541    1.291   .     S
O532   Zn540   1.975   .     S
O533   Zn539   1.955   .     S
O533   C544    1.308   .     S
O534   Zn540   1.902   .     S
O535   Zn539   1.975   .     S
O536   Zn540   1.960   .     S
O536   C600    1.291   1_455 S
O537   Zn539   1.902   .     S
O538   Zn540   1.955   .     S
O538   C601    1.306   1_455 S
C541   O586    1.299   .     A
C541   C543    1.403   .     S
C542   C556    1.411   .     A
C542   C544    1.459   .     S
C542   C550    1.401   .     A
C543   C653    1.335   .     S
C543   H726    1.088   .     S
C544   O588    1.308   .     A
C545   C546    1.403   .     S
C545   C921    1.335   1_545 S
C545   H897    1.088   1_545 S
C546   O589    1.299   .     A
C546   O644    1.291   .     S
C547   O591    1.307   .     A
C547   C549    1.450   .     S
C547   O646    1.306   .     S
C548   H575    1.084   .     S
C548   C558    1.404   .     A
C548   C76     1.393   1_556 S
C549   C561    1.389   .     A
C549   C562    1.399   .     A
C550   C65     1.387   1_556 S
C551   H579    1.083   .     S
C551   C553    1.391   .     A
C552   C556    1.409   .     A
C552   C67     1.420   1_556 S
C552   C71     1.416   1_556 S
C553   H578    1.078   .     S
C554   H567    1.110   .     S
C554   H566    1.111   .     S
C554   H568    1.103   .     S
C554   N583    1.443   .     S
C555   N584    1.442   .     S
C555   H571    1.104   .     S
C555   H572    1.111   .     S
C555   H570    1.111   .     S
C556   C560    1.414   .     A
C557   C561    1.391   .     A
C558   C559    1.392   .     A
C558   C71     1.421   1_556 S
C559   C560    1.387   .     A
C559   H574    1.084   .     S
C560   H580    1.082   .     S
C561   H576    1.078   .     S
C562   H617    1.082   .     S
H564   C867    1.088   1_545 S
H565   N583    1.012   .     S
H569   N584    1.012   .     S
H573   C707    1.088   .     S
H577   C604    1.082   .     S
N581   N582    1.286   .     D
N581   N583    1.382   .     S
N581   Zn594   2.049   .     S
N582   Zn593   2.049   .     S
N582   N584    1.382   .     S
O585   Zn593   1.960   .     S
O585   C595    1.291   .     S
O586   Zn594   1.975   .     S
O587   Zn593   1.955   .     S
O587   C598    1.308   .     S
O588   Zn594   1.902   .     S
O589   Zn593   1.975   .     S
O590   Zn594   1.960   .     S
O591   Zn593   1.902   .     S
O592   Zn594   1.955   .     S
C595   O640    1.299   .     A
C595   C597    1.403   .     S
C596   C610    1.411   .     A
C596   C598    1.459   .     S
C596   C604    1.401   .     A
C597   C707    1.335   .     S
C597   H780    1.088   .     S
C598   O642    1.308   .     A
C599   C600    1.403   .     S
C599   C813    1.335   1_645 S
C599   H951    1.088   1_545 S
C600   O643    1.299   .     A
C600   O536    1.291   1_655 S
C601   O645    1.307   .     A
C601   C603    1.450   .     S
C601   O538    1.306   1_655 S
C602   H629    1.084   .     S
C602   C612    1.404   .     A
C602   C130    1.393   1_556 S
C603   C615    1.389   .     A
C603   C616    1.399   .     A
C604   C119    1.387   1_556 S
C605   H633    1.083   .     S
C605   C607    1.391   .     A
C606   C610    1.409   .     A
C606   C121    1.420   1_556 S
C606   C125    1.416   1_556 S
C607   H632    1.078   .     S
C608   H621    1.110   .     S
C608   H620    1.111   .     S
C608   H622    1.103   .     S
C608   N637    1.443   .     S
C609   N638    1.442   .     S
C609   H625    1.104   .     S
C609   H626    1.111   .     S
C609   H624    1.111   .     S
C610   C614    1.414   .     A
C611   C615    1.391   .     A
C612   C613    1.392   .     A
C612   C125    1.421   1_556 S
C613   C614    1.387   .     A
C613   H628    1.084   .     S
C614   H634    1.082   .     S
C615   H630    1.078   .     S
C616   H509    1.082   1_655 S
H618   C921    1.088   1_545 S
H619   N637    1.012   .     S
H623   N638    1.012   .     S
H627   C761    1.088   .     S
H631   C496    1.082   1_655 S
N635   N636    1.286   .     D
N635   N637    1.382   .     S
N635   Zn648   2.049   .     S
N636   Zn647   2.049   .     S
N636   N638    1.382   .     S
O639   Zn647   1.960   .     S
O639   C487    1.291   1_655 S
O640   Zn648   1.975   .     S
O641   Zn647   1.955   .     S
O641   C490    1.308   1_655 S
O642   Zn648   1.902   .     S
O643   Zn647   1.975   .     S
O644   Zn648   1.960   .     S
O645   Zn647   1.902   .     S
O646   Zn648   1.955   .     S
C649   O694    1.299   .     A
C649   C651    1.403   .     S
C649   O801    1.291   1_455 S
C650   C664    1.411   .     A
C650   C652    1.459   .     S
C650   C658    1.401   .     A
C651   C923    1.335   1_455 S
C651   H834    1.088   .     S
C652   O696    1.308   .     A
C652   O803    1.308   1_455 S
C653   C654    1.403   .     S
C654   O697    1.299   .     A
C654   O752    1.291   .     S
C655   O699    1.307   .     A
C655   C657    1.450   .     S
C655   O754    1.306   .     S
C656   H683    1.084   .     S
C656   C666    1.404   .     A
C656   C184    1.393   1_556 S
C657   C669    1.389   .     A
C657   C670    1.399   .     A
C658   C173    1.387   1_556 S
C658   H793    1.082   1_455 S
C659   H687    1.083   .     S
C659   C661    1.391   .     A
C660   C664    1.409   .     A
C660   C175    1.420   1_556 S
C660   C179    1.416   1_556 S
C661   H686    1.078   .     S
C662   H675    1.110   .     S
C662   H674    1.111   .     S
C662   H676    1.103   .     S
C662   N691    1.443   .     S
C663   N692    1.442   .     S
C663   H679    1.104   .     S
C663   H680    1.111   .     S
C663   H678    1.111   .     S
C664   C668    1.414   .     A
C665   C669    1.391   .     A
C666   C667    1.392   .     A
C666   C179    1.421   1_556 S
C667   C668    1.387   .     A
C667   H682    1.084   .     S
C668   H688    1.082   .     S
C669   H684    1.078   .     S
C670   H725    1.082   .     S
H671   C778    1.082   1_455 S
H673   N691    1.012   .     S
H677   N692    1.012   .     S
H681   C815    1.088   .     S
H685   C712    1.082   .     S
N689   N690    1.286   .     D
N689   N691    1.382   .     S
N689   Zn702   2.049   .     S
N690   Zn701   2.049   .     S
N690   N692    1.382   .     S
O693   Zn701   1.960   .     S
O693   C703    1.291   .     S
O694   Zn702   1.975   .     S
O695   Zn701   1.955   .     S
O695   C706    1.308   .     S
O696   Zn702   1.902   .     S
O697   Zn701   1.975   .     S
O698   Zn702   1.960   .     S
O698   C762    1.291   1_455 S
O699   Zn701   1.902   .     S
O700   Zn702   1.955   .     S
O700   C763    1.306   1_455 S
C703   O748    1.299   .     A
C703   C705    1.403   .     S
C704   C718    1.411   .     A
C704   C706    1.459   .     S
C704   C712    1.401   .     A
C705   C815    1.335   .     S
C705   H888    1.088   .     S
C706   O750    1.308   .     A
C707   C708    1.403   .     S
C708   O751    1.299   .     A
C708   O806    1.291   .     S
C709   O753    1.307   .     A
C709   C711    1.450   .     S
C709   O808    1.306   .     S
C710   H737    1.084   .     S
C710   C720    1.404   .     A
C710   C238    1.393   1_556 S
C711   C723    1.389   .     A
C711   C724    1.399   .     A
C712   C227    1.387   1_556 S
C713   H741    1.083   .     S
C713   C715    1.391   .     A
C714   C718    1.409   .     A
C714   C229    1.420   1_556 S
C714   C233    1.416   1_556 S
C715   H740    1.078   .     S
C716   H729    1.110   .     S
C716   H728    1.111   .     S
C716   H730    1.103   .     S
C716   N745    1.443   .     S
C717   N746    1.442   .     S
C717   H733    1.104   .     S
C717   H734    1.111   .     S
C717   H732    1.111   .     S
C718   C722    1.414   .     A
C719   C723    1.391   .     A
C720   C721    1.392   .     A
C720   C233    1.421   1_556 S
C721   C722    1.387   .     A
C721   H736    1.084   .     S
C722   H742    1.082   .     S
C723   H738    1.078   .     S
C724   H779    1.082   .     S
H727   N745    1.012   .     S
H731   N746    1.012   .     S
H735   C869    1.088   .     S
H739   C766    1.082   .     S
N743   N744    1.286   .     D
N743   N745    1.382   .     S
N743   Zn756   2.049   .     S
N744   Zn755   2.049   .     S
N744   N746    1.382   .     S
O747   Zn755   1.960   .     S
O747   C757    1.291   .     S
O748   Zn756   1.975   .     S
O749   Zn755   1.955   .     S
O749   C760    1.308   .     S
O750   Zn756   1.902   .     S
O751   Zn755   1.975   .     S
O752   Zn756   1.960   .     S
O753   Zn755   1.902   .     S
O754   Zn756   1.955   .     S
C757   O802    1.299   .     A
C757   C759    1.403   .     S
C758   C772    1.411   .     A
C758   C760    1.459   .     S
C758   C766    1.401   .     A
C759   C869    1.335   .     S
C759   H942    1.088   .     S
C760   O804    1.308   .     A
C761   C762    1.403   .     S
C761   C489    1.335   1_655 S
C762   O805    1.299   .     A
C762   O698    1.291   1_655 S
C763   O807    1.307   .     A
C763   C765    1.450   .     S
C763   O700    1.306   1_655 S
C764   H791    1.084   .     S
C764   C774    1.404   .     A
C764   C292    1.393   1_556 S
C765   C777    1.389   .     A
C765   C778    1.399   .     A
C766   C281    1.387   1_556 S
C767   H795    1.083   .     S
C767   C769    1.391   .     A
C768   C772    1.409   .     A
C768   C283    1.420   1_556 S
C768   C287    1.416   1_556 S
C769   H794    1.078   .     S
C770   H783    1.110   .     S
C770   H782    1.111   .     S
C770   H784    1.103   .     S
C770   N799    1.443   .     S
C771   N800    1.442   .     S
C771   H787    1.104   .     S
C771   H788    1.111   .     S
C771   H786    1.111   .     S
C772   C776    1.414   .     A
C773   C777    1.391   .     A
C774   C775    1.392   .     A
C774   C287    1.421   1_556 S
C775   C776    1.387   .     A
C775   H790    1.084   .     S
C776   H796    1.082   .     S
C777   H792    1.078   .     S
C778   H671    1.082   1_655 S
H781   N799    1.012   .     S
H785   N800    1.012   .     S
H789   C923    1.088   .     S
H793   C658    1.082   1_655 S
N797   N798    1.286   .     D
N797   N799    1.382   .     S
N797   Zn810   2.049   .     S
N798   Zn809   2.049   .     S
N798   N800    1.382   .     S
O801   Zn809   1.960   .     S
O801   C649    1.291   1_655 S
O802   Zn810   1.975   .     S
O803   Zn809   1.955   .     S
O803   C652    1.308   1_655 S
O804   Zn810   1.902   .     S
O805   Zn809   1.975   .     S
O806   Zn810   1.960   .     S
O807   Zn809   1.902   .     S
O808   Zn810   1.955   .     S
C811   O856    1.299   .     A
C811   C813    1.403   .     S
C811   O963    1.291   1_455 S
C812   C826    1.411   .     A
C812   C814    1.459   .     S
C812   C820    1.401   .     A
C813   C599    1.335   1_465 S
C813   H510    1.088   1_565 S
C814   O858    1.308   .     A
C814   O965    1.308   1_455 S
C815   C816    1.403   .     S
C816   O859    1.299   .     A
C816   O914    1.291   .     S
C817   O861    1.307   .     A
C817   C819    1.450   .     S
C817   O916    1.306   .     S
C818   H845    1.084   .     S
C818   C828    1.404   .     A
C818   C346    1.393   1_556 S
C819   C831    1.389   .     A
C819   C832    1.399   .     A
C820   C335    1.387   1_556 S
C820   H955    1.082   1_455 S
C821   H849    1.083   .     S
C821   C823    1.391   .     A
C822   C826    1.409   .     A
C822   C337    1.420   1_556 S
C822   C341    1.416   1_556 S
C823   H848    1.078   .     S
C824   H837    1.110   .     S
C824   H836    1.111   .     S
C824   H838    1.103   .     S
C824   N853    1.443   .     S
C825   N854    1.442   .     S
C825   H841    1.104   .     S
C825   H842    1.111   .     S
C825   H840    1.111   .     S
C826   C830    1.414   .     A
C827   C831    1.391   .     A
C828   C829    1.392   .     A
C828   C341    1.421   1_556 S
C829   C830    1.387   .     A
C829   H844    1.084   .     S
C830   H850    1.082   .     S
C831   H846    1.078   .     S
C832   H887    1.082   .     S
H833   C940    1.082   1_455 S
H835   N853    1.012   .     S
H839   N854    1.012   .     S
H843   C491    1.088   1_565 S
H847   C874    1.082   .     S
N851   N852    1.286   .     D
N851   N853    1.382   .     S
N851   Zn864   2.049   .     S
N852   Zn863   2.049   .     S
N852   N854    1.382   .     S
O855   Zn863   1.960   .     S
O855   C865    1.291   .     S
O856   Zn864   1.975   .     S
O857   Zn863   1.955   .     S
O857   C868    1.308   .     S
O858   Zn864   1.902   .     S
O859   Zn863   1.975   .     S
O860   Zn864   1.960   .     S
O860   C924    1.291   1_455 S
O861   Zn863   1.902   .     S
O862   Zn864   1.955   .     S
O862   C925    1.306   1_455 S
C865   O910    1.299   .     A
C865   C867    1.403   .     S
C866   C880    1.411   .     A
C866   C868    1.459   .     S
C866   C874    1.401   .     A
C867   C491    1.335   1_565 S
C867   H564    1.088   1_565 S
C868   O912    1.308   .     A
C869   C870    1.403   .     S
C870   O913    1.299   .     A
C870   O968    1.291   .     S
C871   O915    1.307   .     A
C871   C873    1.450   .     S
C871   O970    1.306   .     S
C872   H899    1.084   .     S
C872   C882    1.404   .     A
C872   C400    1.393   1_556 S
C873   C885    1.389   .     A
C873   C886    1.399   .     A
C874   C389    1.387   1_556 S
C875   H903    1.083   .     S
C875   C877    1.391   .     A
C876   C880    1.409   .     A
C876   C391    1.420   1_556 S
C876   C395    1.416   1_556 S
C877   H902    1.078   .     S
C878   H891    1.110   .     S
C878   H890    1.111   .     S
C878   H892    1.103   .     S
C878   N907    1.443   .     S
C879   N908    1.442   .     S
C879   H895    1.104   .     S
C879   H896    1.111   .     S
C879   H894    1.111   .     S
C880   C884    1.414   .     A
C881   C885    1.391   .     A
C882   C883    1.392   .     A
C882   C395    1.421   1_556 S
C883   C884    1.387   .     A
C883   H898    1.084   .     S
C884   H904    1.082   .     S
C885   H900    1.078   .     S
C886   H941    1.082   .     S
H889   N907    1.012   .     S
H893   N908    1.012   .     S
H897   C545    1.088   1_565 S
H901   C928    1.082   .     S
N905   N906    1.286   .     D
N905   N907    1.382   .     S
N905   Zn918   2.049   .     S
N906   Zn917   2.049   .     S
N906   N908    1.382   .     S
O909   Zn917   1.960   .     S
O909   C919    1.291   .     S
O910   Zn918   1.975   .     S
O911   Zn917   1.955   .     S
O911   C922    1.308   .     S
O912   Zn918   1.902   .     S
O913   Zn917   1.975   .     S
O914   Zn918   1.960   .     S
O915   Zn917   1.902   .     S
O916   Zn918   1.955   .     S
C919   O964    1.299   .     A
C919   C921    1.403   .     S
C920   C934    1.411   .     A
C920   C922    1.459   .     S
C920   C928    1.401   .     A
C921   C545    1.335   1_565 S
C921   H618    1.088   1_565 S
C922   O966    1.308   .     A
C923   C924    1.403   .     S
C923   C651    1.335   1_655 S
C924   O967    1.299   .     A
C924   O860    1.291   1_655 S
C925   O969    1.307   .     A
C925   C927    1.450   .     S
C925   O862    1.306   1_655 S
C926   H953    1.084   .     S
C926   C936    1.404   .     A
C926   C454    1.393   1_556 S
C927   C939    1.389   .     A
C927   C940    1.399   .     A
C928   C443    1.387   1_556 S
C929   H957    1.083   .     S
C929   C931    1.391   .     A
C930   C934    1.409   .     A
C930   C445    1.420   1_556 S
C930   C449    1.416   1_556 S
C931   H956    1.078   .     S
C932   H945    1.110   .     S
C932   H944    1.111   .     S
C932   H946    1.103   .     S
C932   N961    1.443   .     S
C933   N962    1.442   .     S
C933   H949    1.104   .     S
C933   H950    1.111   .     S
C933   H948    1.111   .     S
C934   C938    1.414   .     A
C935   C939    1.391   .     A
C936   C937    1.392   .     A
C936   C449    1.421   1_556 S
C937   C938    1.387   .     A
C937   H952    1.084   .     S
C938   H958    1.082   .     S
C939   H954    1.078   .     S
C940   H833    1.082   1_655 S
H943   N961    1.012   .     S
H947   N962    1.012   .     S
H951   C599    1.088   1_565 S
H955   C820    1.082   1_655 S
N959   N960    1.286   .     D
N959   N961    1.382   .     S
N959   Zn972   2.049   .     S
N960   Zn971   2.049   .     S
N960   N962    1.382   .     S
O963   Zn971   1.960   .     S
O963   C811    1.291   1_655 S
O964   Zn972   1.975   .     S
O965   Zn971   1.955   .     S
O965   C814    1.308   1_655 S
O966   Zn972   1.902   .     S
O967   Zn971   1.975   .     S
O968   Zn972   1.960   .     S
O969   Zn971   1.902   .     S
O970   Zn972   1.955   .     S
