data_str_m3_o1_o10_pcu_sym.82
_audit_creation_date              2020-01-03
_audit_creation_method            'Materials Studio'
_symmetry_space_group_name_H-M    'P1'
_symmetry_Int_Tables_number       1
_symmetry_cell_setting            triclinic
loop_
_symmetry_equiv_pos_as_xyz
  x,y,z
_cell_length_a                    25.7820
_cell_length_b                    31.9419
_cell_length_c                    29.7851
_cell_angle_alpha                 90.4804
_cell_angle_beta                  99.1872
_cell_angle_gamma                 91.3942
loop_
_atom_site_label
_atom_site_type_symbol
_atom_site_fract_x
_atom_site_fract_y
_atom_site_fract_z
_atom_site_U_iso_or_equiv
_atom_site_adp_type
_atom_site_occupancy
C1     C     0.16777   0.08686   0.16670   0.00000  Uiso   1.00
C2     C     0.13188   0.02202   0.18892   0.00000  Uiso   1.00
C3     C     0.16447   0.29061   0.16634   0.00000  Uiso   1.00
C4     C     0.16886   0.04272   0.16699   0.00000  Uiso   1.00
C5     C     0.19870   0.19392   0.02950   0.00000  Uiso   1.00
C6     C     0.13463   0.13941   0.30383   0.00000  Uiso   1.00
C7     C     0.19891   0.19404   0.31479   0.00000  Uiso   1.00
C8     C     0.13442   0.13930   0.01854   0.00000  Uiso   1.00
C9     C     0.16556   0.24648   0.16663   0.00000  Uiso   1.00
C10    C     0.06707   0.16659   0.15463   0.00000  Uiso   1.00
C11    C     0.26626   0.16674   0.17870   0.00000  Uiso   1.00
C12    C     0.01185   0.16664   0.14831   0.00000  Uiso   1.00
C13    C     0.32148   0.16670   0.18503   0.00000  Uiso   1.00
C14    C     0.20476   0.02097   0.14506   0.00000  Uiso   1.00
C15    C     0.12857   0.31236   0.18828   0.00000  Uiso   1.00
C16    C     0.20145   0.31131   0.14442   0.00000  Uiso   1.00
H17    H     0.32423   0.16664   0.11358   0.00000  Uiso   1.00
H18    H     0.10176   0.11613   0.06706   0.00000  Uiso   1.00
H19    H     0.00911   0.16669   0.21975   0.00000  Uiso   1.00
H20    H     0.22910   0.29391   0.12812   0.00000  Uiso   1.00
H21    H     0.10423   0.03942   0.20521   0.00000  Uiso   1.00
H22    H     0.25071   0.06892   0.13728   0.00000  Uiso   1.00
H23    H     0.08263   0.26441   0.19605   0.00000  Uiso   1.00
H24    H     0.25204   0.23897   0.04215   0.00000  Uiso   1.00
H25    H     0.08129   0.09437   0.29118   0.00000  Uiso   1.00
H26    H     0.23157   0.21720   0.26627   0.00000  Uiso   1.00
N27    N     0.16665   0.16666   0.28573   0.00000  Uiso   1.00
N28    N     0.16668   0.16668   0.04760   0.00000  Uiso   1.00
O29    O     0.16666   0.10558   0.20487   0.00000  Uiso   1.00
O30    O     0.08936   0.29331   0.20816   0.00000  Uiso   1.00
O31    O     0.23054   0.22077   0.05908   0.00000  Uiso   1.00
O32    O     0.10280   0.11256   0.27426   0.00000  Uiso   1.00
O33    O     0.23230   0.22243   0.29873   0.00000  Uiso   1.00
O34    O     0.10103   0.11090   0.03460   0.00000  Uiso   1.00
O35    O     0.16667   0.22775   0.12846   0.00000  Uiso   1.00
O36    O     0.16666   0.10559   0.12843   0.00000  Uiso   1.00
O37    O     0.16667   0.22774   0.20490   0.00000  Uiso   1.00
O38    O     0.09058   0.16666   0.19595   0.00000  Uiso   1.00
O39    O     0.24275   0.16667   0.13739   0.00000  Uiso   1.00
O40    O     0.09058   0.16667   0.11950   0.00000  Uiso   1.00
O41    O     0.24275   0.16666   0.21383   0.00000  Uiso   1.00
O42    O     0.24397   0.04003   0.12517   0.00000  Uiso   1.00
Zn43   Zn    0.16667   0.16666   0.21771   0.00000  Uiso   1.00
Zn44   Zn    0.16667   0.16667   0.11563   0.00000  Uiso   1.00
C45    C     0.50110   0.08686   0.16670   0.00000  Uiso   1.00
C46    C     0.46522   0.02202   0.18892   0.00000  Uiso   1.00
C47    C     0.49780   0.29061   0.16634   0.00000  Uiso   1.00
C48    C     0.50220   0.04272   0.16699   0.00000  Uiso   1.00
C49    C     0.53203   0.19392   0.02950   0.00000  Uiso   1.00
C50    C     0.46797   0.13941   0.30383   0.00000  Uiso   1.00
C51    C     0.53225   0.19404   0.31479   0.00000  Uiso   1.00
C52    C     0.46775   0.13930   0.01854   0.00000  Uiso   1.00
C53    C     0.49889   0.24648   0.16663   0.00000  Uiso   1.00
C54    C     0.40040   0.16659   0.15463   0.00000  Uiso   1.00
C55    C     0.59960   0.16674   0.17870   0.00000  Uiso   1.00
C56    C     0.34519   0.16664   0.14831   0.00000  Uiso   1.00
C57    C     0.65481   0.16670   0.18503   0.00000  Uiso   1.00
C58    C     0.53809   0.02097   0.14506   0.00000  Uiso   1.00
C59    C     0.46191   0.31236   0.18828   0.00000  Uiso   1.00
C60    C     0.53478   0.31131   0.14442   0.00000  Uiso   1.00
H61    H     0.65756   0.16664   0.11358   0.00000  Uiso   1.00
H62    H     0.43509   0.11613   0.06706   0.00000  Uiso   1.00
H63    H     0.34244   0.16669   0.21975   0.00000  Uiso   1.00
H64    H     0.56243   0.29391   0.12812   0.00000  Uiso   1.00
H65    H     0.43757   0.03942   0.20521   0.00000  Uiso   1.00
H66    H     0.58404   0.06892   0.13728   0.00000  Uiso   1.00
H67    H     0.41596   0.26441   0.19605   0.00000  Uiso   1.00
H68    H     0.58537   0.23897   0.04215   0.00000  Uiso   1.00
H69    H     0.41463   0.09437   0.29118   0.00000  Uiso   1.00
H70    H     0.56490   0.21720   0.26627   0.00000  Uiso   1.00
N71    N     0.49999   0.16666   0.28573   0.00000  Uiso   1.00
N72    N     0.50001   0.16668   0.04760   0.00000  Uiso   1.00
O73    O     0.50000   0.10558   0.20487   0.00000  Uiso   1.00
O74    O     0.42270   0.29331   0.20816   0.00000  Uiso   1.00
O75    O     0.56387   0.22077   0.05908   0.00000  Uiso   1.00
O76    O     0.43613   0.11256   0.27426   0.00000  Uiso   1.00
O77    O     0.56564   0.22243   0.29873   0.00000  Uiso   1.00
O78    O     0.43436   0.11090   0.03460   0.00000  Uiso   1.00
O79    O     0.50000   0.22775   0.12846   0.00000  Uiso   1.00
O80    O     0.50000   0.10559   0.12843   0.00000  Uiso   1.00
O81    O     0.50000   0.22774   0.20490   0.00000  Uiso   1.00
O82    O     0.42392   0.16666   0.19595   0.00000  Uiso   1.00
O83    O     0.57608   0.16667   0.13739   0.00000  Uiso   1.00
O84    O     0.42392   0.16667   0.11950   0.00000  Uiso   1.00
O85    O     0.57608   0.16666   0.21383   0.00000  Uiso   1.00
O86    O     0.57730   0.04003   0.12517   0.00000  Uiso   1.00
Zn87   Zn    0.50000   0.16666   0.21771   0.00000  Uiso   1.00
Zn88   Zn    0.50000   0.16667   0.11563   0.00000  Uiso   1.00
C89    C     0.83444   0.08686   0.16670   0.00000  Uiso   1.00
C90    C     0.79855   0.02202   0.18892   0.00000  Uiso   1.00
C91    C     0.83114   0.29061   0.16634   0.00000  Uiso   1.00
C92    C     0.83553   0.04272   0.16699   0.00000  Uiso   1.00
C93    C     0.86537   0.19392   0.02950   0.00000  Uiso   1.00
C94    C     0.80130   0.13941   0.30383   0.00000  Uiso   1.00
C95    C     0.86558   0.19404   0.31479   0.00000  Uiso   1.00
C96    C     0.80109   0.13930   0.01854   0.00000  Uiso   1.00
C97    C     0.83223   0.24648   0.16663   0.00000  Uiso   1.00
C98    C     0.73374   0.16659   0.15463   0.00000  Uiso   1.00
C99    C     0.93293   0.16674   0.17870   0.00000  Uiso   1.00
C100   C     0.67852   0.16664   0.14831   0.00000  Uiso   1.00
C101   C     0.98814   0.16670   0.18503   0.00000  Uiso   1.00
C102   C     0.87143   0.02097   0.14506   0.00000  Uiso   1.00
C103   C     0.79524   0.31236   0.18828   0.00000  Uiso   1.00
C104   C     0.86812   0.31131   0.14442   0.00000  Uiso   1.00
H105   H     0.99089   0.16664   0.11358   0.00000  Uiso   1.00
H106   H     0.76843   0.11613   0.06706   0.00000  Uiso   1.00
H107   H     0.67577   0.16669   0.21975   0.00000  Uiso   1.00
H108   H     0.89577   0.29391   0.12812   0.00000  Uiso   1.00
H109   H     0.77090   0.03942   0.20521   0.00000  Uiso   1.00
H110   H     0.91737   0.06892   0.13728   0.00000  Uiso   1.00
H111   H     0.74929   0.26441   0.19605   0.00000  Uiso   1.00
H112   H     0.91871   0.23897   0.04215   0.00000  Uiso   1.00
H113   H     0.74796   0.09437   0.29118   0.00000  Uiso   1.00
H114   H     0.89824   0.21720   0.26627   0.00000  Uiso   1.00
N115   N     0.83332   0.16666   0.28573   0.00000  Uiso   1.00
N116   N     0.83335   0.16668   0.04760   0.00000  Uiso   1.00
O117   O     0.83333   0.10558   0.20487   0.00000  Uiso   1.00
O118   O     0.75603   0.29331   0.20816   0.00000  Uiso   1.00
O119   O     0.89720   0.22077   0.05908   0.00000  Uiso   1.00
O120   O     0.76946   0.11256   0.27426   0.00000  Uiso   1.00
O121   O     0.89897   0.22243   0.29873   0.00000  Uiso   1.00
O122   O     0.76770   0.11090   0.03460   0.00000  Uiso   1.00
O123   O     0.83334   0.22775   0.12846   0.00000  Uiso   1.00
O124   O     0.83333   0.10559   0.12843   0.00000  Uiso   1.00
O125   O     0.83334   0.22774   0.20490   0.00000  Uiso   1.00
O126   O     0.75725   0.16666   0.19595   0.00000  Uiso   1.00
O127   O     0.90942   0.16667   0.13739   0.00000  Uiso   1.00
O128   O     0.75725   0.16667   0.11950   0.00000  Uiso   1.00
O129   O     0.90942   0.16666   0.21383   0.00000  Uiso   1.00
O130   O     0.91064   0.04003   0.12517   0.00000  Uiso   1.00
Zn131  Zn    0.83333   0.16666   0.21771   0.00000  Uiso   1.00
Zn132  Zn    0.83333   0.16667   0.11563   0.00000  Uiso   1.00
C133   C     0.16777   0.42019   0.16670   0.00000  Uiso   1.00
C134   C     0.13188   0.35535   0.18892   0.00000  Uiso   1.00
C135   C     0.16447   0.62395   0.16634   0.00000  Uiso   1.00
C136   C     0.16886   0.37605   0.16699   0.00000  Uiso   1.00
C137   C     0.19870   0.52726   0.02950   0.00000  Uiso   1.00
C138   C     0.13463   0.47274   0.30383   0.00000  Uiso   1.00
C139   C     0.19891   0.52737   0.31479   0.00000  Uiso   1.00
C140   C     0.13442   0.47263   0.01854   0.00000  Uiso   1.00
C141   C     0.16556   0.57981   0.16663   0.00000  Uiso   1.00
C142   C     0.06707   0.49992   0.15463   0.00000  Uiso   1.00
C143   C     0.26626   0.50008   0.17870   0.00000  Uiso   1.00
C144   C     0.01185   0.49997   0.14831   0.00000  Uiso   1.00
C145   C     0.32148   0.50003   0.18503   0.00000  Uiso   1.00
C146   C     0.20476   0.35430   0.14506   0.00000  Uiso   1.00
C147   C     0.12857   0.64570   0.18828   0.00000  Uiso   1.00
C148   C     0.20145   0.64465   0.14442   0.00000  Uiso   1.00
H149   H     0.32423   0.49997   0.11358   0.00000  Uiso   1.00
H150   H     0.10176   0.44946   0.06706   0.00000  Uiso   1.00
H151   H     0.00911   0.50003   0.21975   0.00000  Uiso   1.00
H152   H     0.22910   0.62725   0.12812   0.00000  Uiso   1.00
H153   H     0.10423   0.37275   0.20521   0.00000  Uiso   1.00
H154   H     0.25071   0.40225   0.13728   0.00000  Uiso   1.00
H155   H     0.08263   0.59775   0.19605   0.00000  Uiso   1.00
H156   H     0.25204   0.57230   0.04215   0.00000  Uiso   1.00
H157   H     0.08129   0.42770   0.29118   0.00000  Uiso   1.00
H158   H     0.23157   0.55054   0.26627   0.00000  Uiso   1.00
N159   N     0.16665   0.49999   0.28573   0.00000  Uiso   1.00
N160   N     0.16668   0.50001   0.04760   0.00000  Uiso   1.00
O161   O     0.16666   0.43892   0.20487   0.00000  Uiso   1.00
O162   O     0.08936   0.62664   0.20816   0.00000  Uiso   1.00
O163   O     0.23054   0.55410   0.05908   0.00000  Uiso   1.00
O164   O     0.10280   0.44590   0.27426   0.00000  Uiso   1.00
O165   O     0.23230   0.55576   0.29873   0.00000  Uiso   1.00
O166   O     0.10103   0.44424   0.03460   0.00000  Uiso   1.00
O167   O     0.16667   0.56108   0.12846   0.00000  Uiso   1.00
O168   O     0.16666   0.43893   0.12843   0.00000  Uiso   1.00
O169   O     0.16667   0.56107   0.20490   0.00000  Uiso   1.00
O170   O     0.09058   0.50000   0.19595   0.00000  Uiso   1.00
O171   O     0.24275   0.50000   0.13739   0.00000  Uiso   1.00
O172   O     0.09058   0.50000   0.11950   0.00000  Uiso   1.00
O173   O     0.24275   0.50000   0.21383   0.00000  Uiso   1.00
O174   O     0.24397   0.37336   0.12517   0.00000  Uiso   1.00
Zn175  Zn    0.16667   0.49999   0.21771   0.00000  Uiso   1.00
Zn176  Zn    0.16667   0.50001   0.11563   0.00000  Uiso   1.00
C177   C     0.50110   0.42019   0.16670   0.00000  Uiso   1.00
C178   C     0.46522   0.35535   0.18892   0.00000  Uiso   1.00
C179   C     0.49780   0.62395   0.16634   0.00000  Uiso   1.00
C180   C     0.50220   0.37605   0.16699   0.00000  Uiso   1.00
C181   C     0.53203   0.52726   0.02950   0.00000  Uiso   1.00
C182   C     0.46797   0.47274   0.30383   0.00000  Uiso   1.00
C183   C     0.53225   0.52737   0.31479   0.00000  Uiso   1.00
C184   C     0.46775   0.47263   0.01854   0.00000  Uiso   1.00
C185   C     0.49889   0.57981   0.16663   0.00000  Uiso   1.00
C186   C     0.40040   0.49992   0.15463   0.00000  Uiso   1.00
C187   C     0.59960   0.50008   0.17870   0.00000  Uiso   1.00
C188   C     0.34519   0.49997   0.14831   0.00000  Uiso   1.00
C189   C     0.65481   0.50003   0.18503   0.00000  Uiso   1.00
C190   C     0.53809   0.35430   0.14506   0.00000  Uiso   1.00
C191   C     0.46191   0.64570   0.18828   0.00000  Uiso   1.00
C192   C     0.53478   0.64465   0.14442   0.00000  Uiso   1.00
H193   H     0.65756   0.49997   0.11358   0.00000  Uiso   1.00
H194   H     0.43509   0.44946   0.06706   0.00000  Uiso   1.00
H195   H     0.34244   0.50003   0.21975   0.00000  Uiso   1.00
H196   H     0.56243   0.62725   0.12812   0.00000  Uiso   1.00
H197   H     0.43757   0.37275   0.20521   0.00000  Uiso   1.00
H198   H     0.58404   0.40225   0.13728   0.00000  Uiso   1.00
H199   H     0.41596   0.59775   0.19605   0.00000  Uiso   1.00
H200   H     0.58537   0.57230   0.04215   0.00000  Uiso   1.00
H201   H     0.41463   0.42770   0.29118   0.00000  Uiso   1.00
H202   H     0.56490   0.55054   0.26627   0.00000  Uiso   1.00
N203   N     0.49999   0.49999   0.28573   0.00000  Uiso   1.00
N204   N     0.50001   0.50001   0.04760   0.00000  Uiso   1.00
O205   O     0.50000   0.43892   0.20487   0.00000  Uiso   1.00
O206   O     0.42270   0.62664   0.20816   0.00000  Uiso   1.00
O207   O     0.56387   0.55410   0.05908   0.00000  Uiso   1.00
O208   O     0.43613   0.44590   0.27426   0.00000  Uiso   1.00
O209   O     0.56564   0.55576   0.29873   0.00000  Uiso   1.00
O210   O     0.43436   0.44424   0.03460   0.00000  Uiso   1.00
O211   O     0.50000   0.56108   0.12846   0.00000  Uiso   1.00
O212   O     0.50000   0.43893   0.12843   0.00000  Uiso   1.00
O213   O     0.50000   0.56107   0.20490   0.00000  Uiso   1.00
O214   O     0.42392   0.50000   0.19595   0.00000  Uiso   1.00
O215   O     0.57608   0.50000   0.13739   0.00000  Uiso   1.00
O216   O     0.42392   0.50000   0.11950   0.00000  Uiso   1.00
O217   O     0.57608   0.50000   0.21383   0.00000  Uiso   1.00
O218   O     0.57730   0.37336   0.12517   0.00000  Uiso   1.00
Zn219  Zn    0.50000   0.49999   0.21771   0.00000  Uiso   1.00
Zn220  Zn    0.50000   0.50001   0.11563   0.00000  Uiso   1.00
C221   C     0.83444   0.42019   0.16670   0.00000  Uiso   1.00
C222   C     0.79855   0.35535   0.18892   0.00000  Uiso   1.00
C223   C     0.83114   0.62395   0.16634   0.00000  Uiso   1.00
C224   C     0.83553   0.37605   0.16699   0.00000  Uiso   1.00
C225   C     0.86537   0.52726   0.02950   0.00000  Uiso   1.00
C226   C     0.80130   0.47274   0.30383   0.00000  Uiso   1.00
C227   C     0.86558   0.52737   0.31479   0.00000  Uiso   1.00
C228   C     0.80109   0.47263   0.01854   0.00000  Uiso   1.00
C229   C     0.83223   0.57981   0.16663   0.00000  Uiso   1.00
C230   C     0.73374   0.49992   0.15463   0.00000  Uiso   1.00
C231   C     0.93293   0.50008   0.17870   0.00000  Uiso   1.00
C232   C     0.67852   0.49997   0.14831   0.00000  Uiso   1.00
C233   C     0.98814   0.50003   0.18503   0.00000  Uiso   1.00
C234   C     0.87143   0.35430   0.14506   0.00000  Uiso   1.00
C235   C     0.79524   0.64570   0.18828   0.00000  Uiso   1.00
C236   C     0.86812   0.64465   0.14442   0.00000  Uiso   1.00
H237   H     0.99089   0.49997   0.11358   0.00000  Uiso   1.00
H238   H     0.76843   0.44946   0.06706   0.00000  Uiso   1.00
H239   H     0.67577   0.50003   0.21975   0.00000  Uiso   1.00
H240   H     0.89577   0.62725   0.12812   0.00000  Uiso   1.00
H241   H     0.77090   0.37275   0.20521   0.00000  Uiso   1.00
H242   H     0.91737   0.40225   0.13728   0.00000  Uiso   1.00
H243   H     0.74929   0.59775   0.19605   0.00000  Uiso   1.00
H244   H     0.91871   0.57230   0.04215   0.00000  Uiso   1.00
H245   H     0.74796   0.42770   0.29118   0.00000  Uiso   1.00
H246   H     0.89824   0.55054   0.26627   0.00000  Uiso   1.00
N247   N     0.83332   0.49999   0.28573   0.00000  Uiso   1.00
N248   N     0.83335   0.50001   0.04760   0.00000  Uiso   1.00
O249   O     0.83333   0.43892   0.20487   0.00000  Uiso   1.00
O250   O     0.75603   0.62664   0.20816   0.00000  Uiso   1.00
O251   O     0.89720   0.55410   0.05908   0.00000  Uiso   1.00
O252   O     0.76946   0.44590   0.27426   0.00000  Uiso   1.00
O253   O     0.89897   0.55576   0.29873   0.00000  Uiso   1.00
O254   O     0.76770   0.44424   0.03460   0.00000  Uiso   1.00
O255   O     0.83334   0.56108   0.12846   0.00000  Uiso   1.00
O256   O     0.83333   0.43893   0.12843   0.00000  Uiso   1.00
O257   O     0.83334   0.56107   0.20490   0.00000  Uiso   1.00
O258   O     0.75725   0.50000   0.19595   0.00000  Uiso   1.00
O259   O     0.90942   0.50000   0.13739   0.00000  Uiso   1.00
O260   O     0.75725   0.50000   0.11950   0.00000  Uiso   1.00
O261   O     0.90942   0.50000   0.21383   0.00000  Uiso   1.00
O262   O     0.91064   0.37336   0.12517   0.00000  Uiso   1.00
Zn263  Zn    0.83333   0.49999   0.21771   0.00000  Uiso   1.00
Zn264  Zn    0.83333   0.50001   0.11563   0.00000  Uiso   1.00
C265   C     0.16777   0.75352   0.16670   0.00000  Uiso   1.00
C266   C     0.13188   0.68869   0.18892   0.00000  Uiso   1.00
C267   C     0.16447   0.95728   0.16634   0.00000  Uiso   1.00
C268   C     0.16886   0.70939   0.16699   0.00000  Uiso   1.00
C269   C     0.19870   0.86059   0.02950   0.00000  Uiso   1.00
C270   C     0.13463   0.80608   0.30383   0.00000  Uiso   1.00
C271   C     0.19891   0.86070   0.31479   0.00000  Uiso   1.00
C272   C     0.13442   0.80596   0.01854   0.00000  Uiso   1.00
C273   C     0.16556   0.91314   0.16663   0.00000  Uiso   1.00
C274   C     0.06707   0.83326   0.15463   0.00000  Uiso   1.00
C275   C     0.26626   0.83341   0.17870   0.00000  Uiso   1.00
C276   C     0.01185   0.83330   0.14831   0.00000  Uiso   1.00
C277   C     0.32148   0.83336   0.18503   0.00000  Uiso   1.00
C278   C     0.20476   0.68764   0.14506   0.00000  Uiso   1.00
C279   C     0.12857   0.97903   0.18828   0.00000  Uiso   1.00
C280   C     0.20145   0.97798   0.14442   0.00000  Uiso   1.00
H281   H     0.32423   0.83331   0.11358   0.00000  Uiso   1.00
H282   H     0.10176   0.78280   0.06706   0.00000  Uiso   1.00
H283   H     0.00911   0.83336   0.21975   0.00000  Uiso   1.00
H284   H     0.22910   0.96058   0.12812   0.00000  Uiso   1.00
H285   H     0.10423   0.70609   0.20521   0.00000  Uiso   1.00
H286   H     0.25071   0.73559   0.13728   0.00000  Uiso   1.00
H287   H     0.08263   0.93108   0.19605   0.00000  Uiso   1.00
H288   H     0.25204   0.90563   0.04215   0.00000  Uiso   1.00
H289   H     0.08129   0.76103   0.29118   0.00000  Uiso   1.00
H290   H     0.23157   0.88387   0.26627   0.00000  Uiso   1.00
N291   N     0.16665   0.83332   0.28573   0.00000  Uiso   1.00
N292   N     0.16668   0.83334   0.04760   0.00000  Uiso   1.00
O293   O     0.16666   0.77225   0.20487   0.00000  Uiso   1.00
O294   O     0.08936   0.95997   0.20816   0.00000  Uiso   1.00
O295   O     0.23054   0.88744   0.05908   0.00000  Uiso   1.00
O296   O     0.10280   0.77923   0.27426   0.00000  Uiso   1.00
O297   O     0.23230   0.88910   0.29873   0.00000  Uiso   1.00
O298   O     0.10103   0.77757   0.03460   0.00000  Uiso   1.00
O299   O     0.16667   0.89442   0.12846   0.00000  Uiso   1.00
O300   O     0.16666   0.77226   0.12843   0.00000  Uiso   1.00
O301   O     0.16667   0.89441   0.20490   0.00000  Uiso   1.00
O302   O     0.09058   0.83333   0.19595   0.00000  Uiso   1.00
O303   O     0.24275   0.83334   0.13739   0.00000  Uiso   1.00
O304   O     0.09058   0.83334   0.11950   0.00000  Uiso   1.00
O305   O     0.24275   0.83333   0.21383   0.00000  Uiso   1.00
O306   O     0.24397   0.70669   0.12517   0.00000  Uiso   1.00
Zn307  Zn    0.16667   0.83333   0.21771   0.00000  Uiso   1.00
Zn308  Zn    0.16667   0.83334   0.11563   0.00000  Uiso   1.00
C309   C     0.50110   0.75352   0.16670   0.00000  Uiso   1.00
C310   C     0.46522   0.68869   0.18892   0.00000  Uiso   1.00
C311   C     0.49780   0.95728   0.16634   0.00000  Uiso   1.00
C312   C     0.50220   0.70939   0.16699   0.00000  Uiso   1.00
C313   C     0.53203   0.86059   0.02950   0.00000  Uiso   1.00
C314   C     0.46797   0.80608   0.30383   0.00000  Uiso   1.00
C315   C     0.53225   0.86070   0.31479   0.00000  Uiso   1.00
C316   C     0.46775   0.80596   0.01854   0.00000  Uiso   1.00
C317   C     0.49889   0.91314   0.16663   0.00000  Uiso   1.00
C318   C     0.40040   0.83326   0.15463   0.00000  Uiso   1.00
C319   C     0.59960   0.83341   0.17870   0.00000  Uiso   1.00
C320   C     0.34519   0.83330   0.14831   0.00000  Uiso   1.00
C321   C     0.65481   0.83336   0.18503   0.00000  Uiso   1.00
C322   C     0.53809   0.68764   0.14506   0.00000  Uiso   1.00
C323   C     0.46191   0.97903   0.18828   0.00000  Uiso   1.00
C324   C     0.53478   0.97798   0.14442   0.00000  Uiso   1.00
H325   H     0.65756   0.83331   0.11358   0.00000  Uiso   1.00
H326   H     0.43509   0.78280   0.06706   0.00000  Uiso   1.00
H327   H     0.34244   0.83336   0.21975   0.00000  Uiso   1.00
H328   H     0.56243   0.96058   0.12812   0.00000  Uiso   1.00
H329   H     0.43757   0.70609   0.20521   0.00000  Uiso   1.00
H330   H     0.58404   0.73559   0.13728   0.00000  Uiso   1.00
H331   H     0.41596   0.93108   0.19605   0.00000  Uiso   1.00
H332   H     0.58537   0.90563   0.04215   0.00000  Uiso   1.00
H333   H     0.41463   0.76103   0.29118   0.00000  Uiso   1.00
H334   H     0.56490   0.88387   0.26627   0.00000  Uiso   1.00
N335   N     0.49999   0.83332   0.28573   0.00000  Uiso   1.00
N336   N     0.50001   0.83334   0.04760   0.00000  Uiso   1.00
O337   O     0.50000   0.77225   0.20487   0.00000  Uiso   1.00
O338   O     0.42270   0.95997   0.20816   0.00000  Uiso   1.00
O339   O     0.56387   0.88744   0.05908   0.00000  Uiso   1.00
O340   O     0.43613   0.77923   0.27426   0.00000  Uiso   1.00
O341   O     0.56564   0.88910   0.29873   0.00000  Uiso   1.00
O342   O     0.43436   0.77757   0.03460   0.00000  Uiso   1.00
O343   O     0.50000   0.89442   0.12846   0.00000  Uiso   1.00
O344   O     0.50000   0.77226   0.12843   0.00000  Uiso   1.00
O345   O     0.50000   0.89441   0.20490   0.00000  Uiso   1.00
O346   O     0.42392   0.83333   0.19595   0.00000  Uiso   1.00
O347   O     0.57608   0.83334   0.13739   0.00000  Uiso   1.00
O348   O     0.42392   0.83334   0.11950   0.00000  Uiso   1.00
O349   O     0.57608   0.83333   0.21383   0.00000  Uiso   1.00
O350   O     0.57730   0.70669   0.12517   0.00000  Uiso   1.00
Zn351  Zn    0.50000   0.83333   0.21771   0.00000  Uiso   1.00
Zn352  Zn    0.50000   0.83334   0.11563   0.00000  Uiso   1.00
C353   C     0.83444   0.75352   0.16670   0.00000  Uiso   1.00
C354   C     0.79855   0.68869   0.18892   0.00000  Uiso   1.00
C355   C     0.83114   0.95728   0.16634   0.00000  Uiso   1.00
C356   C     0.83553   0.70939   0.16699   0.00000  Uiso   1.00
C357   C     0.86537   0.86059   0.02950   0.00000  Uiso   1.00
C358   C     0.80130   0.80608   0.30383   0.00000  Uiso   1.00
C359   C     0.86558   0.86070   0.31479   0.00000  Uiso   1.00
C360   C     0.80109   0.80596   0.01854   0.00000  Uiso   1.00
C361   C     0.83223   0.91314   0.16663   0.00000  Uiso   1.00
C362   C     0.73374   0.83326   0.15463   0.00000  Uiso   1.00
C363   C     0.93293   0.83341   0.17870   0.00000  Uiso   1.00
C364   C     0.67852   0.83330   0.14831   0.00000  Uiso   1.00
C365   C     0.98814   0.83336   0.18503   0.00000  Uiso   1.00
C366   C     0.87143   0.68764   0.14506   0.00000  Uiso   1.00
C367   C     0.79524   0.97903   0.18828   0.00000  Uiso   1.00
C368   C     0.86812   0.97798   0.14442   0.00000  Uiso   1.00
H369   H     0.99089   0.83331   0.11358   0.00000  Uiso   1.00
H370   H     0.76843   0.78280   0.06706   0.00000  Uiso   1.00
H371   H     0.67577   0.83336   0.21975   0.00000  Uiso   1.00
H372   H     0.89577   0.96058   0.12812   0.00000  Uiso   1.00
H373   H     0.77090   0.70609   0.20521   0.00000  Uiso   1.00
H374   H     0.91737   0.73559   0.13728   0.00000  Uiso   1.00
H375   H     0.74929   0.93108   0.19605   0.00000  Uiso   1.00
H376   H     0.91871   0.90563   0.04215   0.00000  Uiso   1.00
H377   H     0.74796   0.76103   0.29118   0.00000  Uiso   1.00
H378   H     0.89824   0.88387   0.26627   0.00000  Uiso   1.00
N379   N     0.83332   0.83332   0.28573   0.00000  Uiso   1.00
N380   N     0.83335   0.83334   0.04760   0.00000  Uiso   1.00
O381   O     0.83333   0.77225   0.20487   0.00000  Uiso   1.00
O382   O     0.75603   0.95997   0.20816   0.00000  Uiso   1.00
O383   O     0.89720   0.88744   0.05908   0.00000  Uiso   1.00
O384   O     0.76946   0.77923   0.27426   0.00000  Uiso   1.00
O385   O     0.89897   0.88910   0.29873   0.00000  Uiso   1.00
O386   O     0.76770   0.77757   0.03460   0.00000  Uiso   1.00
O387   O     0.83334   0.89442   0.12846   0.00000  Uiso   1.00
O388   O     0.83333   0.77226   0.12843   0.00000  Uiso   1.00
O389   O     0.83334   0.89441   0.20490   0.00000  Uiso   1.00
O390   O     0.75725   0.83333   0.19595   0.00000  Uiso   1.00
O391   O     0.90942   0.83334   0.13739   0.00000  Uiso   1.00
O392   O     0.75725   0.83334   0.11950   0.00000  Uiso   1.00
O393   O     0.90942   0.83333   0.21383   0.00000  Uiso   1.00
O394   O     0.91064   0.70669   0.12517   0.00000  Uiso   1.00
Zn395  Zn    0.83333   0.83333   0.21771   0.00000  Uiso   1.00
Zn396  Zn    0.83333   0.83334   0.11563   0.00000  Uiso   1.00
C397   C     0.16777   0.08686   0.50003   0.00000  Uiso   1.00
C398   C     0.13188   0.02202   0.52225   0.00000  Uiso   1.00
C399   C     0.16447   0.29061   0.49968   0.00000  Uiso   1.00
C400   C     0.16886   0.04272   0.50032   0.00000  Uiso   1.00
C401   C     0.19870   0.19392   0.36283   0.00000  Uiso   1.00
C402   C     0.13463   0.13941   0.63717   0.00000  Uiso   1.00
C403   C     0.19891   0.19404   0.64813   0.00000  Uiso   1.00
C404   C     0.13442   0.13930   0.35187   0.00000  Uiso   1.00
C405   C     0.16556   0.24648   0.49997   0.00000  Uiso   1.00
C406   C     0.06707   0.16659   0.48797   0.00000  Uiso   1.00
C407   C     0.26626   0.16674   0.51203   0.00000  Uiso   1.00
C408   C     0.01185   0.16664   0.48164   0.00000  Uiso   1.00
C409   C     0.32148   0.16670   0.51836   0.00000  Uiso   1.00
C410   C     0.20476   0.02097   0.47839   0.00000  Uiso   1.00
C411   C     0.12857   0.31236   0.52161   0.00000  Uiso   1.00
C412   C     0.20145   0.31131   0.47775   0.00000  Uiso   1.00
H413   H     0.32423   0.16664   0.44692   0.00000  Uiso   1.00
H414   H     0.10176   0.11613   0.40039   0.00000  Uiso   1.00
H415   H     0.00911   0.16669   0.55308   0.00000  Uiso   1.00
H416   H     0.22910   0.29391   0.46145   0.00000  Uiso   1.00
H417   H     0.10423   0.03942   0.53854   0.00000  Uiso   1.00
H418   H     0.25071   0.06892   0.47062   0.00000  Uiso   1.00
H419   H     0.08263   0.26441   0.52938   0.00000  Uiso   1.00
H420   H     0.25204   0.23897   0.37548   0.00000  Uiso   1.00
H421   H     0.08129   0.09437   0.62452   0.00000  Uiso   1.00
H422   H     0.23157   0.21720   0.59961   0.00000  Uiso   1.00
N423   N     0.16665   0.16666   0.61907   0.00000  Uiso   1.00
N424   N     0.16668   0.16668   0.38093   0.00000  Uiso   1.00
O425   O     0.16666   0.10558   0.53821   0.00000  Uiso   1.00
O426   O     0.08936   0.29331   0.54149   0.00000  Uiso   1.00
O427   O     0.23054   0.22077   0.39241   0.00000  Uiso   1.00
O428   O     0.10280   0.11256   0.60759   0.00000  Uiso   1.00
O429   O     0.23230   0.22243   0.63206   0.00000  Uiso   1.00
O430   O     0.10103   0.11090   0.36794   0.00000  Uiso   1.00
O431   O     0.16667   0.22775   0.46179   0.00000  Uiso   1.00
O432   O     0.16666   0.10559   0.46176   0.00000  Uiso   1.00
O433   O     0.16667   0.22774   0.53824   0.00000  Uiso   1.00
O434   O     0.09058   0.16666   0.52928   0.00000  Uiso   1.00
O435   O     0.24275   0.16667   0.47072   0.00000  Uiso   1.00
O436   O     0.09058   0.16667   0.45284   0.00000  Uiso   1.00
O437   O     0.24275   0.16666   0.54716   0.00000  Uiso   1.00
O438   O     0.24397   0.04003   0.45851   0.00000  Uiso   1.00
Zn439  Zn    0.16667   0.16666   0.55104   0.00000  Uiso   1.00
Zn440  Zn    0.16667   0.16667   0.44896   0.00000  Uiso   1.00
C441   C     0.50110   0.08686   0.50003   0.00000  Uiso   1.00
C442   C     0.46522   0.02202   0.52225   0.00000  Uiso   1.00
C443   C     0.49780   0.29061   0.49968   0.00000  Uiso   1.00
C444   C     0.50220   0.04272   0.50032   0.00000  Uiso   1.00
C445   C     0.53203   0.19392   0.36283   0.00000  Uiso   1.00
C446   C     0.46797   0.13941   0.63717   0.00000  Uiso   1.00
C447   C     0.53225   0.19404   0.64813   0.00000  Uiso   1.00
C448   C     0.46775   0.13930   0.35187   0.00000  Uiso   1.00
C449   C     0.49889   0.24648   0.49997   0.00000  Uiso   1.00
C450   C     0.40040   0.16659   0.48797   0.00000  Uiso   1.00
C451   C     0.59960   0.16674   0.51203   0.00000  Uiso   1.00
C452   C     0.34519   0.16664   0.48164   0.00000  Uiso   1.00
C453   C     0.65481   0.16670   0.51836   0.00000  Uiso   1.00
C454   C     0.53809   0.02097   0.47839   0.00000  Uiso   1.00
C455   C     0.46191   0.31236   0.52161   0.00000  Uiso   1.00
C456   C     0.53478   0.31131   0.47775   0.00000  Uiso   1.00
H457   H     0.65756   0.16664   0.44692   0.00000  Uiso   1.00
H458   H     0.43509   0.11613   0.40039   0.00000  Uiso   1.00
H459   H     0.34244   0.16669   0.55308   0.00000  Uiso   1.00
H460   H     0.56243   0.29391   0.46145   0.00000  Uiso   1.00
H461   H     0.43757   0.03942   0.53854   0.00000  Uiso   1.00
H462   H     0.58404   0.06892   0.47062   0.00000  Uiso   1.00
H463   H     0.41596   0.26441   0.52938   0.00000  Uiso   1.00
H464   H     0.58537   0.23897   0.37548   0.00000  Uiso   1.00
H465   H     0.41463   0.09437   0.62452   0.00000  Uiso   1.00
H466   H     0.56490   0.21720   0.59961   0.00000  Uiso   1.00
N467   N     0.49999   0.16666   0.61907   0.00000  Uiso   1.00
N468   N     0.50001   0.16668   0.38093   0.00000  Uiso   1.00
O469   O     0.50000   0.10558   0.53821   0.00000  Uiso   1.00
O470   O     0.42270   0.29331   0.54149   0.00000  Uiso   1.00
O471   O     0.56387   0.22077   0.39241   0.00000  Uiso   1.00
O472   O     0.43613   0.11256   0.60759   0.00000  Uiso   1.00
O473   O     0.56564   0.22243   0.63206   0.00000  Uiso   1.00
O474   O     0.43436   0.11090   0.36794   0.00000  Uiso   1.00
O475   O     0.50000   0.22775   0.46179   0.00000  Uiso   1.00
O476   O     0.50000   0.10559   0.46176   0.00000  Uiso   1.00
O477   O     0.50000   0.22774   0.53824   0.00000  Uiso   1.00
O478   O     0.42392   0.16666   0.52928   0.00000  Uiso   1.00
O479   O     0.57608   0.16667   0.47072   0.00000  Uiso   1.00
O480   O     0.42392   0.16667   0.45284   0.00000  Uiso   1.00
O481   O     0.57608   0.16666   0.54716   0.00000  Uiso   1.00
O482   O     0.57730   0.04003   0.45851   0.00000  Uiso   1.00
Zn483  Zn    0.50000   0.16666   0.55104   0.00000  Uiso   1.00
Zn484  Zn    0.50000   0.16667   0.44896   0.00000  Uiso   1.00
C485   C     0.83444   0.08686   0.50003   0.00000  Uiso   1.00
C486   C     0.79855   0.02202   0.52225   0.00000  Uiso   1.00
C487   C     0.83114   0.29061   0.49968   0.00000  Uiso   1.00
C488   C     0.83553   0.04272   0.50032   0.00000  Uiso   1.00
C489   C     0.86537   0.19392   0.36283   0.00000  Uiso   1.00
C490   C     0.80130   0.13941   0.63717   0.00000  Uiso   1.00
C491   C     0.86558   0.19404   0.64813   0.00000  Uiso   1.00
C492   C     0.80109   0.13930   0.35187   0.00000  Uiso   1.00
C493   C     0.83223   0.24648   0.49997   0.00000  Uiso   1.00
C494   C     0.73374   0.16659   0.48797   0.00000  Uiso   1.00
C495   C     0.93293   0.16674   0.51203   0.00000  Uiso   1.00
C496   C     0.67852   0.16664   0.48164   0.00000  Uiso   1.00
C497   C     0.98814   0.16670   0.51836   0.00000  Uiso   1.00
C498   C     0.87143   0.02097   0.47839   0.00000  Uiso   1.00
C499   C     0.79524   0.31236   0.52161   0.00000  Uiso   1.00
C500   C     0.86812   0.31131   0.47775   0.00000  Uiso   1.00
H501   H     0.99089   0.16664   0.44692   0.00000  Uiso   1.00
H502   H     0.76843   0.11613   0.40039   0.00000  Uiso   1.00
H503   H     0.67577   0.16669   0.55308   0.00000  Uiso   1.00
H504   H     0.89577   0.29391   0.46145   0.00000  Uiso   1.00
H505   H     0.77090   0.03942   0.53854   0.00000  Uiso   1.00
H506   H     0.91737   0.06892   0.47062   0.00000  Uiso   1.00
H507   H     0.74929   0.26441   0.52938   0.00000  Uiso   1.00
H508   H     0.91871   0.23897   0.37548   0.00000  Uiso   1.00
H509   H     0.74796   0.09437   0.62452   0.00000  Uiso   1.00
H510   H     0.89824   0.21720   0.59961   0.00000  Uiso   1.00
N511   N     0.83332   0.16666   0.61907   0.00000  Uiso   1.00
N512   N     0.83335   0.16668   0.38093   0.00000  Uiso   1.00
O513   O     0.83333   0.10558   0.53821   0.00000  Uiso   1.00
O514   O     0.75603   0.29331   0.54149   0.00000  Uiso   1.00
O515   O     0.89720   0.22077   0.39241   0.00000  Uiso   1.00
O516   O     0.76946   0.11256   0.60759   0.00000  Uiso   1.00
O517   O     0.89897   0.22243   0.63206   0.00000  Uiso   1.00
O518   O     0.76770   0.11090   0.36794   0.00000  Uiso   1.00
O519   O     0.83334   0.22775   0.46179   0.00000  Uiso   1.00
O520   O     0.83333   0.10559   0.46176   0.00000  Uiso   1.00
O521   O     0.83334   0.22774   0.53824   0.00000  Uiso   1.00
O522   O     0.75725   0.16666   0.52928   0.00000  Uiso   1.00
O523   O     0.90942   0.16667   0.47072   0.00000  Uiso   1.00
O524   O     0.75725   0.16667   0.45284   0.00000  Uiso   1.00
O525   O     0.90942   0.16666   0.54716   0.00000  Uiso   1.00
O526   O     0.91064   0.04003   0.45851   0.00000  Uiso   1.00
Zn527  Zn    0.83333   0.16666   0.55104   0.00000  Uiso   1.00
Zn528  Zn    0.83333   0.16667   0.44896   0.00000  Uiso   1.00
C529   C     0.16777   0.42019   0.50003   0.00000  Uiso   1.00
C530   C     0.13188   0.35535   0.52225   0.00000  Uiso   1.00
C531   C     0.16447   0.62395   0.49968   0.00000  Uiso   1.00
C532   C     0.16886   0.37605   0.50032   0.00000  Uiso   1.00
C533   C     0.19870   0.52726   0.36283   0.00000  Uiso   1.00
C534   C     0.13463   0.47274   0.63717   0.00000  Uiso   1.00
C535   C     0.19891   0.52737   0.64813   0.00000  Uiso   1.00
C536   C     0.13442   0.47263   0.35187   0.00000  Uiso   1.00
C537   C     0.16556   0.57981   0.49997   0.00000  Uiso   1.00
C538   C     0.06707   0.49992   0.48797   0.00000  Uiso   1.00
C539   C     0.26626   0.50008   0.51203   0.00000  Uiso   1.00
C540   C     0.01185   0.49997   0.48164   0.00000  Uiso   1.00
C541   C     0.32148   0.50003   0.51836   0.00000  Uiso   1.00
C542   C     0.20476   0.35430   0.47839   0.00000  Uiso   1.00
C543   C     0.12857   0.64570   0.52161   0.00000  Uiso   1.00
C544   C     0.20145   0.64465   0.47775   0.00000  Uiso   1.00
H545   H     0.32423   0.49997   0.44692   0.00000  Uiso   1.00
H546   H     0.10176   0.44946   0.40039   0.00000  Uiso   1.00
H547   H     0.00911   0.50003   0.55308   0.00000  Uiso   1.00
H548   H     0.22910   0.62725   0.46145   0.00000  Uiso   1.00
H549   H     0.10423   0.37275   0.53854   0.00000  Uiso   1.00
H550   H     0.25071   0.40225   0.47062   0.00000  Uiso   1.00
H551   H     0.08263   0.59775   0.52938   0.00000  Uiso   1.00
H552   H     0.25204   0.57230   0.37548   0.00000  Uiso   1.00
H553   H     0.08129   0.42770   0.62452   0.00000  Uiso   1.00
H554   H     0.23157   0.55054   0.59961   0.00000  Uiso   1.00
N555   N     0.16665   0.49999   0.61907   0.00000  Uiso   1.00
N556   N     0.16668   0.50001   0.38093   0.00000  Uiso   1.00
O557   O     0.16666   0.43892   0.53821   0.00000  Uiso   1.00
O558   O     0.08936   0.62664   0.54149   0.00000  Uiso   1.00
O559   O     0.23054   0.55410   0.39241   0.00000  Uiso   1.00
O560   O     0.10280   0.44590   0.60759   0.00000  Uiso   1.00
O561   O     0.23230   0.55576   0.63206   0.00000  Uiso   1.00
O562   O     0.10103   0.44424   0.36794   0.00000  Uiso   1.00
O563   O     0.16667   0.56108   0.46179   0.00000  Uiso   1.00
O564   O     0.16666   0.43893   0.46176   0.00000  Uiso   1.00
O565   O     0.16667   0.56107   0.53824   0.00000  Uiso   1.00
O566   O     0.09058   0.50000   0.52928   0.00000  Uiso   1.00
O567   O     0.24275   0.50000   0.47072   0.00000  Uiso   1.00
O568   O     0.09058   0.50000   0.45284   0.00000  Uiso   1.00
O569   O     0.24275   0.50000   0.54716   0.00000  Uiso   1.00
O570   O     0.24397   0.37336   0.45851   0.00000  Uiso   1.00
Zn571  Zn    0.16667   0.49999   0.55104   0.00000  Uiso   1.00
Zn572  Zn    0.16667   0.50001   0.44896   0.00000  Uiso   1.00
C573   C     0.50110   0.42019   0.50003   0.00000  Uiso   1.00
C574   C     0.46522   0.35535   0.52225   0.00000  Uiso   1.00
C575   C     0.49780   0.62395   0.49968   0.00000  Uiso   1.00
C576   C     0.50220   0.37605   0.50032   0.00000  Uiso   1.00
C577   C     0.53203   0.52726   0.36283   0.00000  Uiso   1.00
C578   C     0.46797   0.47274   0.63717   0.00000  Uiso   1.00
C579   C     0.53225   0.52737   0.64813   0.00000  Uiso   1.00
C580   C     0.46775   0.47263   0.35187   0.00000  Uiso   1.00
C581   C     0.49889   0.57981   0.49997   0.00000  Uiso   1.00
C582   C     0.40040   0.49992   0.48797   0.00000  Uiso   1.00
C583   C     0.59960   0.50008   0.51203   0.00000  Uiso   1.00
C584   C     0.34519   0.49997   0.48164   0.00000  Uiso   1.00
C585   C     0.65481   0.50003   0.51836   0.00000  Uiso   1.00
C586   C     0.53809   0.35430   0.47839   0.00000  Uiso   1.00
C587   C     0.46191   0.64570   0.52161   0.00000  Uiso   1.00
C588   C     0.53478   0.64465   0.47775   0.00000  Uiso   1.00
H589   H     0.65756   0.49997   0.44692   0.00000  Uiso   1.00
H590   H     0.43509   0.44946   0.40039   0.00000  Uiso   1.00
H591   H     0.34244   0.50003   0.55308   0.00000  Uiso   1.00
H592   H     0.56243   0.62725   0.46145   0.00000  Uiso   1.00
H593   H     0.43757   0.37275   0.53854   0.00000  Uiso   1.00
H594   H     0.58404   0.40225   0.47062   0.00000  Uiso   1.00
H595   H     0.41596   0.59775   0.52938   0.00000  Uiso   1.00
H596   H     0.58537   0.57230   0.37548   0.00000  Uiso   1.00
H597   H     0.41463   0.42770   0.62452   0.00000  Uiso   1.00
H598   H     0.56490   0.55054   0.59961   0.00000  Uiso   1.00
N599   N     0.49999   0.49999   0.61907   0.00000  Uiso   1.00
N600   N     0.50001   0.50001   0.38093   0.00000  Uiso   1.00
O601   O     0.50000   0.43892   0.53821   0.00000  Uiso   1.00
O602   O     0.42270   0.62664   0.54149   0.00000  Uiso   1.00
O603   O     0.56387   0.55410   0.39241   0.00000  Uiso   1.00
O604   O     0.43613   0.44590   0.60759   0.00000  Uiso   1.00
O605   O     0.56564   0.55576   0.63206   0.00000  Uiso   1.00
O606   O     0.43436   0.44424   0.36794   0.00000  Uiso   1.00
O607   O     0.50000   0.56108   0.46179   0.00000  Uiso   1.00
O608   O     0.50000   0.43893   0.46176   0.00000  Uiso   1.00
O609   O     0.50000   0.56107   0.53824   0.00000  Uiso   1.00
O610   O     0.42392   0.50000   0.52928   0.00000  Uiso   1.00
O611   O     0.57608   0.50000   0.47072   0.00000  Uiso   1.00
O612   O     0.42392   0.50000   0.45284   0.00000  Uiso   1.00
O613   O     0.57608   0.50000   0.54716   0.00000  Uiso   1.00
O614   O     0.57730   0.37336   0.45851   0.00000  Uiso   1.00
Zn615  Zn    0.50000   0.49999   0.55104   0.00000  Uiso   1.00
Zn616  Zn    0.50000   0.50001   0.44896   0.00000  Uiso   1.00
C617   C     0.83444   0.42019   0.50003   0.00000  Uiso   1.00
C618   C     0.79855   0.35535   0.52225   0.00000  Uiso   1.00
C619   C     0.83114   0.62395   0.49968   0.00000  Uiso   1.00
C620   C     0.83553   0.37605   0.50032   0.00000  Uiso   1.00
C621   C     0.86537   0.52726   0.36283   0.00000  Uiso   1.00
C622   C     0.80130   0.47274   0.63717   0.00000  Uiso   1.00
C623   C     0.86558   0.52737   0.64813   0.00000  Uiso   1.00
C624   C     0.80109   0.47263   0.35187   0.00000  Uiso   1.00
C625   C     0.83223   0.57981   0.49997   0.00000  Uiso   1.00
C626   C     0.73374   0.49992   0.48797   0.00000  Uiso   1.00
C627   C     0.93293   0.50008   0.51203   0.00000  Uiso   1.00
C628   C     0.67852   0.49997   0.48164   0.00000  Uiso   1.00
C629   C     0.98814   0.50003   0.51836   0.00000  Uiso   1.00
C630   C     0.87143   0.35430   0.47839   0.00000  Uiso   1.00
C631   C     0.79524   0.64570   0.52161   0.00000  Uiso   1.00
C632   C     0.86812   0.64465   0.47775   0.00000  Uiso   1.00
H633   H     0.99089   0.49997   0.44692   0.00000  Uiso   1.00
H634   H     0.76843   0.44946   0.40039   0.00000  Uiso   1.00
H635   H     0.67577   0.50003   0.55308   0.00000  Uiso   1.00
H636   H     0.89577   0.62725   0.46145   0.00000  Uiso   1.00
H637   H     0.77090   0.37275   0.53854   0.00000  Uiso   1.00
H638   H     0.91737   0.40225   0.47062   0.00000  Uiso   1.00
H639   H     0.74929   0.59775   0.52938   0.00000  Uiso   1.00
H640   H     0.91871   0.57230   0.37548   0.00000  Uiso   1.00
H641   H     0.74796   0.42770   0.62452   0.00000  Uiso   1.00
H642   H     0.89824   0.55054   0.59961   0.00000  Uiso   1.00
N643   N     0.83332   0.49999   0.61907   0.00000  Uiso   1.00
N644   N     0.83335   0.50001   0.38093   0.00000  Uiso   1.00
O645   O     0.83333   0.43892   0.53821   0.00000  Uiso   1.00
O646   O     0.75603   0.62664   0.54149   0.00000  Uiso   1.00
O647   O     0.89720   0.55410   0.39241   0.00000  Uiso   1.00
O648   O     0.76946   0.44590   0.60759   0.00000  Uiso   1.00
O649   O     0.89897   0.55576   0.63206   0.00000  Uiso   1.00
O650   O     0.76770   0.44424   0.36794   0.00000  Uiso   1.00
O651   O     0.83334   0.56108   0.46179   0.00000  Uiso   1.00
O652   O     0.83333   0.43893   0.46176   0.00000  Uiso   1.00
O653   O     0.83334   0.56107   0.53824   0.00000  Uiso   1.00
O654   O     0.75725   0.50000   0.52928   0.00000  Uiso   1.00
O655   O     0.90942   0.50000   0.47072   0.00000  Uiso   1.00
O656   O     0.75725   0.50000   0.45284   0.00000  Uiso   1.00
O657   O     0.90942   0.50000   0.54716   0.00000  Uiso   1.00
O658   O     0.91064   0.37336   0.45851   0.00000  Uiso   1.00
Zn659  Zn    0.83333   0.49999   0.55104   0.00000  Uiso   1.00
Zn660  Zn    0.83333   0.50001   0.44896   0.00000  Uiso   1.00
C661   C     0.16777   0.75352   0.50003   0.00000  Uiso   1.00
C662   C     0.13188   0.68869   0.52225   0.00000  Uiso   1.00
C663   C     0.16447   0.95728   0.49968   0.00000  Uiso   1.00
C664   C     0.16886   0.70939   0.50032   0.00000  Uiso   1.00
C665   C     0.19870   0.86059   0.36283   0.00000  Uiso   1.00
C666   C     0.13463   0.80608   0.63717   0.00000  Uiso   1.00
C667   C     0.19891   0.86070   0.64813   0.00000  Uiso   1.00
C668   C     0.13442   0.80596   0.35187   0.00000  Uiso   1.00
C669   C     0.16556   0.91314   0.49997   0.00000  Uiso   1.00
C670   C     0.06707   0.83326   0.48797   0.00000  Uiso   1.00
C671   C     0.26626   0.83341   0.51203   0.00000  Uiso   1.00
C672   C     0.01185   0.83330   0.48164   0.00000  Uiso   1.00
C673   C     0.32148   0.83336   0.51836   0.00000  Uiso   1.00
C674   C     0.20476   0.68764   0.47839   0.00000  Uiso   1.00
C675   C     0.12857   0.97903   0.52161   0.00000  Uiso   1.00
C676   C     0.20145   0.97798   0.47775   0.00000  Uiso   1.00
H677   H     0.32423   0.83331   0.44692   0.00000  Uiso   1.00
H678   H     0.10176   0.78280   0.40039   0.00000  Uiso   1.00
H679   H     0.00911   0.83336   0.55308   0.00000  Uiso   1.00
H680   H     0.22910   0.96058   0.46145   0.00000  Uiso   1.00
H681   H     0.10423   0.70609   0.53854   0.00000  Uiso   1.00
H682   H     0.25071   0.73559   0.47062   0.00000  Uiso   1.00
H683   H     0.08263   0.93108   0.52938   0.00000  Uiso   1.00
H684   H     0.25204   0.90563   0.37548   0.00000  Uiso   1.00
H685   H     0.08129   0.76103   0.62452   0.00000  Uiso   1.00
H686   H     0.23157   0.88387   0.59961   0.00000  Uiso   1.00
N687   N     0.16665   0.83332   0.61907   0.00000  Uiso   1.00
N688   N     0.16668   0.83334   0.38093   0.00000  Uiso   1.00
O689   O     0.16666   0.77225   0.53821   0.00000  Uiso   1.00
O690   O     0.08936   0.95997   0.54149   0.00000  Uiso   1.00
O691   O     0.23054   0.88744   0.39241   0.00000  Uiso   1.00
O692   O     0.10280   0.77923   0.60759   0.00000  Uiso   1.00
O693   O     0.23230   0.88910   0.63206   0.00000  Uiso   1.00
O694   O     0.10103   0.77757   0.36794   0.00000  Uiso   1.00
O695   O     0.16667   0.89442   0.46179   0.00000  Uiso   1.00
O696   O     0.16666   0.77226   0.46176   0.00000  Uiso   1.00
O697   O     0.16667   0.89441   0.53824   0.00000  Uiso   1.00
O698   O     0.09058   0.83333   0.52928   0.00000  Uiso   1.00
O699   O     0.24275   0.83334   0.47072   0.00000  Uiso   1.00
O700   O     0.09058   0.83334   0.45284   0.00000  Uiso   1.00
O701   O     0.24275   0.83333   0.54716   0.00000  Uiso   1.00
O702   O     0.24397   0.70669   0.45851   0.00000  Uiso   1.00
Zn703  Zn    0.16667   0.83333   0.55104   0.00000  Uiso   1.00
Zn704  Zn    0.16667   0.83334   0.44896   0.00000  Uiso   1.00
C705   C     0.50110   0.75352   0.50003   0.00000  Uiso   1.00
C706   C     0.46522   0.68869   0.52225   0.00000  Uiso   1.00
C707   C     0.49780   0.95728   0.49968   0.00000  Uiso   1.00
C708   C     0.50220   0.70939   0.50032   0.00000  Uiso   1.00
C709   C     0.53203   0.86059   0.36283   0.00000  Uiso   1.00
C710   C     0.46797   0.80608   0.63717   0.00000  Uiso   1.00
C711   C     0.53225   0.86070   0.64813   0.00000  Uiso   1.00
C712   C     0.46775   0.80596   0.35187   0.00000  Uiso   1.00
C713   C     0.49889   0.91314   0.49997   0.00000  Uiso   1.00
C714   C     0.40040   0.83326   0.48797   0.00000  Uiso   1.00
C715   C     0.59960   0.83341   0.51203   0.00000  Uiso   1.00
C716   C     0.34519   0.83330   0.48164   0.00000  Uiso   1.00
C717   C     0.65481   0.83336   0.51836   0.00000  Uiso   1.00
C718   C     0.53809   0.68764   0.47839   0.00000  Uiso   1.00
C719   C     0.46191   0.97903   0.52161   0.00000  Uiso   1.00
C720   C     0.53478   0.97798   0.47775   0.00000  Uiso   1.00
H721   H     0.65756   0.83331   0.44692   0.00000  Uiso   1.00
H722   H     0.43509   0.78280   0.40039   0.00000  Uiso   1.00
H723   H     0.34244   0.83336   0.55308   0.00000  Uiso   1.00
H724   H     0.56243   0.96058   0.46145   0.00000  Uiso   1.00
H725   H     0.43757   0.70609   0.53854   0.00000  Uiso   1.00
H726   H     0.58404   0.73559   0.47062   0.00000  Uiso   1.00
H727   H     0.41596   0.93108   0.52938   0.00000  Uiso   1.00
H728   H     0.58537   0.90563   0.37548   0.00000  Uiso   1.00
H729   H     0.41463   0.76103   0.62452   0.00000  Uiso   1.00
H730   H     0.56490   0.88387   0.59961   0.00000  Uiso   1.00
N731   N     0.49999   0.83332   0.61907   0.00000  Uiso   1.00
N732   N     0.50001   0.83334   0.38093   0.00000  Uiso   1.00
O733   O     0.50000   0.77225   0.53821   0.00000  Uiso   1.00
O734   O     0.42270   0.95997   0.54149   0.00000  Uiso   1.00
O735   O     0.56387   0.88744   0.39241   0.00000  Uiso   1.00
O736   O     0.43613   0.77923   0.60759   0.00000  Uiso   1.00
O737   O     0.56564   0.88910   0.63206   0.00000  Uiso   1.00
O738   O     0.43436   0.77757   0.36794   0.00000  Uiso   1.00
O739   O     0.50000   0.89442   0.46179   0.00000  Uiso   1.00
O740   O     0.50000   0.77226   0.46176   0.00000  Uiso   1.00
O741   O     0.50000   0.89441   0.53824   0.00000  Uiso   1.00
O742   O     0.42392   0.83333   0.52928   0.00000  Uiso   1.00
O743   O     0.57608   0.83334   0.47072   0.00000  Uiso   1.00
O744   O     0.42392   0.83334   0.45284   0.00000  Uiso   1.00
O745   O     0.57608   0.83333   0.54716   0.00000  Uiso   1.00
O746   O     0.57730   0.70669   0.45851   0.00000  Uiso   1.00
Zn747  Zn    0.50000   0.83333   0.55104   0.00000  Uiso   1.00
Zn748  Zn    0.50000   0.83334   0.44896   0.00000  Uiso   1.00
C749   C     0.83444   0.75352   0.50003   0.00000  Uiso   1.00
C750   C     0.79855   0.68869   0.52225   0.00000  Uiso   1.00
C751   C     0.83114   0.95728   0.49968   0.00000  Uiso   1.00
C752   C     0.83553   0.70939   0.50032   0.00000  Uiso   1.00
C753   C     0.86537   0.86059   0.36283   0.00000  Uiso   1.00
C754   C     0.80130   0.80608   0.63717   0.00000  Uiso   1.00
C755   C     0.86558   0.86070   0.64813   0.00000  Uiso   1.00
C756   C     0.80109   0.80596   0.35187   0.00000  Uiso   1.00
C757   C     0.83223   0.91314   0.49997   0.00000  Uiso   1.00
C758   C     0.73374   0.83326   0.48797   0.00000  Uiso   1.00
C759   C     0.93293   0.83341   0.51203   0.00000  Uiso   1.00
C760   C     0.67852   0.83330   0.48164   0.00000  Uiso   1.00
C761   C     0.98814   0.83336   0.51836   0.00000  Uiso   1.00
C762   C     0.87143   0.68764   0.47839   0.00000  Uiso   1.00
C763   C     0.79524   0.97903   0.52161   0.00000  Uiso   1.00
C764   C     0.86812   0.97798   0.47775   0.00000  Uiso   1.00
H765   H     0.99089   0.83331   0.44692   0.00000  Uiso   1.00
H766   H     0.76843   0.78280   0.40039   0.00000  Uiso   1.00
H767   H     0.67577   0.83336   0.55308   0.00000  Uiso   1.00
H768   H     0.89577   0.96058   0.46145   0.00000  Uiso   1.00
H769   H     0.77090   0.70609   0.53854   0.00000  Uiso   1.00
H770   H     0.91737   0.73559   0.47062   0.00000  Uiso   1.00
H771   H     0.74929   0.93108   0.52938   0.00000  Uiso   1.00
H772   H     0.91871   0.90563   0.37548   0.00000  Uiso   1.00
H773   H     0.74796   0.76103   0.62452   0.00000  Uiso   1.00
H774   H     0.89824   0.88387   0.59961   0.00000  Uiso   1.00
N775   N     0.83332   0.83332   0.61907   0.00000  Uiso   1.00
N776   N     0.83335   0.83334   0.38093   0.00000  Uiso   1.00
O777   O     0.83333   0.77225   0.53821   0.00000  Uiso   1.00
O778   O     0.75603   0.95997   0.54149   0.00000  Uiso   1.00
O779   O     0.89720   0.88744   0.39241   0.00000  Uiso   1.00
O780   O     0.76946   0.77923   0.60759   0.00000  Uiso   1.00
O781   O     0.89897   0.88910   0.63206   0.00000  Uiso   1.00
O782   O     0.76770   0.77757   0.36794   0.00000  Uiso   1.00
O783   O     0.83334   0.89442   0.46179   0.00000  Uiso   1.00
O784   O     0.83333   0.77226   0.46176   0.00000  Uiso   1.00
O785   O     0.83334   0.89441   0.53824   0.00000  Uiso   1.00
O786   O     0.75725   0.83333   0.52928   0.00000  Uiso   1.00
O787   O     0.90942   0.83334   0.47072   0.00000  Uiso   1.00
O788   O     0.75725   0.83334   0.45284   0.00000  Uiso   1.00
O789   O     0.90942   0.83333   0.54716   0.00000  Uiso   1.00
O790   O     0.91064   0.70669   0.45851   0.00000  Uiso   1.00
Zn791  Zn    0.83333   0.83333   0.55104   0.00000  Uiso   1.00
Zn792  Zn    0.83333   0.83334   0.44896   0.00000  Uiso   1.00
C793   C     0.16777   0.08686   0.83337   0.00000  Uiso   1.00
C794   C     0.13188   0.02202   0.85558   0.00000  Uiso   1.00
C795   C     0.16447   0.29061   0.83301   0.00000  Uiso   1.00
C796   C     0.16886   0.04272   0.83366   0.00000  Uiso   1.00
C797   C     0.19870   0.19392   0.69616   0.00000  Uiso   1.00
C798   C     0.13463   0.13941   0.97050   0.00000  Uiso   1.00
C799   C     0.19891   0.19404   0.98146   0.00000  Uiso   1.00
C800   C     0.13442   0.13930   0.68521   0.00000  Uiso   1.00
C801   C     0.16556   0.24648   0.83330   0.00000  Uiso   1.00
C802   C     0.06707   0.16659   0.82130   0.00000  Uiso   1.00
C803   C     0.26626   0.16674   0.84537   0.00000  Uiso   1.00
C804   C     0.01185   0.16664   0.81497   0.00000  Uiso   1.00
C805   C     0.32148   0.16670   0.85169   0.00000  Uiso   1.00
C806   C     0.20476   0.02097   0.81172   0.00000  Uiso   1.00
C807   C     0.12857   0.31236   0.85494   0.00000  Uiso   1.00
C808   C     0.20145   0.31131   0.81108   0.00000  Uiso   1.00
H809   H     0.32423   0.16664   0.78025   0.00000  Uiso   1.00
H810   H     0.10176   0.11613   0.73373   0.00000  Uiso   1.00
H811   H     0.00911   0.16669   0.88642   0.00000  Uiso   1.00
H812   H     0.22910   0.29391   0.79479   0.00000  Uiso   1.00
H813   H     0.10423   0.03942   0.87188   0.00000  Uiso   1.00
H814   H     0.25071   0.06892   0.80395   0.00000  Uiso   1.00
H815   H     0.08263   0.26441   0.86272   0.00000  Uiso   1.00
H816   H     0.25204   0.23897   0.70882   0.00000  Uiso   1.00
H817   H     0.08129   0.09437   0.95785   0.00000  Uiso   1.00
H818   H     0.23157   0.21720   0.93294   0.00000  Uiso   1.00
N819   N     0.16665   0.16666   0.95240   0.00000  Uiso   1.00
N820   N     0.16668   0.16668   0.71427   0.00000  Uiso   1.00
O821   O     0.16666   0.10558   0.87154   0.00000  Uiso   1.00
O822   O     0.08936   0.29331   0.87483   0.00000  Uiso   1.00
O823   O     0.23054   0.22077   0.72574   0.00000  Uiso   1.00
O824   O     0.10280   0.11256   0.94092   0.00000  Uiso   1.00
O825   O     0.23230   0.22243   0.96540   0.00000  Uiso   1.00
O826   O     0.10103   0.11090   0.70127   0.00000  Uiso   1.00
O827   O     0.16667   0.22775   0.79513   0.00000  Uiso   1.00
O828   O     0.16666   0.10559   0.79510   0.00000  Uiso   1.00
O829   O     0.16667   0.22774   0.87157   0.00000  Uiso   1.00
O830   O     0.09058   0.16666   0.86261   0.00000  Uiso   1.00
O831   O     0.24275   0.16667   0.80405   0.00000  Uiso   1.00
O832   O     0.09058   0.16667   0.78617   0.00000  Uiso   1.00
O833   O     0.24275   0.16666   0.88050   0.00000  Uiso   1.00
O834   O     0.24397   0.04003   0.79184   0.00000  Uiso   1.00
Zn835  Zn    0.16667   0.16666   0.88437   0.00000  Uiso   1.00
Zn836  Zn    0.16667   0.16667   0.78229   0.00000  Uiso   1.00
C837   C     0.50110   0.08686   0.83337   0.00000  Uiso   1.00
C838   C     0.46522   0.02202   0.85558   0.00000  Uiso   1.00
C839   C     0.49780   0.29061   0.83301   0.00000  Uiso   1.00
C840   C     0.50220   0.04272   0.83366   0.00000  Uiso   1.00
C841   C     0.53203   0.19392   0.69616   0.00000  Uiso   1.00
C842   C     0.46797   0.13941   0.97050   0.00000  Uiso   1.00
C843   C     0.53225   0.19404   0.98146   0.00000  Uiso   1.00
C844   C     0.46775   0.13930   0.68521   0.00000  Uiso   1.00
C845   C     0.49889   0.24648   0.83330   0.00000  Uiso   1.00
C846   C     0.40040   0.16659   0.82130   0.00000  Uiso   1.00
C847   C     0.59960   0.16674   0.84537   0.00000  Uiso   1.00
C848   C     0.34519   0.16664   0.81497   0.00000  Uiso   1.00
C849   C     0.65481   0.16670   0.85169   0.00000  Uiso   1.00
C850   C     0.53809   0.02097   0.81172   0.00000  Uiso   1.00
C851   C     0.46191   0.31236   0.85494   0.00000  Uiso   1.00
C852   C     0.53478   0.31131   0.81108   0.00000  Uiso   1.00
H853   H     0.65756   0.16664   0.78025   0.00000  Uiso   1.00
H854   H     0.43509   0.11613   0.73373   0.00000  Uiso   1.00
H855   H     0.34244   0.16669   0.88642   0.00000  Uiso   1.00
H856   H     0.56243   0.29391   0.79479   0.00000  Uiso   1.00
H857   H     0.43757   0.03942   0.87188   0.00000  Uiso   1.00
H858   H     0.58404   0.06892   0.80395   0.00000  Uiso   1.00
H859   H     0.41596   0.26441   0.86272   0.00000  Uiso   1.00
H860   H     0.58537   0.23897   0.70882   0.00000  Uiso   1.00
H861   H     0.41463   0.09437   0.95785   0.00000  Uiso   1.00
H862   H     0.56490   0.21720   0.93294   0.00000  Uiso   1.00
N863   N     0.49999   0.16666   0.95240   0.00000  Uiso   1.00
N864   N     0.50001   0.16668   0.71427   0.00000  Uiso   1.00
O865   O     0.50000   0.10558   0.87154   0.00000  Uiso   1.00
O866   O     0.42270   0.29331   0.87483   0.00000  Uiso   1.00
O867   O     0.56387   0.22077   0.72574   0.00000  Uiso   1.00
O868   O     0.43613   0.11256   0.94092   0.00000  Uiso   1.00
O869   O     0.56564   0.22243   0.96540   0.00000  Uiso   1.00
O870   O     0.43436   0.11090   0.70127   0.00000  Uiso   1.00
O871   O     0.50000   0.22775   0.79513   0.00000  Uiso   1.00
O872   O     0.50000   0.10559   0.79510   0.00000  Uiso   1.00
O873   O     0.50000   0.22774   0.87157   0.00000  Uiso   1.00
O874   O     0.42392   0.16666   0.86261   0.00000  Uiso   1.00
O875   O     0.57608   0.16667   0.80405   0.00000  Uiso   1.00
O876   O     0.42392   0.16667   0.78617   0.00000  Uiso   1.00
O877   O     0.57608   0.16666   0.88050   0.00000  Uiso   1.00
O878   O     0.57730   0.04003   0.79184   0.00000  Uiso   1.00
Zn879  Zn    0.50000   0.16666   0.88437   0.00000  Uiso   1.00
Zn880  Zn    0.50000   0.16667   0.78229   0.00000  Uiso   1.00
C881   C     0.83444   0.08686   0.83337   0.00000  Uiso   1.00
C882   C     0.79855   0.02202   0.85558   0.00000  Uiso   1.00
C883   C     0.83114   0.29061   0.83301   0.00000  Uiso   1.00
C884   C     0.83553   0.04272   0.83366   0.00000  Uiso   1.00
C885   C     0.86537   0.19392   0.69616   0.00000  Uiso   1.00
C886   C     0.80130   0.13941   0.97050   0.00000  Uiso   1.00
C887   C     0.86558   0.19404   0.98146   0.00000  Uiso   1.00
C888   C     0.80109   0.13930   0.68521   0.00000  Uiso   1.00
C889   C     0.83223   0.24648   0.83330   0.00000  Uiso   1.00
C890   C     0.73374   0.16659   0.82130   0.00000  Uiso   1.00
C891   C     0.93293   0.16674   0.84537   0.00000  Uiso   1.00
C892   C     0.67852   0.16664   0.81497   0.00000  Uiso   1.00
C893   C     0.98814   0.16670   0.85169   0.00000  Uiso   1.00
C894   C     0.87143   0.02097   0.81172   0.00000  Uiso   1.00
C895   C     0.79524   0.31236   0.85494   0.00000  Uiso   1.00
C896   C     0.86812   0.31131   0.81108   0.00000  Uiso   1.00
H897   H     0.99089   0.16664   0.78025   0.00000  Uiso   1.00
H898   H     0.76843   0.11613   0.73373   0.00000  Uiso   1.00
H899   H     0.67577   0.16669   0.88642   0.00000  Uiso   1.00
H900   H     0.89577   0.29391   0.79479   0.00000  Uiso   1.00
H901   H     0.77090   0.03942   0.87188   0.00000  Uiso   1.00
H902   H     0.91737   0.06892   0.80395   0.00000  Uiso   1.00
H903   H     0.74929   0.26441   0.86272   0.00000  Uiso   1.00
H904   H     0.91871   0.23897   0.70882   0.00000  Uiso   1.00
H905   H     0.74796   0.09437   0.95785   0.00000  Uiso   1.00
H906   H     0.89824   0.21720   0.93294   0.00000  Uiso   1.00
N907   N     0.83332   0.16666   0.95240   0.00000  Uiso   1.00
N908   N     0.83335   0.16668   0.71427   0.00000  Uiso   1.00
O909   O     0.83333   0.10558   0.87154   0.00000  Uiso   1.00
O910   O     0.75603   0.29331   0.87483   0.00000  Uiso   1.00
O911   O     0.89720   0.22077   0.72574   0.00000  Uiso   1.00
O912   O     0.76946   0.11256   0.94092   0.00000  Uiso   1.00
O913   O     0.89897   0.22243   0.96540   0.00000  Uiso   1.00
O914   O     0.76770   0.11090   0.70127   0.00000  Uiso   1.00
O915   O     0.83334   0.22775   0.79513   0.00000  Uiso   1.00
O916   O     0.83333   0.10559   0.79510   0.00000  Uiso   1.00
O917   O     0.83334   0.22774   0.87157   0.00000  Uiso   1.00
O918   O     0.75725   0.16666   0.86261   0.00000  Uiso   1.00
O919   O     0.90942   0.16667   0.80405   0.00000  Uiso   1.00
O920   O     0.75725   0.16667   0.78617   0.00000  Uiso   1.00
O921   O     0.90942   0.16666   0.88050   0.00000  Uiso   1.00
O922   O     0.91064   0.04003   0.79184   0.00000  Uiso   1.00
Zn923  Zn    0.83333   0.16666   0.88437   0.00000  Uiso   1.00
Zn924  Zn    0.83333   0.16667   0.78229   0.00000  Uiso   1.00
C925   C     0.16777   0.42019   0.83337   0.00000  Uiso   1.00
C926   C     0.13188   0.35535   0.85558   0.00000  Uiso   1.00
C927   C     0.16447   0.62395   0.83301   0.00000  Uiso   1.00
C928   C     0.16886   0.37605   0.83366   0.00000  Uiso   1.00
C929   C     0.19870   0.52726   0.69616   0.00000  Uiso   1.00
C930   C     0.13463   0.47274   0.97050   0.00000  Uiso   1.00
C931   C     0.19891   0.52737   0.98146   0.00000  Uiso   1.00
C932   C     0.13442   0.47263   0.68521   0.00000  Uiso   1.00
C933   C     0.16556   0.57981   0.83330   0.00000  Uiso   1.00
C934   C     0.06707   0.49992   0.82130   0.00000  Uiso   1.00
C935   C     0.26626   0.50008   0.84537   0.00000  Uiso   1.00
C936   C     0.01185   0.49997   0.81497   0.00000  Uiso   1.00
C937   C     0.32148   0.50003   0.85169   0.00000  Uiso   1.00
C938   C     0.20476   0.35430   0.81172   0.00000  Uiso   1.00
C939   C     0.12857   0.64570   0.85494   0.00000  Uiso   1.00
C940   C     0.20145   0.64465   0.81108   0.00000  Uiso   1.00
H941   H     0.32423   0.49997   0.78025   0.00000  Uiso   1.00
H942   H     0.10176   0.44946   0.73373   0.00000  Uiso   1.00
H943   H     0.00911   0.50003   0.88642   0.00000  Uiso   1.00
H944   H     0.22910   0.62725   0.79479   0.00000  Uiso   1.00
H945   H     0.10423   0.37275   0.87188   0.00000  Uiso   1.00
H946   H     0.25071   0.40225   0.80395   0.00000  Uiso   1.00
H947   H     0.08263   0.59775   0.86272   0.00000  Uiso   1.00
H948   H     0.25204   0.57230   0.70882   0.00000  Uiso   1.00
H949   H     0.08129   0.42770   0.95785   0.00000  Uiso   1.00
H950   H     0.23157   0.55054   0.93294   0.00000  Uiso   1.00
N951   N     0.16665   0.49999   0.95240   0.00000  Uiso   1.00
N952   N     0.16668   0.50001   0.71427   0.00000  Uiso   1.00
O953   O     0.16666   0.43892   0.87154   0.00000  Uiso   1.00
O954   O     0.08936   0.62664   0.87483   0.00000  Uiso   1.00
O955   O     0.23054   0.55410   0.72574   0.00000  Uiso   1.00
O956   O     0.10280   0.44590   0.94092   0.00000  Uiso   1.00
O957   O     0.23230   0.55576   0.96540   0.00000  Uiso   1.00
O958   O     0.10103   0.44424   0.70127   0.00000  Uiso   1.00
O959   O     0.16667   0.56108   0.79513   0.00000  Uiso   1.00
O960   O     0.16666   0.43893   0.79510   0.00000  Uiso   1.00
O961   O     0.16667   0.56107   0.87157   0.00000  Uiso   1.00
O962   O     0.09058   0.50000   0.86261   0.00000  Uiso   1.00
O963   O     0.24275   0.50000   0.80405   0.00000  Uiso   1.00
O964   O     0.09058   0.50000   0.78617   0.00000  Uiso   1.00
O965   O     0.24275   0.50000   0.88050   0.00000  Uiso   1.00
O966   O     0.24397   0.37336   0.79184   0.00000  Uiso   1.00
Zn967  Zn    0.16667   0.49999   0.88437   0.00000  Uiso   1.00
Zn968  Zn    0.16667   0.50001   0.78229   0.00000  Uiso   1.00
C969   C     0.50110   0.42019   0.83337   0.00000  Uiso   1.00
C970   C     0.46522   0.35535   0.85558   0.00000  Uiso   1.00
C971   C     0.49780   0.62395   0.83301   0.00000  Uiso   1.00
C972   C     0.50220   0.37605   0.83366   0.00000  Uiso   1.00
C973   C     0.53203   0.52726   0.69616   0.00000  Uiso   1.00
C974   C     0.46797   0.47274   0.97050   0.00000  Uiso   1.00
C975   C     0.53225   0.52737   0.98146   0.00000  Uiso   1.00
C976   C     0.46775   0.47263   0.68521   0.00000  Uiso   1.00
C977   C     0.49889   0.57981   0.83330   0.00000  Uiso   1.00
C978   C     0.40040   0.49992   0.82130   0.00000  Uiso   1.00
C979   C     0.59960   0.50008   0.84537   0.00000  Uiso   1.00
C980   C     0.34519   0.49997   0.81497   0.00000  Uiso   1.00
C981   C     0.65481   0.50003   0.85169   0.00000  Uiso   1.00
C982   C     0.53809   0.35430   0.81172   0.00000  Uiso   1.00
C983   C     0.46191   0.64570   0.85494   0.00000  Uiso   1.00
C984   C     0.53478   0.64465   0.81108   0.00000  Uiso   1.00
H985   H     0.65756   0.49997   0.78025   0.00000  Uiso   1.00
H986   H     0.43509   0.44946   0.73373   0.00000  Uiso   1.00
H987   H     0.34244   0.50003   0.88642   0.00000  Uiso   1.00
H988   H     0.56243   0.62725   0.79479   0.00000  Uiso   1.00
H989   H     0.43757   0.37275   0.87188   0.00000  Uiso   1.00
H990   H     0.58404   0.40225   0.80395   0.00000  Uiso   1.00
H991   H     0.41596   0.59775   0.86272   0.00000  Uiso   1.00
H992   H     0.58537   0.57230   0.70882   0.00000  Uiso   1.00
H993   H     0.41463   0.42770   0.95785   0.00000  Uiso   1.00
H994   H     0.56490   0.55054   0.93294   0.00000  Uiso   1.00
N995   N     0.49999   0.49999   0.95240   0.00000  Uiso   1.00
N996   N     0.50001   0.50001   0.71427   0.00000  Uiso   1.00
O997   O     0.50000   0.43892   0.87154   0.00000  Uiso   1.00
O998   O     0.42270   0.62664   0.87483   0.00000  Uiso   1.00
O999   O     0.56387   0.55410   0.72574   0.00000  Uiso   1.00
O1000  O     0.43613   0.44590   0.94092   0.00000  Uiso   1.00
O1001  O     0.56564   0.55576   0.96540   0.00000  Uiso   1.00
O1002  O     0.43436   0.44424   0.70127   0.00000  Uiso   1.00
O1003  O     0.50000   0.56108   0.79513   0.00000  Uiso   1.00
O1004  O     0.50000   0.43893   0.79510   0.00000  Uiso   1.00
O1005  O     0.50000   0.56107   0.87157   0.00000  Uiso   1.00
O1006  O     0.42392   0.50000   0.86261   0.00000  Uiso   1.00
O1007  O     0.57608   0.50000   0.80405   0.00000  Uiso   1.00
O1008  O     0.42392   0.50000   0.78617   0.00000  Uiso   1.00
O1009  O     0.57608   0.50000   0.88050   0.00000  Uiso   1.00
O1010  O     0.57730   0.37336   0.79184   0.00000  Uiso   1.00
Zn1011 Zn    0.50000   0.49999   0.88437   0.00000  Uiso   1.00
Zn1012 Zn    0.50000   0.50001   0.78229   0.00000  Uiso   1.00
C1013  C     0.83444   0.42019   0.83337   0.00000  Uiso   1.00
C1014  C     0.79855   0.35535   0.85558   0.00000  Uiso   1.00
C1015  C     0.83114   0.62395   0.83301   0.00000  Uiso   1.00
C1016  C     0.83553   0.37605   0.83366   0.00000  Uiso   1.00
C1017  C     0.86537   0.52726   0.69616   0.00000  Uiso   1.00
C1018  C     0.80130   0.47274   0.97050   0.00000  Uiso   1.00
C1019  C     0.86558   0.52737   0.98146   0.00000  Uiso   1.00
C1020  C     0.80109   0.47263   0.68521   0.00000  Uiso   1.00
C1021  C     0.83223   0.57981   0.83330   0.00000  Uiso   1.00
C1022  C     0.73374   0.49992   0.82130   0.00000  Uiso   1.00
C1023  C     0.93293   0.50008   0.84537   0.00000  Uiso   1.00
C1024  C     0.67852   0.49997   0.81497   0.00000  Uiso   1.00
C1025  C     0.98814   0.50003   0.85169   0.00000  Uiso   1.00
C1026  C     0.87143   0.35430   0.81172   0.00000  Uiso   1.00
C1027  C     0.79524   0.64570   0.85494   0.00000  Uiso   1.00
C1028  C     0.86812   0.64465   0.81108   0.00000  Uiso   1.00
H1029  H     0.99089   0.49997   0.78025   0.00000  Uiso   1.00
H1030  H     0.76843   0.44946   0.73373   0.00000  Uiso   1.00
H1031  H     0.67577   0.50003   0.88642   0.00000  Uiso   1.00
H1032  H     0.89577   0.62725   0.79479   0.00000  Uiso   1.00
H1033  H     0.77090   0.37275   0.87188   0.00000  Uiso   1.00
H1034  H     0.91737   0.40225   0.80395   0.00000  Uiso   1.00
H1035  H     0.74929   0.59775   0.86272   0.00000  Uiso   1.00
H1036  H     0.91871   0.57230   0.70882   0.00000  Uiso   1.00
H1037  H     0.74796   0.42770   0.95785   0.00000  Uiso   1.00
H1038  H     0.89824   0.55054   0.93294   0.00000  Uiso   1.00
N1039  N     0.83332   0.49999   0.95240   0.00000  Uiso   1.00
N1040  N     0.83335   0.50001   0.71427   0.00000  Uiso   1.00
O1041  O     0.83333   0.43892   0.87154   0.00000  Uiso   1.00
O1042  O     0.75603   0.62664   0.87483   0.00000  Uiso   1.00
O1043  O     0.89720   0.55410   0.72574   0.00000  Uiso   1.00
O1044  O     0.76946   0.44590   0.94092   0.00000  Uiso   1.00
O1045  O     0.89897   0.55576   0.96540   0.00000  Uiso   1.00
O1046  O     0.76770   0.44424   0.70127   0.00000  Uiso   1.00
O1047  O     0.83334   0.56108   0.79513   0.00000  Uiso   1.00
O1048  O     0.83333   0.43893   0.79510   0.00000  Uiso   1.00
O1049  O     0.83334   0.56107   0.87157   0.00000  Uiso   1.00
O1050  O     0.75725   0.50000   0.86261   0.00000  Uiso   1.00
O1051  O     0.90942   0.50000   0.80405   0.00000  Uiso   1.00
O1052  O     0.75725   0.50000   0.78617   0.00000  Uiso   1.00
O1053  O     0.90942   0.50000   0.88050   0.00000  Uiso   1.00
O1054  O     0.91064   0.37336   0.79184   0.00000  Uiso   1.00
Zn1055 Zn    0.83333   0.49999   0.88437   0.00000  Uiso   1.00
Zn1056 Zn    0.83333   0.50001   0.78229   0.00000  Uiso   1.00
C1057  C     0.16777   0.75352   0.83337   0.00000  Uiso   1.00
C1058  C     0.13188   0.68869   0.85558   0.00000  Uiso   1.00
C1059  C     0.16447   0.95728   0.83301   0.00000  Uiso   1.00
C1060  C     0.16886   0.70939   0.83366   0.00000  Uiso   1.00
C1061  C     0.19870   0.86059   0.69616   0.00000  Uiso   1.00
C1062  C     0.13463   0.80608   0.97050   0.00000  Uiso   1.00
C1063  C     0.19891   0.86070   0.98146   0.00000  Uiso   1.00
C1064  C     0.13442   0.80596   0.68521   0.00000  Uiso   1.00
C1065  C     0.16556   0.91314   0.83330   0.00000  Uiso   1.00
C1066  C     0.06707   0.83326   0.82130   0.00000  Uiso   1.00
C1067  C     0.26626   0.83341   0.84537   0.00000  Uiso   1.00
C1068  C     0.01185   0.83330   0.81497   0.00000  Uiso   1.00
C1069  C     0.32148   0.83336   0.85169   0.00000  Uiso   1.00
C1070  C     0.20476   0.68764   0.81172   0.00000  Uiso   1.00
C1071  C     0.12857   0.97903   0.85494   0.00000  Uiso   1.00
C1072  C     0.20145   0.97798   0.81108   0.00000  Uiso   1.00
H1073  H     0.32423   0.83331   0.78025   0.00000  Uiso   1.00
H1074  H     0.10176   0.78280   0.73373   0.00000  Uiso   1.00
H1075  H     0.00911   0.83336   0.88642   0.00000  Uiso   1.00
H1076  H     0.22910   0.96058   0.79479   0.00000  Uiso   1.00
H1077  H     0.10423   0.70609   0.87188   0.00000  Uiso   1.00
H1078  H     0.25071   0.73559   0.80395   0.00000  Uiso   1.00
H1079  H     0.08263   0.93108   0.86272   0.00000  Uiso   1.00
H1080  H     0.25204   0.90563   0.70882   0.00000  Uiso   1.00
H1081  H     0.08129   0.76103   0.95785   0.00000  Uiso   1.00
H1082  H     0.23157   0.88387   0.93294   0.00000  Uiso   1.00
N1083  N     0.16665   0.83332   0.95240   0.00000  Uiso   1.00
N1084  N     0.16668   0.83334   0.71427   0.00000  Uiso   1.00
O1085  O     0.16666   0.77225   0.87154   0.00000  Uiso   1.00
O1086  O     0.08936   0.95997   0.87483   0.00000  Uiso   1.00
O1087  O     0.23054   0.88744   0.72574   0.00000  Uiso   1.00
O1088  O     0.10280   0.77923   0.94092   0.00000  Uiso   1.00
O1089  O     0.23230   0.88910   0.96540   0.00000  Uiso   1.00
O1090  O     0.10103   0.77757   0.70127   0.00000  Uiso   1.00
O1091  O     0.16667   0.89442   0.79513   0.00000  Uiso   1.00
O1092  O     0.16666   0.77226   0.79510   0.00000  Uiso   1.00
O1093  O     0.16667   0.89441   0.87157   0.00000  Uiso   1.00
O1094  O     0.09058   0.83333   0.86261   0.00000  Uiso   1.00
O1095  O     0.24275   0.83334   0.80405   0.00000  Uiso   1.00
O1096  O     0.09058   0.83334   0.78617   0.00000  Uiso   1.00
O1097  O     0.24275   0.83333   0.88050   0.00000  Uiso   1.00
O1098  O     0.24397   0.70669   0.79184   0.00000  Uiso   1.00
Zn1099 Zn    0.16667   0.83333   0.88437   0.00000  Uiso   1.00
Zn1100 Zn    0.16667   0.83334   0.78229   0.00000  Uiso   1.00
C1101  C     0.50110   0.75352   0.83337   0.00000  Uiso   1.00
C1102  C     0.46522   0.68869   0.85558   0.00000  Uiso   1.00
C1103  C     0.49780   0.95728   0.83301   0.00000  Uiso   1.00
C1104  C     0.50220   0.70939   0.83366   0.00000  Uiso   1.00
C1105  C     0.53203   0.86059   0.69616   0.00000  Uiso   1.00
C1106  C     0.46797   0.80608   0.97050   0.00000  Uiso   1.00
C1107  C     0.53225   0.86070   0.98146   0.00000  Uiso   1.00
C1108  C     0.46775   0.80596   0.68521   0.00000  Uiso   1.00
C1109  C     0.49889   0.91314   0.83330   0.00000  Uiso   1.00
C1110  C     0.40040   0.83326   0.82130   0.00000  Uiso   1.00
C1111  C     0.59960   0.83341   0.84537   0.00000  Uiso   1.00
C1112  C     0.34519   0.83330   0.81497   0.00000  Uiso   1.00
C1113  C     0.65481   0.83336   0.85169   0.00000  Uiso   1.00
C1114  C     0.53809   0.68764   0.81172   0.00000  Uiso   1.00
C1115  C     0.46191   0.97903   0.85494   0.00000  Uiso   1.00
C1116  C     0.53478   0.97798   0.81108   0.00000  Uiso   1.00
H1117  H     0.65756   0.83331   0.78025   0.00000  Uiso   1.00
H1118  H     0.43509   0.78280   0.73373   0.00000  Uiso   1.00
H1119  H     0.34244   0.83336   0.88642   0.00000  Uiso   1.00
H1120  H     0.56243   0.96058   0.79479   0.00000  Uiso   1.00
H1121  H     0.43757   0.70609   0.87188   0.00000  Uiso   1.00
H1122  H     0.58404   0.73559   0.80395   0.00000  Uiso   1.00
H1123  H     0.41596   0.93108   0.86272   0.00000  Uiso   1.00
H1124  H     0.58537   0.90563   0.70882   0.00000  Uiso   1.00
H1125  H     0.41463   0.76103   0.95785   0.00000  Uiso   1.00
H1126  H     0.56490   0.88387   0.93294   0.00000  Uiso   1.00
N1127  N     0.49999   0.83332   0.95240   0.00000  Uiso   1.00
N1128  N     0.50001   0.83334   0.71427   0.00000  Uiso   1.00
O1129  O     0.50000   0.77225   0.87154   0.00000  Uiso   1.00
O1130  O     0.42270   0.95997   0.87483   0.00000  Uiso   1.00
O1131  O     0.56387   0.88744   0.72574   0.00000  Uiso   1.00
O1132  O     0.43613   0.77923   0.94092   0.00000  Uiso   1.00
O1133  O     0.56564   0.88910   0.96540   0.00000  Uiso   1.00
O1134  O     0.43436   0.77757   0.70127   0.00000  Uiso   1.00
O1135  O     0.50000   0.89442   0.79513   0.00000  Uiso   1.00
O1136  O     0.50000   0.77226   0.79510   0.00000  Uiso   1.00
O1137  O     0.50000   0.89441   0.87157   0.00000  Uiso   1.00
O1138  O     0.42392   0.83333   0.86261   0.00000  Uiso   1.00
O1139  O     0.57608   0.83334   0.80405   0.00000  Uiso   1.00
O1140  O     0.42392   0.83334   0.78617   0.00000  Uiso   1.00
O1141  O     0.57608   0.83333   0.88050   0.00000  Uiso   1.00
O1142  O     0.57730   0.70669   0.79184   0.00000  Uiso   1.00
Zn1143 Zn    0.50000   0.83333   0.88437   0.00000  Uiso   1.00
Zn1144 Zn    0.50000   0.83334   0.78229   0.00000  Uiso   1.00
C1145  C     0.83444   0.75352   0.83337   0.00000  Uiso   1.00
C1146  C     0.79855   0.68869   0.85558   0.00000  Uiso   1.00
C1147  C     0.83114   0.95728   0.83301   0.00000  Uiso   1.00
C1148  C     0.83553   0.70939   0.83366   0.00000  Uiso   1.00
C1149  C     0.86537   0.86059   0.69616   0.00000  Uiso   1.00
C1150  C     0.80130   0.80608   0.97050   0.00000  Uiso   1.00
C1151  C     0.86558   0.86070   0.98146   0.00000  Uiso   1.00
C1152  C     0.80109   0.80596   0.68521   0.00000  Uiso   1.00
C1153  C     0.83223   0.91314   0.83330   0.00000  Uiso   1.00
C1154  C     0.73374   0.83326   0.82130   0.00000  Uiso   1.00
C1155  C     0.93293   0.83341   0.84537   0.00000  Uiso   1.00
C1156  C     0.67852   0.83330   0.81497   0.00000  Uiso   1.00
C1157  C     0.98814   0.83336   0.85169   0.00000  Uiso   1.00
C1158  C     0.87143   0.68764   0.81172   0.00000  Uiso   1.00
C1159  C     0.79524   0.97903   0.85494   0.00000  Uiso   1.00
C1160  C     0.86812   0.97798   0.81108   0.00000  Uiso   1.00
H1161  H     0.99089   0.83331   0.78025   0.00000  Uiso   1.00
H1162  H     0.76843   0.78280   0.73373   0.00000  Uiso   1.00
H1163  H     0.67577   0.83336   0.88642   0.00000  Uiso   1.00
H1164  H     0.89577   0.96058   0.79479   0.00000  Uiso   1.00
H1165  H     0.77090   0.70609   0.87188   0.00000  Uiso   1.00
H1166  H     0.91737   0.73559   0.80395   0.00000  Uiso   1.00
H1167  H     0.74929   0.93108   0.86272   0.00000  Uiso   1.00
H1168  H     0.91871   0.90563   0.70882   0.00000  Uiso   1.00
H1169  H     0.74796   0.76103   0.95785   0.00000  Uiso   1.00
H1170  H     0.89824   0.88387   0.93294   0.00000  Uiso   1.00
N1171  N     0.83332   0.83332   0.95240   0.00000  Uiso   1.00
N1172  N     0.83335   0.83334   0.71427   0.00000  Uiso   1.00
O1173  O     0.83333   0.77225   0.87154   0.00000  Uiso   1.00
O1174  O     0.75603   0.95997   0.87483   0.00000  Uiso   1.00
O1175  O     0.89720   0.88744   0.72574   0.00000  Uiso   1.00
O1176  O     0.76946   0.77923   0.94092   0.00000  Uiso   1.00
O1177  O     0.89897   0.88910   0.96540   0.00000  Uiso   1.00
O1178  O     0.76770   0.77757   0.70127   0.00000  Uiso   1.00
O1179  O     0.83334   0.89442   0.79513   0.00000  Uiso   1.00
O1180  O     0.83333   0.77226   0.79510   0.00000  Uiso   1.00
O1181  O     0.83334   0.89441   0.87157   0.00000  Uiso   1.00
O1182  O     0.75725   0.83333   0.86261   0.00000  Uiso   1.00
O1183  O     0.90942   0.83334   0.80405   0.00000  Uiso   1.00
O1184  O     0.75725   0.83334   0.78617   0.00000  Uiso   1.00
O1185  O     0.90942   0.83333   0.88050   0.00000  Uiso   1.00
O1186  O     0.91064   0.70669   0.79184   0.00000  Uiso   1.00
Zn1187 Zn    0.83333   0.83333   0.88437   0.00000  Uiso   1.00
Zn1188 Zn    0.83333   0.83334   0.78229   0.00000  Uiso   1.00
loop_
_geom_bond_atom_site_label_1
_geom_bond_atom_site_label_2
_geom_bond_distance
_geom_bond_site_symmetry_2
_ccdc_geom_bond_type
C1     C4      1.411   .     S
C1     O29     1.285   .     A
C1     O36     1.288   .     A
C2     C4      1.396   .     A
C2     H21     1.085   .     S
C2     C279    1.374   1_545 S
C3     C9      1.411   .     S
C3     C15     1.408   .     A
C3     C16     1.396   .     A
C4     C14     1.408   .     A
C5     N28     1.358   .     A
C5     O31     1.381   .     S
C5     C799    1.432   1_554 S
C6     O32     1.381   .     S
C6     N27     1.358   .     A
C6     C404    1.432   .     S
C7     N27     1.388   .     A
C7     O33     1.376   .     S
C7     C401    1.432   .     S
C8     O34     1.376   .     S
C8     N28     1.388   .     A
C8     C798    1.432   1_554 S
C9     O37     1.288   .     A
C9     O35     1.285   .     A
C10    O38     1.282   .     A
C10    C12     1.406   .     S
C10    O40     1.290   .     A
C11    O39     1.282   .     A
C11    C13     1.406   .     S
C11    O41     1.290   .     A
C12    C101    1.335   1_455 S
C12    H105    1.088   1_455 S
C13    C56     1.335   .     S
C13    H63     1.088   .     S
C14    O42     1.382   .     S
C14    C280    1.374   1_545 S
C15    O30     1.382   .     S
C15    C134    1.374   .     S
C16    H20     1.085   .     S
C16    C146    1.374   .     S
H17    C56     1.088   .     S
H18    O34     0.977   .     S
H19    C101    1.088   1_455 S
H22    O42     0.989   .     S
H23    O30     0.989   .     S
H24    O31     0.989   .     S
H25    O32     0.989   .     S
H26    O33     0.977   .     S
N27    Zn43    2.026   .     S
N28    Zn44    2.026   .     S
O29    Zn43    1.985   .     S
O35    Zn44    1.985   .     S
O36    Zn44    1.991   .     S
O37    Zn43    1.991   .     S
O38    Zn43    1.965   .     S
O39    Zn44    1.965   .     S
O40    Zn44    1.983   .     S
O41    Zn43    1.983   .     S
C45    C48     1.411   .     S
C45    O73     1.285   .     A
C45    O80     1.288   .     A
C46    C48     1.396   .     A
C46    H65     1.085   .     S
C46    C323    1.374   1_545 S
C47    C53     1.411   .     S
C47    C59     1.408   .     A
C47    C60     1.396   .     A
C48    C58     1.408   .     A
C49    N72     1.358   .     A
C49    O75     1.381   .     S
C49    C843    1.432   1_554 S
C50    O76     1.381   .     S
C50    N71     1.358   .     A
C50    C448    1.432   .     S
C51    N71     1.388   .     A
C51    O77     1.376   .     S
C51    C445    1.432   .     S
C52    O78     1.376   .     S
C52    N72     1.388   .     A
C52    C842    1.432   1_554 S
C53    O81     1.288   .     A
C53    O79     1.285   .     A
C54    O82     1.282   .     A
C54    C56     1.406   .     S
C54    O84     1.290   .     A
C55    O83     1.282   .     A
C55    C57     1.406   .     S
C55    O85     1.290   .     A
C57    C100    1.335   .     S
C57    H107    1.088   .     S
C58    O86     1.382   .     S
C58    C324    1.374   1_545 S
C59    O74     1.382   .     S
C59    C178    1.374   .     S
C60    H64     1.085   .     S
C60    C190    1.374   .     S
H61    C100    1.088   .     S
H62    O78     0.977   .     S
H66    O86     0.989   .     S
H67    O74     0.989   .     S
H68    O75     0.989   .     S
H69    O76     0.989   .     S
H70    O77     0.977   .     S
N71    Zn87    2.026   .     S
N72    Zn88    2.026   .     S
O73    Zn87    1.985   .     S
O79    Zn88    1.985   .     S
O80    Zn88    1.991   .     S
O81    Zn87    1.991   .     S
O82    Zn87    1.965   .     S
O83    Zn88    1.965   .     S
O84    Zn88    1.983   .     S
O85    Zn87    1.983   .     S
C89    C92     1.411   .     S
C89    O117    1.285   .     A
C89    O124    1.288   .     A
C90    C92     1.396   .     A
C90    H109    1.085   .     S
C90    C367    1.374   1_545 S
C91    C97     1.411   .     S
C91    C103    1.408   .     A
C91    C104    1.396   .     A
C92    C102    1.408   .     A
C93    N116    1.358   .     A
C93    O119    1.381   .     S
C93    C887    1.432   1_554 S
C94    O120    1.381   .     S
C94    N115    1.358   .     A
C94    C492    1.432   .     S
C95    N115    1.388   .     A
C95    O121    1.376   .     S
C95    C489    1.432   .     S
C96    O122    1.376   .     S
C96    N116    1.388   .     A
C96    C886    1.432   1_554 S
C97    O125    1.288   .     A
C97    O123    1.285   .     A
C98    O126    1.282   .     A
C98    C100    1.406   .     S
C98    O128    1.290   .     A
C99    O127    1.282   .     A
C99    C101    1.406   .     S
C99    O129    1.290   .     A
C101   C12     1.335   1_655 S
C101   H19     1.088   1_655 S
C102   O130    1.382   .     S
C102   C368    1.374   1_545 S
C103   O118    1.382   .     S
C103   C222    1.374   .     S
C104   H108    1.085   .     S
C104   C234    1.374   .     S
H105   C12     1.088   1_655 S
H106   O122    0.977   .     S
H110   O130    0.989   .     S
H111   O118    0.989   .     S
H112   O119    0.989   .     S
H113   O120    0.989   .     S
H114   O121    0.977   .     S
N115   Zn131   2.026   .     S
N116   Zn132   2.026   .     S
O117   Zn131   1.985   .     S
O123   Zn132   1.985   .     S
O124   Zn132   1.991   .     S
O125   Zn131   1.991   .     S
O126   Zn131   1.965   .     S
O127   Zn132   1.965   .     S
O128   Zn132   1.983   .     S
O129   Zn131   1.983   .     S
C133   C136    1.411   .     S
C133   O161    1.285   .     A
C133   O168    1.288   .     A
C134   C136    1.396   .     A
C134   H153    1.085   .     S
C135   C141    1.411   .     S
C135   C147    1.408   .     A
C135   C148    1.396   .     A
C136   C146    1.408   .     A
C137   N160    1.358   .     A
C137   O163    1.381   .     S
C137   C931    1.432   1_554 S
C138   O164    1.381   .     S
C138   N159    1.358   .     A
C138   C536    1.432   .     S
C139   N159    1.388   .     A
C139   O165    1.376   .     S
C139   C533    1.432   .     S
C140   O166    1.376   .     S
C140   N160    1.388   .     A
C140   C930    1.432   1_554 S
C141   O169    1.288   .     A
C141   O167    1.285   .     A
C142   O170    1.282   .     A
C142   C144    1.406   .     S
C142   O172    1.290   .     A
C143   O171    1.282   .     A
C143   C145    1.406   .     S
C143   O173    1.290   .     A
C144   C233    1.335   1_455 S
C144   H237    1.088   1_455 S
C145   C188    1.335   .     S
C145   H195    1.088   .     S
C146   O174    1.382   .     S
C147   O162    1.382   .     S
C147   C266    1.374   .     S
C148   H152    1.085   .     S
C148   C278    1.374   .     S
H149   C188    1.088   .     S
H150   O166    0.977   .     S
H151   C233    1.088   1_455 S
H154   O174    0.989   .     S
H155   O162    0.989   .     S
H156   O163    0.989   .     S
H157   O164    0.989   .     S
H158   O165    0.977   .     S
N159   Zn175   2.026   .     S
N160   Zn176   2.026   .     S
O161   Zn175   1.985   .     S
O167   Zn176   1.985   .     S
O168   Zn176   1.991   .     S
O169   Zn175   1.991   .     S
O170   Zn175   1.965   .     S
O171   Zn176   1.965   .     S
O172   Zn176   1.983   .     S
O173   Zn175   1.983   .     S
C177   C180    1.411   .     S
C177   O205    1.285   .     A
C177   O212    1.288   .     A
C178   C180    1.396   .     A
C178   H197    1.085   .     S
C179   C185    1.411   .     S
C179   C191    1.408   .     A
C179   C192    1.396   .     A
C180   C190    1.408   .     A
C181   N204    1.358   .     A
C181   O207    1.381   .     S
C181   C975    1.432   1_554 S
C182   O208    1.381   .     S
C182   N203    1.358   .     A
C182   C580    1.432   .     S
C183   N203    1.388   .     A
C183   O209    1.376   .     S
C183   C577    1.432   .     S
C184   O210    1.376   .     S
C184   N204    1.388   .     A
C184   C974    1.432   1_554 S
C185   O213    1.288   .     A
C185   O211    1.285   .     A
C186   O214    1.282   .     A
C186   C188    1.406   .     S
C186   O216    1.290   .     A
C187   O215    1.282   .     A
C187   C189    1.406   .     S
C187   O217    1.290   .     A
C189   C232    1.335   .     S
C189   H239    1.088   .     S
C190   O218    1.382   .     S
C191   O206    1.382   .     S
C191   C310    1.374   .     S
C192   H196    1.085   .     S
C192   C322    1.374   .     S
H193   C232    1.088   .     S
H194   O210    0.977   .     S
H198   O218    0.989   .     S
H199   O206    0.989   .     S
H200   O207    0.989   .     S
H201   O208    0.989   .     S
H202   O209    0.977   .     S
N203   Zn219   2.026   .     S
N204   Zn220   2.026   .     S
O205   Zn219   1.985   .     S
O211   Zn220   1.985   .     S
O212   Zn220   1.991   .     S
O213   Zn219   1.991   .     S
O214   Zn219   1.965   .     S
O215   Zn220   1.965   .     S
O216   Zn220   1.983   .     S
O217   Zn219   1.983   .     S
C221   C224    1.411   .     S
C221   O249    1.285   .     A
C221   O256    1.288   .     A
C222   C224    1.396   .     A
C222   H241    1.085   .     S
C223   C229    1.411   .     S
C223   C235    1.408   .     A
C223   C236    1.396   .     A
C224   C234    1.408   .     A
C225   N248    1.358   .     A
C225   O251    1.381   .     S
C225   C1019   1.432   1_554 S
C226   O252    1.381   .     S
C226   N247    1.358   .     A
C226   C624    1.432   .     S
C227   N247    1.388   .     A
C227   O253    1.376   .     S
C227   C621    1.432   .     S
C228   O254    1.376   .     S
C228   N248    1.388   .     A
C228   C1018   1.432   1_554 S
C229   O257    1.288   .     A
C229   O255    1.285   .     A
C230   O258    1.282   .     A
C230   C232    1.406   .     S
C230   O260    1.290   .     A
C231   O259    1.282   .     A
C231   C233    1.406   .     S
C231   O261    1.290   .     A
C233   C144    1.335   1_655 S
C233   H151    1.088   1_655 S
C234   O262    1.382   .     S
C235   O250    1.382   .     S
C235   C354    1.374   .     S
C236   H240    1.085   .     S
C236   C366    1.374   .     S
H237   C144    1.088   1_655 S
H238   O254    0.977   .     S
H242   O262    0.989   .     S
H243   O250    0.989   .     S
H244   O251    0.989   .     S
H245   O252    0.989   .     S
H246   O253    0.977   .     S
N247   Zn263   2.026   .     S
N248   Zn264   2.026   .     S
O249   Zn263   1.985   .     S
O255   Zn264   1.985   .     S
O256   Zn264   1.991   .     S
O257   Zn263   1.991   .     S
O258   Zn263   1.965   .     S
O259   Zn264   1.965   .     S
O260   Zn264   1.983   .     S
O261   Zn263   1.983   .     S
C265   C268    1.411   .     S
C265   O293    1.285   .     A
C265   O300    1.288   .     A
C266   C268    1.396   .     A
C266   H285    1.085   .     S
C267   C273    1.411   .     S
C267   C279    1.408   .     A
C267   C280    1.396   .     A
C268   C278    1.408   .     A
C269   N292    1.358   .     A
C269   O295    1.381   .     S
C269   C1063   1.432   1_554 S
C270   O296    1.381   .     S
C270   N291    1.358   .     A
C270   C668    1.432   .     S
C271   N291    1.388   .     A
C271   O297    1.376   .     S
C271   C665    1.432   .     S
C272   O298    1.376   .     S
C272   N292    1.388   .     A
C272   C1062   1.432   1_554 S
C273   O301    1.288   .     A
C273   O299    1.285   .     A
C274   O302    1.282   .     A
C274   C276    1.406   .     S
C274   O304    1.290   .     A
C275   O303    1.282   .     A
C275   C277    1.406   .     S
C275   O305    1.290   .     A
C276   C365    1.335   1_455 S
C276   H369    1.088   1_455 S
C277   C320    1.335   .     S
C277   H327    1.088   .     S
C278   O306    1.382   .     S
C279   O294    1.382   .     S
C279   C2      1.374   1_565 S
C280   H284    1.085   .     S
C280   C14     1.374   1_565 S
H281   C320    1.088   .     S
H282   O298    0.977   .     S
H283   C365    1.088   1_455 S
H286   O306    0.989   .     S
H287   O294    0.989   .     S
H288   O295    0.989   .     S
H289   O296    0.989   .     S
H290   O297    0.977   .     S
N291   Zn307   2.026   .     S
N292   Zn308   2.026   .     S
O293   Zn307   1.985   .     S
O299   Zn308   1.985   .     S
O300   Zn308   1.991   .     S
O301   Zn307   1.991   .     S
O302   Zn307   1.965   .     S
O303   Zn308   1.965   .     S
O304   Zn308   1.983   .     S
O305   Zn307   1.983   .     S
C309   C312    1.411   .     S
C309   O337    1.285   .     A
C309   O344    1.288   .     A
C310   C312    1.396   .     A
C310   H329    1.085   .     S
C311   C317    1.411   .     S
C311   C323    1.408   .     A
C311   C324    1.396   .     A
C312   C322    1.408   .     A
C313   N336    1.358   .     A
C313   O339    1.381   .     S
C313   C1107   1.432   1_554 S
C314   O340    1.381   .     S
C314   N335    1.358   .     A
C314   C712    1.432   .     S
C315   N335    1.388   .     A
C315   O341    1.376   .     S
C315   C709    1.432   .     S
C316   O342    1.376   .     S
C316   N336    1.388   .     A
C316   C1106   1.432   1_554 S
C317   O345    1.288   .     A
C317   O343    1.285   .     A
C318   O346    1.282   .     A
C318   C320    1.406   .     S
C318   O348    1.290   .     A
C319   O347    1.282   .     A
C319   C321    1.406   .     S
C319   O349    1.290   .     A
C321   C364    1.335   .     S
C321   H371    1.088   .     S
C322   O350    1.382   .     S
C323   O338    1.382   .     S
C323   C46     1.374   1_565 S
C324   H328    1.085   .     S
C324   C58     1.374   1_565 S
H325   C364    1.088   .     S
H326   O342    0.977   .     S
H330   O350    0.989   .     S
H331   O338    0.989   .     S
H332   O339    0.989   .     S
H333   O340    0.989   .     S
H334   O341    0.977   .     S
N335   Zn351   2.026   .     S
N336   Zn352   2.026   .     S
O337   Zn351   1.985   .     S
O343   Zn352   1.985   .     S
O344   Zn352   1.991   .     S
O345   Zn351   1.991   .     S
O346   Zn351   1.965   .     S
O347   Zn352   1.965   .     S
O348   Zn352   1.983   .     S
O349   Zn351   1.983   .     S
C353   C356    1.411   .     S
C353   O381    1.285   .     A
C353   O388    1.288   .     A
C354   C356    1.396   .     A
C354   H373    1.085   .     S
C355   C361    1.411   .     S
C355   C367    1.408   .     A
C355   C368    1.396   .     A
C356   C366    1.408   .     A
C357   N380    1.358   .     A
C357   O383    1.381   .     S
C357   C1151   1.432   1_554 S
C358   O384    1.381   .     S
C358   N379    1.358   .     A
C358   C756    1.432   .     S
C359   N379    1.388   .     A
C359   O385    1.376   .     S
C359   C753    1.432   .     S
C360   O386    1.376   .     S
C360   N380    1.388   .     A
C360   C1150   1.432   1_554 S
C361   O389    1.288   .     A
C361   O387    1.285   .     A
C362   O390    1.282   .     A
C362   C364    1.406   .     S
C362   O392    1.290   .     A
C363   O391    1.282   .     A
C363   C365    1.406   .     S
C363   O393    1.290   .     A
C365   C276    1.335   1_655 S
C365   H283    1.088   1_655 S
C366   O394    1.382   .     S
C367   O382    1.382   .     S
C367   C90     1.374   1_565 S
C368   H372    1.085   .     S
C368   C102    1.374   1_565 S
H369   C276    1.088   1_655 S
H370   O386    0.977   .     S
H374   O394    0.989   .     S
H375   O382    0.989   .     S
H376   O383    0.989   .     S
H377   O384    0.989   .     S
H378   O385    0.977   .     S
N379   Zn395   2.026   .     S
N380   Zn396   2.026   .     S
O381   Zn395   1.985   .     S
O387   Zn396   1.985   .     S
O388   Zn396   1.991   .     S
O389   Zn395   1.991   .     S
O390   Zn395   1.965   .     S
O391   Zn396   1.965   .     S
O392   Zn396   1.983   .     S
O393   Zn395   1.983   .     S
C397   C400    1.411   .     S
C397   O425    1.285   .     A
C397   O432    1.288   .     A
C398   C400    1.396   .     A
C398   H417    1.085   .     S
C398   C675    1.374   1_545 S
C399   C405    1.411   .     S
C399   C411    1.408   .     A
C399   C412    1.396   .     A
C400   C410    1.408   .     A
C401   N424    1.358   .     A
C401   O427    1.381   .     S
C402   O428    1.381   .     S
C402   N423    1.358   .     A
C402   C800    1.432   .     S
C403   N423    1.388   .     A
C403   O429    1.376   .     S
C403   C797    1.432   .     S
C404   O430    1.376   .     S
C404   N424    1.388   .     A
C405   O433    1.288   .     A
C405   O431    1.285   .     A
C406   O434    1.282   .     A
C406   C408    1.406   .     S
C406   O436    1.290   .     A
C407   O435    1.282   .     A
C407   C409    1.406   .     S
C407   O437    1.290   .     A
C408   C497    1.335   1_455 S
C408   H501    1.088   1_455 S
C409   C452    1.335   .     S
C409   H459    1.088   .     S
C410   O438    1.382   .     S
C410   C676    1.374   1_545 S
C411   O426    1.382   .     S
C411   C530    1.374   .     S
C412   H416    1.085   .     S
C412   C542    1.374   .     S
H413   C452    1.088   .     S
H414   O430    0.977   .     S
H415   C497    1.088   1_455 S
H418   O438    0.989   .     S
H419   O426    0.989   .     S
H420   O427    0.989   .     S
H421   O428    0.989   .     S
H422   O429    0.977   .     S
N423   Zn439   2.026   .     S
N424   Zn440   2.026   .     S
O425   Zn439   1.985   .     S
O431   Zn440   1.985   .     S
O432   Zn440   1.991   .     S
O433   Zn439   1.991   .     S
O434   Zn439   1.965   .     S
O435   Zn440   1.965   .     S
O436   Zn440   1.983   .     S
O437   Zn439   1.983   .     S
C441   C444    1.411   .     S
C441   O469    1.285   .     A
C441   O476    1.288   .     A
C442   C444    1.396   .     A
C442   H461    1.085   .     S
C442   C719    1.374   1_545 S
C443   C449    1.411   .     S
C443   C455    1.408   .     A
C443   C456    1.396   .     A
C444   C454    1.408   .     A
C445   N468    1.358   .     A
C445   O471    1.381   .     S
C446   O472    1.381   .     S
C446   N467    1.358   .     A
C446   C844    1.432   .     S
C447   N467    1.388   .     A
C447   O473    1.376   .     S
C447   C841    1.432   .     S
C448   O474    1.376   .     S
C448   N468    1.388   .     A
C449   O477    1.288   .     A
C449   O475    1.285   .     A
C450   O478    1.282   .     A
C450   C452    1.406   .     S
C450   O480    1.290   .     A
C451   O479    1.282   .     A
C451   C453    1.406   .     S
C451   O481    1.290   .     A
C453   C496    1.335   .     S
C453   H503    1.088   .     S
C454   O482    1.382   .     S
C454   C720    1.374   1_545 S
C455   O470    1.382   .     S
C455   C574    1.374   .     S
C456   H460    1.085   .     S
C456   C586    1.374   .     S
H457   C496    1.088   .     S
H458   O474    0.977   .     S
H462   O482    0.989   .     S
H463   O470    0.989   .     S
H464   O471    0.989   .     S
H465   O472    0.989   .     S
H466   O473    0.977   .     S
N467   Zn483   2.026   .     S
N468   Zn484   2.026   .     S
O469   Zn483   1.985   .     S
O475   Zn484   1.985   .     S
O476   Zn484   1.991   .     S
O477   Zn483   1.991   .     S
O478   Zn483   1.965   .     S
O479   Zn484   1.965   .     S
O480   Zn484   1.983   .     S
O481   Zn483   1.983   .     S
C485   C488    1.411   .     S
C485   O513    1.285   .     A
C485   O520    1.288   .     A
C486   C488    1.396   .     A
C486   H505    1.085   .     S
C486   C763    1.374   1_545 S
C487   C493    1.411   .     S
C487   C499    1.408   .     A
C487   C500    1.396   .     A
C488   C498    1.408   .     A
C489   N512    1.358   .     A
C489   O515    1.381   .     S
C490   O516    1.381   .     S
C490   N511    1.358   .     A
C490   C888    1.432   .     S
C491   N511    1.388   .     A
C491   O517    1.376   .     S
C491   C885    1.432   .     S
C492   O518    1.376   .     S
C492   N512    1.388   .     A
C493   O521    1.288   .     A
C493   O519    1.285   .     A
C494   O522    1.282   .     A
C494   C496    1.406   .     S
C494   O524    1.290   .     A
C495   O523    1.282   .     A
C495   C497    1.406   .     S
C495   O525    1.290   .     A
C497   C408    1.335   1_655 S
C497   H415    1.088   1_655 S
C498   O526    1.382   .     S
C498   C764    1.374   1_545 S
C499   O514    1.382   .     S
C499   C618    1.374   .     S
C500   H504    1.085   .     S
C500   C630    1.374   .     S
H501   C408    1.088   1_655 S
H502   O518    0.977   .     S
H506   O526    0.989   .     S
H507   O514    0.989   .     S
H508   O515    0.989   .     S
H509   O516    0.989   .     S
H510   O517    0.977   .     S
N511   Zn527   2.026   .     S
N512   Zn528   2.026   .     S
O513   Zn527   1.985   .     S
O519   Zn528   1.985   .     S
O520   Zn528   1.991   .     S
O521   Zn527   1.991   .     S
O522   Zn527   1.965   .     S
O523   Zn528   1.965   .     S
O524   Zn528   1.983   .     S
O525   Zn527   1.983   .     S
C529   C532    1.411   .     S
C529   O557    1.285   .     A
C529   O564    1.288   .     A
C530   C532    1.396   .     A
C530   H549    1.085   .     S
C531   C537    1.411   .     S
C531   C543    1.408   .     A
C531   C544    1.396   .     A
C532   C542    1.408   .     A
C533   N556    1.358   .     A
C533   O559    1.381   .     S
C534   O560    1.381   .     S
C534   N555    1.358   .     A
C534   C932    1.432   .     S
C535   N555    1.388   .     A
C535   O561    1.376   .     S
C535   C929    1.432   .     S
C536   O562    1.376   .     S
C536   N556    1.388   .     A
C537   O565    1.288   .     A
C537   O563    1.285   .     A
C538   O566    1.282   .     A
C538   C540    1.406   .     S
C538   O568    1.290   .     A
C539   O567    1.282   .     A
C539   C541    1.406   .     S
C539   O569    1.290   .     A
C540   C629    1.335   1_455 S
C540   H633    1.088   1_455 S
C541   C584    1.335   .     S
C541   H591    1.088   .     S
C542   O570    1.382   .     S
C543   O558    1.382   .     S
C543   C662    1.374   .     S
C544   H548    1.085   .     S
C544   C674    1.374   .     S
H545   C584    1.088   .     S
H546   O562    0.977   .     S
H547   C629    1.088   1_455 S
H550   O570    0.989   .     S
H551   O558    0.989   .     S
H552   O559    0.989   .     S
H553   O560    0.989   .     S
H554   O561    0.977   .     S
N555   Zn571   2.026   .     S
N556   Zn572   2.026   .     S
O557   Zn571   1.985   .     S
O563   Zn572   1.985   .     S
O564   Zn572   1.991   .     S
O565   Zn571   1.991   .     S
O566   Zn571   1.965   .     S
O567   Zn572   1.965   .     S
O568   Zn572   1.983   .     S
O569   Zn571   1.983   .     S
C573   C576    1.411   .     S
C573   O601    1.285   .     A
C573   O608    1.288   .     A
C574   C576    1.396   .     A
C574   H593    1.085   .     S
C575   C581    1.411   .     S
C575   C587    1.408   .     A
C575   C588    1.396   .     A
C576   C586    1.408   .     A
C577   N600    1.358   .     A
C577   O603    1.381   .     S
C578   O604    1.381   .     S
C578   N599    1.358   .     A
C578   C976    1.432   .     S
C579   N599    1.388   .     A
C579   O605    1.376   .     S
C579   C973    1.432   .     S
C580   O606    1.376   .     S
C580   N600    1.388   .     A
C581   O609    1.288   .     A
C581   O607    1.285   .     A
C582   O610    1.282   .     A
C582   C584    1.406   .     S
C582   O612    1.290   .     A
C583   O611    1.282   .     A
C583   C585    1.406   .     S
C583   O613    1.290   .     A
C585   C628    1.335   .     S
C585   H635    1.088   .     S
C586   O614    1.382   .     S
C587   O602    1.382   .     S
C587   C706    1.374   .     S
C588   H592    1.085   .     S
C588   C718    1.374   .     S
H589   C628    1.088   .     S
H590   O606    0.977   .     S
H594   O614    0.989   .     S
H595   O602    0.989   .     S
H596   O603    0.989   .     S
H597   O604    0.989   .     S
H598   O605    0.977   .     S
N599   Zn615   2.026   .     S
N600   Zn616   2.026   .     S
O601   Zn615   1.985   .     S
O607   Zn616   1.985   .     S
O608   Zn616   1.991   .     S
O609   Zn615   1.991   .     S
O610   Zn615   1.965   .     S
O611   Zn616   1.965   .     S
O612   Zn616   1.983   .     S
O613   Zn615   1.983   .     S
C617   C620    1.411   .     S
C617   O645    1.285   .     A
C617   O652    1.288   .     A
C618   C620    1.396   .     A
C618   H637    1.085   .     S
C619   C625    1.411   .     S
C619   C631    1.408   .     A
C619   C632    1.396   .     A
C620   C630    1.408   .     A
C621   N644    1.358   .     A
C621   O647    1.381   .     S
C622   O648    1.381   .     S
C622   N643    1.358   .     A
C622   C1020   1.432   .     S
C623   N643    1.388   .     A
C623   O649    1.376   .     S
C623   C1017   1.432   .     S
C624   O650    1.376   .     S
C624   N644    1.388   .     A
C625   O653    1.288   .     A
C625   O651    1.285   .     A
C626   O654    1.282   .     A
C626   C628    1.406   .     S
C626   O656    1.290   .     A
C627   O655    1.282   .     A
C627   C629    1.406   .     S
C627   O657    1.290   .     A
C629   C540    1.335   1_655 S
C629   H547    1.088   1_655 S
C630   O658    1.382   .     S
C631   O646    1.382   .     S
C631   C750    1.374   .     S
C632   H636    1.085   .     S
C632   C762    1.374   .     S
H633   C540    1.088   1_655 S
H634   O650    0.977   .     S
H638   O658    0.989   .     S
H639   O646    0.989   .     S
H640   O647    0.989   .     S
H641   O648    0.989   .     S
H642   O649    0.977   .     S
N643   Zn659   2.026   .     S
N644   Zn660   2.026   .     S
O645   Zn659   1.985   .     S
O651   Zn660   1.985   .     S
O652   Zn660   1.991   .     S
O653   Zn659   1.991   .     S
O654   Zn659   1.965   .     S
O655   Zn660   1.965   .     S
O656   Zn660   1.983   .     S
O657   Zn659   1.983   .     S
C661   C664    1.411   .     S
C661   O689    1.285   .     A
C661   O696    1.288   .     A
C662   C664    1.396   .     A
C662   H681    1.085   .     S
C663   C669    1.411   .     S
C663   C675    1.408   .     A
C663   C676    1.396   .     A
C664   C674    1.408   .     A
C665   N688    1.358   .     A
C665   O691    1.381   .     S
C666   O692    1.381   .     S
C666   N687    1.358   .     A
C666   C1064   1.432   .     S
C667   N687    1.388   .     A
C667   O693    1.376   .     S
C667   C1061   1.432   .     S
C668   O694    1.376   .     S
C668   N688    1.388   .     A
C669   O697    1.288   .     A
C669   O695    1.285   .     A
C670   O698    1.282   .     A
C670   C672    1.406   .     S
C670   O700    1.290   .     A
C671   O699    1.282   .     A
C671   C673    1.406   .     S
C671   O701    1.290   .     A
C672   C761    1.335   1_455 S
C672   H765    1.088   1_455 S
C673   C716    1.335   .     S
C673   H723    1.088   .     S
C674   O702    1.382   .     S
C675   O690    1.382   .     S
C675   C398    1.374   1_565 S
C676   H680    1.085   .     S
C676   C410    1.374   1_565 S
H677   C716    1.088   .     S
H678   O694    0.977   .     S
H679   C761    1.088   1_455 S
H682   O702    0.989   .     S
H683   O690    0.989   .     S
H684   O691    0.989   .     S
H685   O692    0.989   .     S
H686   O693    0.977   .     S
N687   Zn703   2.026   .     S
N688   Zn704   2.026   .     S
O689   Zn703   1.985   .     S
O695   Zn704   1.985   .     S
O696   Zn704   1.991   .     S
O697   Zn703   1.991   .     S
O698   Zn703   1.965   .     S
O699   Zn704   1.965   .     S
O700   Zn704   1.983   .     S
O701   Zn703   1.983   .     S
C705   C708    1.411   .     S
C705   O733    1.285   .     A
C705   O740    1.288   .     A
C706   C708    1.396   .     A
C706   H725    1.085   .     S
C707   C713    1.411   .     S
C707   C719    1.408   .     A
C707   C720    1.396   .     A
C708   C718    1.408   .     A
C709   N732    1.358   .     A
C709   O735    1.381   .     S
C710   O736    1.381   .     S
C710   N731    1.358   .     A
C710   C1108   1.432   .     S
C711   N731    1.388   .     A
C711   O737    1.376   .     S
C711   C1105   1.432   .     S
C712   O738    1.376   .     S
C712   N732    1.388   .     A
C713   O741    1.288   .     A
C713   O739    1.285   .     A
C714   O742    1.282   .     A
C714   C716    1.406   .     S
C714   O744    1.290   .     A
C715   O743    1.282   .     A
C715   C717    1.406   .     S
C715   O745    1.290   .     A
C717   C760    1.335   .     S
C717   H767    1.088   .     S
C718   O746    1.382   .     S
C719   O734    1.382   .     S
C719   C442    1.374   1_565 S
C720   H724    1.085   .     S
C720   C454    1.374   1_565 S
H721   C760    1.088   .     S
H722   O738    0.977   .     S
H726   O746    0.989   .     S
H727   O734    0.989   .     S
H728   O735    0.989   .     S
H729   O736    0.989   .     S
H730   O737    0.977   .     S
N731   Zn747   2.026   .     S
N732   Zn748   2.026   .     S
O733   Zn747   1.985   .     S
O739   Zn748   1.985   .     S
O740   Zn748   1.991   .     S
O741   Zn747   1.991   .     S
O742   Zn747   1.965   .     S
O743   Zn748   1.965   .     S
O744   Zn748   1.983   .     S
O745   Zn747   1.983   .     S
C749   C752    1.411   .     S
C749   O777    1.285   .     A
C749   O784    1.288   .     A
C750   C752    1.396   .     A
C750   H769    1.085   .     S
C751   C757    1.411   .     S
C751   C763    1.408   .     A
C751   C764    1.396   .     A
C752   C762    1.408   .     A
C753   N776    1.358   .     A
C753   O779    1.381   .     S
C754   O780    1.381   .     S
C754   N775    1.358   .     A
C754   C1152   1.432   .     S
C755   N775    1.388   .     A
C755   O781    1.376   .     S
C755   C1149   1.432   .     S
C756   O782    1.376   .     S
C756   N776    1.388   .     A
C757   O785    1.288   .     A
C757   O783    1.285   .     A
C758   O786    1.282   .     A
C758   C760    1.406   .     S
C758   O788    1.290   .     A
C759   O787    1.282   .     A
C759   C761    1.406   .     S
C759   O789    1.290   .     A
C761   C672    1.335   1_655 S
C761   H679    1.088   1_655 S
C762   O790    1.382   .     S
C763   O778    1.382   .     S
C763   C486    1.374   1_565 S
C764   H768    1.085   .     S
C764   C498    1.374   1_565 S
H765   C672    1.088   1_655 S
H766   O782    0.977   .     S
H770   O790    0.989   .     S
H771   O778    0.989   .     S
H772   O779    0.989   .     S
H773   O780    0.989   .     S
H774   O781    0.977   .     S
N775   Zn791   2.026   .     S
N776   Zn792   2.026   .     S
O777   Zn791   1.985   .     S
O783   Zn792   1.985   .     S
O784   Zn792   1.991   .     S
O785   Zn791   1.991   .     S
O786   Zn791   1.965   .     S
O787   Zn792   1.965   .     S
O788   Zn792   1.983   .     S
O789   Zn791   1.983   .     S
C793   C796    1.411   .     S
C793   O821    1.285   .     A
C793   O828    1.288   .     A
C794   C796    1.396   .     A
C794   H813    1.085   .     S
C794   C1071   1.374   1_545 S
C795   C801    1.411   .     S
C795   C807    1.408   .     A
C795   C808    1.396   .     A
C796   C806    1.408   .     A
C797   N820    1.358   .     A
C797   O823    1.381   .     S
C798   O824    1.381   .     S
C798   N819    1.358   .     A
C798   C8      1.432   1_556 S
C799   N819    1.388   .     A
C799   O825    1.376   .     S
C799   C5      1.432   1_556 S
C800   O826    1.376   .     S
C800   N820    1.388   .     A
C801   O829    1.288   .     A
C801   O827    1.285   .     A
C802   O830    1.282   .     A
C802   C804    1.406   .     S
C802   O832    1.290   .     A
C803   O831    1.282   .     A
C803   C805    1.406   .     S
C803   O833    1.290   .     A
C804   C893    1.335   1_455 S
C804   H897    1.088   1_455 S
C805   C848    1.335   .     S
C805   H855    1.088   .     S
C806   O834    1.382   .     S
C806   C1072   1.374   1_545 S
C807   O822    1.382   .     S
C807   C926    1.374   .     S
C808   H812    1.085   .     S
C808   C938    1.374   .     S
H809   C848    1.088   .     S
H810   O826    0.977   .     S
H811   C893    1.088   1_455 S
H814   O834    0.989   .     S
H815   O822    0.989   .     S
H816   O823    0.989   .     S
H817   O824    0.989   .     S
H818   O825    0.977   .     S
N819   Zn835   2.026   .     S
N820   Zn836   2.026   .     S
O821   Zn835   1.985   .     S
O827   Zn836   1.985   .     S
O828   Zn836   1.991   .     S
O829   Zn835   1.991   .     S
O830   Zn835   1.965   .     S
O831   Zn836   1.965   .     S
O832   Zn836   1.983   .     S
O833   Zn835   1.983   .     S
C837   C840    1.411   .     S
C837   O865    1.285   .     A
C837   O872    1.288   .     A
C838   C840    1.396   .     A
C838   H857    1.085   .     S
C838   C1115   1.374   1_545 S
C839   C845    1.411   .     S
C839   C851    1.408   .     A
C839   C852    1.396   .     A
C840   C850    1.408   .     A
C841   N864    1.358   .     A
C841   O867    1.381   .     S
C842   O868    1.381   .     S
C842   N863    1.358   .     A
C842   C52     1.432   1_556 S
C843   N863    1.388   .     A
C843   O869    1.376   .     S
C843   C49     1.432   1_556 S
C844   O870    1.376   .     S
C844   N864    1.388   .     A
C845   O873    1.288   .     A
C845   O871    1.285   .     A
C846   O874    1.282   .     A
C846   C848    1.406   .     S
C846   O876    1.290   .     A
C847   O875    1.282   .     A
C847   C849    1.406   .     S
C847   O877    1.290   .     A
C849   C892    1.335   .     S
C849   H899    1.088   .     S
C850   O878    1.382   .     S
C850   C1116   1.374   1_545 S
C851   O866    1.382   .     S
C851   C970    1.374   .     S
C852   H856    1.085   .     S
C852   C982    1.374   .     S
H853   C892    1.088   .     S
H854   O870    0.977   .     S
H858   O878    0.989   .     S
H859   O866    0.989   .     S
H860   O867    0.989   .     S
H861   O868    0.989   .     S
H862   O869    0.977   .     S
N863   Zn879   2.026   .     S
N864   Zn880   2.026   .     S
O865   Zn879   1.985   .     S
O871   Zn880   1.985   .     S
O872   Zn880   1.991   .     S
O873   Zn879   1.991   .     S
O874   Zn879   1.965   .     S
O875   Zn880   1.965   .     S
O876   Zn880   1.983   .     S
O877   Zn879   1.983   .     S
C881   C884    1.411   .     S
C881   O909    1.285   .     A
C881   O916    1.288   .     A
C882   C884    1.396   .     A
C882   H901    1.085   .     S
C882   C1159   1.374   1_545 S
C883   C889    1.411   .     S
C883   C895    1.408   .     A
C883   C896    1.396   .     A
C884   C894    1.408   .     A
C885   N908    1.358   .     A
C885   O911    1.381   .     S
C886   O912    1.381   .     S
C886   N907    1.358   .     A
C886   C96     1.432   1_556 S
C887   N907    1.388   .     A
C887   O913    1.376   .     S
C887   C93     1.432   1_556 S
C888   O914    1.376   .     S
C888   N908    1.388   .     A
C889   O917    1.288   .     A
C889   O915    1.285   .     A
C890   O918    1.282   .     A
C890   C892    1.406   .     S
C890   O920    1.290   .     A
C891   O919    1.282   .     A
C891   C893    1.406   .     S
C891   O921    1.290   .     A
C893   C804    1.335   1_655 S
C893   H811    1.088   1_655 S
C894   O922    1.382   .     S
C894   C1160   1.374   1_545 S
C895   O910    1.382   .     S
C895   C1014   1.374   .     S
C896   H900    1.085   .     S
C896   C1026   1.374   .     S
H897   C804    1.088   1_655 S
H898   O914    0.977   .     S
H902   O922    0.989   .     S
H903   O910    0.989   .     S
H904   O911    0.989   .     S
H905   O912    0.989   .     S
H906   O913    0.977   .     S
N907   Zn923   2.026   .     S
N908   Zn924   2.026   .     S
O909   Zn923   1.985   .     S
O915   Zn924   1.985   .     S
O916   Zn924   1.991   .     S
O917   Zn923   1.991   .     S
O918   Zn923   1.965   .     S
O919   Zn924   1.965   .     S
O920   Zn924   1.983   .     S
O921   Zn923   1.983   .     S
C925   C928    1.411   .     S
C925   O953    1.285   .     A
C925   O960    1.288   .     A
C926   C928    1.396   .     A
C926   H945    1.085   .     S
C927   C933    1.411   .     S
C927   C939    1.408   .     A
C927   C940    1.396   .     A
C928   C938    1.408   .     A
C929   N952    1.358   .     A
C929   O955    1.381   .     S
C930   O956    1.381   .     S
C930   N951    1.358   .     A
C930   C140    1.432   1_556 S
C931   N951    1.388   .     A
C931   O957    1.376   .     S
C931   C137    1.432   1_556 S
C932   O958    1.376   .     S
C932   N952    1.388   .     A
C933   O961    1.288   .     A
C933   O959    1.285   .     A
C934   O962    1.282   .     A
C934   C936    1.406   .     S
C934   O964    1.290   .     A
C935   O963    1.282   .     A
C935   C937    1.406   .     S
C935   O965    1.290   .     A
C936   C1025   1.335   1_455 S
C936   H1029   1.088   1_455 S
C937   C980    1.335   .     S
C937   H987    1.088   .     S
C938   O966    1.382   .     S
C939   O954    1.382   .     S
C939   C1058   1.374   .     S
C940   H944    1.085   .     S
C940   C1070   1.374   .     S
H941   C980    1.088   .     S
H942   O958    0.977   .     S
H943   C1025   1.088   1_455 S
H946   O966    0.989   .     S
H947   O954    0.989   .     S
H948   O955    0.989   .     S
H949   O956    0.989   .     S
H950   O957    0.977   .     S
N951   Zn967   2.026   .     S
N952   Zn968   2.026   .     S
O953   Zn967   1.985   .     S
O959   Zn968   1.985   .     S
O960   Zn968   1.991   .     S
O961   Zn967   1.991   .     S
O962   Zn967   1.965   .     S
O963   Zn968   1.965   .     S
O964   Zn968   1.983   .     S
O965   Zn967   1.983   .     S
C969   C972    1.411   .     S
C969   O997    1.285   .     A
C969   O1004   1.288   .     A
C970   C972    1.396   .     A
C970   H989    1.085   .     S
C971   C977    1.411   .     S
C971   C983    1.408   .     A
C971   C984    1.396   .     A
C972   C982    1.408   .     A
C973   N996    1.358   .     A
C973   O999    1.381   .     S
C974   O1000   1.381   .     S
C974   N995    1.358   .     A
C974   C184    1.432   1_556 S
C975   N995    1.388   .     A
C975   O1001   1.376   .     S
C975   C181    1.432   1_556 S
C976   O1002   1.376   .     S
C976   N996    1.388   .     A
C977   O1005   1.288   .     A
C977   O1003   1.285   .     A
C978   O1006   1.282   .     A
C978   C980    1.406   .     S
C978   O1008   1.290   .     A
C979   O1007   1.282   .     A
C979   C981    1.406   .     S
C979   O1009   1.290   .     A
C981   C1024   1.335   .     S
C981   H1031   1.088   .     S
C982   O1010   1.382   .     S
C983   O998    1.382   .     S
C983   C1102   1.374   .     S
C984   H988    1.085   .     S
C984   C1114   1.374   .     S
H985   C1024   1.088   .     S
H986   O1002   0.977   .     S
H990   O1010   0.989   .     S
H991   O998    0.989   .     S
H992   O999    0.989   .     S
H993   O1000   0.989   .     S
H994   O1001   0.977   .     S
N995   Zn1011  2.026   .     S
N996   Zn1012  2.026   .     S
O997   Zn1011  1.985   .     S
O1003  Zn1012  1.985   .     S
O1004  Zn1012  1.991   .     S
O1005  Zn1011  1.991   .     S
O1006  Zn1011  1.965   .     S
O1007  Zn1012  1.965   .     S
O1008  Zn1012  1.983   .     S
O1009  Zn1011  1.983   .     S
C1013  C1016   1.411   .     S
C1013  O1041   1.285   .     A
C1013  O1048   1.288   .     A
C1014  C1016   1.396   .     A
C1014  H1033   1.085   .     S
C1015  C1021   1.411   .     S
C1015  C1027   1.408   .     A
C1015  C1028   1.396   .     A
C1016  C1026   1.408   .     A
C1017  N1040   1.358   .     A
C1017  O1043   1.381   .     S
C1018  O1044   1.381   .     S
C1018  N1039   1.358   .     A
C1018  C228    1.432   1_556 S
C1019  N1039   1.388   .     A
C1019  O1045   1.376   .     S
C1019  C225    1.432   1_556 S
C1020  O1046   1.376   .     S
C1020  N1040   1.388   .     A
C1021  O1049   1.288   .     A
C1021  O1047   1.285   .     A
C1022  O1050   1.282   .     A
C1022  C1024   1.406   .     S
C1022  O1052   1.290   .     A
C1023  O1051   1.282   .     A
C1023  C1025   1.406   .     S
C1023  O1053   1.290   .     A
C1025  C936    1.335   1_655 S
C1025  H943    1.088   1_655 S
C1026  O1054   1.382   .     S
C1027  O1042   1.382   .     S
C1027  C1146   1.374   .     S
C1028  H1032   1.085   .     S
C1028  C1158   1.374   .     S
H1029  C936    1.088   1_655 S
H1030  O1046   0.977   .     S
H1034  O1054   0.989   .     S
H1035  O1042   0.989   .     S
H1036  O1043   0.989   .     S
H1037  O1044   0.989   .     S
H1038  O1045   0.977   .     S
N1039  Zn1055  2.026   .     S
N1040  Zn1056  2.026   .     S
O1041  Zn1055  1.985   .     S
O1047  Zn1056  1.985   .     S
O1048  Zn1056  1.991   .     S
O1049  Zn1055  1.991   .     S
O1050  Zn1055  1.965   .     S
O1051  Zn1056  1.965   .     S
O1052  Zn1056  1.983   .     S
O1053  Zn1055  1.983   .     S
C1057  C1060   1.411   .     S
C1057  O1085   1.285   .     A
C1057  O1092   1.288   .     A
C1058  C1060   1.396   .     A
C1058  H1077   1.085   .     S
C1059  C1065   1.411   .     S
C1059  C1071   1.408   .     A
C1059  C1072   1.396   .     A
C1060  C1070   1.408   .     A
C1061  N1084   1.358   .     A
C1061  O1087   1.381   .     S
C1062  O1088   1.381   .     S
C1062  N1083   1.358   .     A
C1062  C272    1.432   1_556 S
C1063  N1083   1.388   .     A
C1063  O1089   1.376   .     S
C1063  C269    1.432   1_556 S
C1064  O1090   1.376   .     S
C1064  N1084   1.388   .     A
C1065  O1093   1.288   .     A
C1065  O1091   1.285   .     A
C1066  O1094   1.282   .     A
C1066  C1068   1.406   .     S
C1066  O1096   1.290   .     A
C1067  O1095   1.282   .     A
C1067  C1069   1.406   .     S
C1067  O1097   1.290   .     A
C1068  C1157   1.335   1_455 S
C1068  H1161   1.088   1_455 S
C1069  C1112   1.335   .     S
C1069  H1119   1.088   .     S
C1070  O1098   1.382   .     S
C1071  O1086   1.382   .     S
C1071  C794    1.374   1_565 S
C1072  H1076   1.085   .     S
C1072  C806    1.374   1_565 S
H1073  C1112   1.088   .     S
H1074  O1090   0.977   .     S
H1075  C1157   1.088   1_455 S
H1078  O1098   0.989   .     S
H1079  O1086   0.989   .     S
H1080  O1087   0.989   .     S
H1081  O1088   0.989   .     S
H1082  O1089   0.977   .     S
N1083  Zn1099  2.026   .     S
N1084  Zn1100  2.026   .     S
O1085  Zn1099  1.985   .     S
O1091  Zn1100  1.985   .     S
O1092  Zn1100  1.991   .     S
O1093  Zn1099  1.991   .     S
O1094  Zn1099  1.965   .     S
O1095  Zn1100  1.965   .     S
O1096  Zn1100  1.983   .     S
O1097  Zn1099  1.983   .     S
C1101  C1104   1.411   .     S
C1101  O1129   1.285   .     A
C1101  O1136   1.288   .     A
C1102  C1104   1.396   .     A
C1102  H1121   1.085   .     S
C1103  C1109   1.411   .     S
C1103  C1115   1.408   .     A
C1103  C1116   1.396   .     A
C1104  C1114   1.408   .     A
C1105  N1128   1.358   .     A
C1105  O1131   1.381   .     S
C1106  O1132   1.381   .     S
C1106  N1127   1.358   .     A
C1106  C316    1.432   1_556 S
C1107  N1127   1.388   .     A
C1107  O1133   1.376   .     S
C1107  C313    1.432   1_556 S
C1108  O1134   1.376   .     S
C1108  N1128   1.388   .     A
C1109  O1137   1.288   .     A
C1109  O1135   1.285   .     A
C1110  O1138   1.282   .     A
C1110  C1112   1.406   .     S
C1110  O1140   1.290   .     A
C1111  O1139   1.282   .     A
C1111  C1113   1.406   .     S
C1111  O1141   1.290   .     A
C1113  C1156   1.335   .     S
C1113  H1163   1.088   .     S
C1114  O1142   1.382   .     S
C1115  O1130   1.382   .     S
C1115  C838    1.374   1_565 S
C1116  H1120   1.085   .     S
C1116  C850    1.374   1_565 S
H1117  C1156   1.088   .     S
H1118  O1134   0.977   .     S
H1122  O1142   0.989   .     S
H1123  O1130   0.989   .     S
H1124  O1131   0.989   .     S
H1125  O1132   0.989   .     S
H1126  O1133   0.977   .     S
N1127  Zn1143  2.026   .     S
N1128  Zn1144  2.026   .     S
O1129  Zn1143  1.985   .     S
O1135  Zn1144  1.985   .     S
O1136  Zn1144  1.991   .     S
O1137  Zn1143  1.991   .     S
O1138  Zn1143  1.965   .     S
O1139  Zn1144  1.965   .     S
O1140  Zn1144  1.983   .     S
O1141  Zn1143  1.983   .     S
C1145  C1148   1.411   .     S
C1145  O1173   1.285   .     A
C1145  O1180   1.288   .     A
C1146  C1148   1.396   .     A
C1146  H1165   1.085   .     S
C1147  C1153   1.411   .     S
C1147  C1159   1.408   .     A
C1147  C1160   1.396   .     A
C1148  C1158   1.408   .     A
C1149  N1172   1.358   .     A
C1149  O1175   1.381   .     S
C1150  O1176   1.381   .     S
C1150  N1171   1.358   .     A
C1150  C360    1.432   1_556 S
C1151  N1171   1.388   .     A
C1151  O1177   1.376   .     S
C1151  C357    1.432   1_556 S
C1152  O1178   1.376   .     S
C1152  N1172   1.388   .     A
C1153  O1181   1.288   .     A
C1153  O1179   1.285   .     A
C1154  O1182   1.282   .     A
C1154  C1156   1.406   .     S
C1154  O1184   1.290   .     A
C1155  O1183   1.282   .     A
C1155  C1157   1.406   .     S
C1155  O1185   1.290   .     A
C1157  C1068   1.335   1_655 S
C1157  H1075   1.088   1_655 S
C1158  O1186   1.382   .     S
C1159  O1174   1.382   .     S
C1159  C882    1.374   1_565 S
C1160  H1164   1.085   .     S
C1160  C894    1.374   1_565 S
H1161  C1068   1.088   1_655 S
H1162  O1178   0.977   .     S
H1166  O1186   0.989   .     S
H1167  O1174   0.989   .     S
H1168  O1175   0.989   .     S
H1169  O1176   0.989   .     S
H1170  O1177   0.977   .     S
N1171  Zn1187  2.026   .     S
N1172  Zn1188  2.026   .     S
O1173  Zn1187  1.985   .     S
O1179  Zn1188  1.985   .     S
O1180  Zn1188  1.991   .     S
O1181  Zn1187  1.991   .     S
O1182  Zn1187  1.965   .     S
O1183  Zn1188  1.965   .     S
O1184  Zn1188  1.983   .     S
O1185  Zn1187  1.983   .     S
