data_str_m3_o10_o17_pcu_sym.99
_audit_creation_date              2020-01-03
_audit_creation_method            'Materials Studio'
_symmetry_space_group_name_H-M    'P1'
_symmetry_Int_Tables_number       1
_symmetry_cell_setting            triclinic
loop_
_symmetry_equiv_pos_as_xyz
  x,y,z
_cell_length_a                    23.3652
_cell_length_b                    25.8321
_cell_length_c                    29.7260
_cell_angle_alpha                 91.5258
_cell_angle_beta                  85.6637
_cell_angle_gamma                 93.4275
loop_
_atom_site_label
_atom_site_type_symbol
_atom_site_fract_x
_atom_site_fract_y
_atom_site_fract_z
_atom_site_U_iso_or_equiv
_atom_site_adp_type
_atom_site_occupancy
C1     C     0.18171   0.26472   0.24886   0.00000  Uiso   1.00
C2     C     0.18261   0.21268   0.40662   0.00000  Uiso   1.00
C3     C     0.16470   0.16691   0.11617   0.00000  Uiso   1.00
C4     C     0.16863   0.16642   0.38383   0.00000  Uiso   1.00
C5     C     0.17895   0.21317   0.09391   0.00000  Uiso   1.00
C6     C     0.15438   0.12017   0.40609   0.00000  Uiso   1.00
C7     C     0.17964   0.21352   0.04723   0.00000  Uiso   1.00
C8     C     0.15369   0.11981   0.45277   0.00000  Uiso   1.00
C9     C     0.16609   0.16675   0.02347   0.00000  Uiso   1.00
C10    C     0.16724   0.16658   0.47653   0.00000  Uiso   1.00
C11    C     0.15150   0.12013   0.04667   0.00000  Uiso   1.00
C12    C     0.15162   0.06861   0.25114   0.00000  Uiso   1.00
C13    C     0.18183   0.21321   0.45333   0.00000  Uiso   1.00
C14    C     0.19388   0.25949   0.02395   0.00000  Uiso   1.00
C15    C     0.13945   0.07384   0.47605   0.00000  Uiso   1.00
C16    C     0.19497   0.25934   0.47720   0.00000  Uiso   1.00
C17    C     0.13837   0.07400   0.02280   0.00000  Uiso   1.00
C18    C     0.18979   0.31884   0.24831   0.00000  Uiso   1.00
C19    C     0.14355   0.01449   0.25169   0.00000  Uiso   1.00
C20    C     0.16730   0.16672   0.33632   0.00000  Uiso   1.00
C21    C     0.16603   0.16662   0.16368   0.00000  Uiso   1.00
C22    C     0.15072   0.12066   0.09338   0.00000  Uiso   1.00
F23    F     0.13733   0.07645   0.11679   0.00000  Uiso   1.00
F24    F     0.19600   0.25688   0.38321   0.00000  Uiso   1.00
F25    F     0.19223   0.25734   0.11786   0.00000  Uiso   1.00
F26    F     0.14110   0.07599   0.38214   0.00000  Uiso   1.00
F27    F     0.24535   0.00540   0.24438   0.00000  Uiso   1.00
F28    F     0.08799   0.32793   0.25562   0.00000  Uiso   1.00
F29    F     0.01008   0.11936   0.20948   0.00000  Uiso   1.00
F30    F     0.32326   0.21397   0.29052   0.00000  Uiso   1.00
H31    H     0.20427   0.29557   0.04176   0.00000  Uiso   1.00
H32    H     0.12907   0.03776   0.45824   0.00000  Uiso   1.00
H33    H     0.20609   0.29532   0.45984   0.00000  Uiso   1.00
H34    H     0.12724   0.03802   0.04016   0.00000  Uiso   1.00
N35    N     0.31678   0.15265   0.23783   0.00000  Uiso   1.00
N36    N     0.01656   0.18068   0.26217   0.00000  Uiso   1.00
O37    O     0.12975   0.24619   0.25299   0.00000  Uiso   1.00
O38    O     0.20358   0.08714   0.24702   0.00000  Uiso   1.00
O39    O     0.22613   0.23721   0.24519   0.00000  Uiso   1.00
O40    O     0.10720   0.09613   0.25482   0.00000  Uiso   1.00
O41    O     0.11847   0.17117   0.31998   0.00000  Uiso   1.00
O42    O     0.21486   0.16216   0.18003   0.00000  Uiso   1.00
O43    O     0.21485   0.16219   0.31218   0.00000  Uiso   1.00
O44    O     0.11848   0.17115   0.18783   0.00000  Uiso   1.00
Zn45   Zn    0.10231   0.17266   0.25521   0.00000  Uiso   1.00
Zn46   Zn    0.23102   0.16067   0.24479   0.00000  Uiso   1.00
C47    C     0.51504   0.26472   0.24886   0.00000  Uiso   1.00
C48    C     0.51594   0.21268   0.40662   0.00000  Uiso   1.00
C49    C     0.49804   0.16691   0.11617   0.00000  Uiso   1.00
C50    C     0.50196   0.16642   0.38383   0.00000  Uiso   1.00
C51    C     0.51228   0.21317   0.09391   0.00000  Uiso   1.00
C52    C     0.48772   0.12017   0.40609   0.00000  Uiso   1.00
C53    C     0.51298   0.21352   0.04723   0.00000  Uiso   1.00
C54    C     0.48702   0.11981   0.45277   0.00000  Uiso   1.00
C55    C     0.49942   0.16675   0.02347   0.00000  Uiso   1.00
C56    C     0.50058   0.16658   0.47653   0.00000  Uiso   1.00
C57    C     0.48484   0.12013   0.04667   0.00000  Uiso   1.00
C58    C     0.48496   0.06861   0.25114   0.00000  Uiso   1.00
C59    C     0.51516   0.21321   0.45333   0.00000  Uiso   1.00
C60    C     0.52721   0.25949   0.02395   0.00000  Uiso   1.00
C61    C     0.47279   0.07384   0.47605   0.00000  Uiso   1.00
C62    C     0.52830   0.25934   0.47720   0.00000  Uiso   1.00
C63    C     0.47170   0.07400   0.02280   0.00000  Uiso   1.00
C64    C     0.52312   0.31884   0.24831   0.00000  Uiso   1.00
C65    C     0.47688   0.01449   0.25169   0.00000  Uiso   1.00
C66    C     0.50063   0.16672   0.33632   0.00000  Uiso   1.00
C67    C     0.49937   0.16662   0.16368   0.00000  Uiso   1.00
C68    C     0.48406   0.12066   0.09338   0.00000  Uiso   1.00
F69    F     0.47066   0.07645   0.11679   0.00000  Uiso   1.00
F70    F     0.52934   0.25688   0.38321   0.00000  Uiso   1.00
F71    F     0.52556   0.25734   0.11786   0.00000  Uiso   1.00
F72    F     0.47444   0.07599   0.38214   0.00000  Uiso   1.00
F73    F     0.57868   0.00540   0.24438   0.00000  Uiso   1.00
F74    F     0.42132   0.32793   0.25562   0.00000  Uiso   1.00
F75    F     0.34341   0.11936   0.20948   0.00000  Uiso   1.00
F76    F     0.65659   0.21397   0.29052   0.00000  Uiso   1.00
H77    H     0.53760   0.29557   0.04176   0.00000  Uiso   1.00
H78    H     0.46240   0.03776   0.45824   0.00000  Uiso   1.00
H79    H     0.53943   0.29532   0.45984   0.00000  Uiso   1.00
H80    H     0.46058   0.03802   0.04016   0.00000  Uiso   1.00
N81    N     0.65011   0.15265   0.23783   0.00000  Uiso   1.00
N82    N     0.34989   0.18068   0.26217   0.00000  Uiso   1.00
O83    O     0.46308   0.24619   0.25299   0.00000  Uiso   1.00
O84    O     0.53692   0.08714   0.24702   0.00000  Uiso   1.00
O85    O     0.55946   0.23721   0.24519   0.00000  Uiso   1.00
O86    O     0.44054   0.09613   0.25482   0.00000  Uiso   1.00
O87    O     0.45181   0.17117   0.31998   0.00000  Uiso   1.00
O88    O     0.54819   0.16216   0.18003   0.00000  Uiso   1.00
O89    O     0.54819   0.16219   0.31218   0.00000  Uiso   1.00
O90    O     0.45181   0.17115   0.18783   0.00000  Uiso   1.00
Zn91   Zn    0.43565   0.17266   0.25521   0.00000  Uiso   1.00
Zn92   Zn    0.56435   0.16067   0.24479   0.00000  Uiso   1.00
C93    C     0.84838   0.26472   0.24886   0.00000  Uiso   1.00
C94    C     0.84928   0.21268   0.40662   0.00000  Uiso   1.00
C95    C     0.83137   0.16691   0.11617   0.00000  Uiso   1.00
C96    C     0.83530   0.16642   0.38383   0.00000  Uiso   1.00
C97    C     0.84562   0.21317   0.09391   0.00000  Uiso   1.00
C98    C     0.82105   0.12017   0.40609   0.00000  Uiso   1.00
C99    C     0.84631   0.21352   0.04723   0.00000  Uiso   1.00
C100   C     0.82036   0.11981   0.45277   0.00000  Uiso   1.00
C101   C     0.83276   0.16675   0.02347   0.00000  Uiso   1.00
C102   C     0.83391   0.16658   0.47653   0.00000  Uiso   1.00
C103   C     0.81817   0.12013   0.04667   0.00000  Uiso   1.00
C104   C     0.81829   0.06861   0.25114   0.00000  Uiso   1.00
C105   C     0.84850   0.21321   0.45333   0.00000  Uiso   1.00
C106   C     0.86055   0.25949   0.02395   0.00000  Uiso   1.00
C107   C     0.80612   0.07384   0.47605   0.00000  Uiso   1.00
C108   C     0.86163   0.25934   0.47720   0.00000  Uiso   1.00
C109   C     0.80503   0.07400   0.02280   0.00000  Uiso   1.00
C110   C     0.85645   0.31884   0.24831   0.00000  Uiso   1.00
C111   C     0.81021   0.01449   0.25169   0.00000  Uiso   1.00
C112   C     0.83397   0.16672   0.33632   0.00000  Uiso   1.00
C113   C     0.83270   0.16662   0.16368   0.00000  Uiso   1.00
C114   C     0.81739   0.12066   0.09338   0.00000  Uiso   1.00
F115   F     0.80400   0.07645   0.11679   0.00000  Uiso   1.00
F116   F     0.86267   0.25688   0.38321   0.00000  Uiso   1.00
F117   F     0.85890   0.25734   0.11786   0.00000  Uiso   1.00
F118   F     0.80777   0.07599   0.38214   0.00000  Uiso   1.00
F119   F     0.91201   0.00540   0.24438   0.00000  Uiso   1.00
F120   F     0.75465   0.32793   0.25562   0.00000  Uiso   1.00
F121   F     0.67674   0.11936   0.20948   0.00000  Uiso   1.00
F122   F     0.98992   0.21397   0.29052   0.00000  Uiso   1.00
H123   H     0.87093   0.29557   0.04176   0.00000  Uiso   1.00
H124   H     0.79573   0.03776   0.45824   0.00000  Uiso   1.00
H125   H     0.87276   0.29532   0.45984   0.00000  Uiso   1.00
H126   H     0.79391   0.03802   0.04016   0.00000  Uiso   1.00
N127   N     0.98344   0.15265   0.23783   0.00000  Uiso   1.00
N128   N     0.68322   0.18068   0.26217   0.00000  Uiso   1.00
O129   O     0.79642   0.24619   0.25299   0.00000  Uiso   1.00
O130   O     0.87025   0.08714   0.24702   0.00000  Uiso   1.00
O131   O     0.89280   0.23721   0.24519   0.00000  Uiso   1.00
O132   O     0.77387   0.09613   0.25482   0.00000  Uiso   1.00
O133   O     0.78514   0.17117   0.31998   0.00000  Uiso   1.00
O134   O     0.88153   0.16216   0.18003   0.00000  Uiso   1.00
O135   O     0.88152   0.16219   0.31218   0.00000  Uiso   1.00
O136   O     0.78515   0.17115   0.18783   0.00000  Uiso   1.00
Zn137  Zn    0.76898   0.17266   0.25521   0.00000  Uiso   1.00
Zn138  Zn    0.89769   0.16067   0.24479   0.00000  Uiso   1.00
C139   C     0.18171   0.59806   0.24886   0.00000  Uiso   1.00
C140   C     0.18261   0.54601   0.40662   0.00000  Uiso   1.00
C141   C     0.16470   0.50025   0.11617   0.00000  Uiso   1.00
C142   C     0.16863   0.49976   0.38383   0.00000  Uiso   1.00
C143   C     0.17895   0.54650   0.09391   0.00000  Uiso   1.00
C144   C     0.15438   0.45350   0.40609   0.00000  Uiso   1.00
C145   C     0.17964   0.54685   0.04723   0.00000  Uiso   1.00
C146   C     0.15369   0.45315   0.45277   0.00000  Uiso   1.00
C147   C     0.16609   0.50008   0.02347   0.00000  Uiso   1.00
C148   C     0.16724   0.49992   0.47653   0.00000  Uiso   1.00
C149   C     0.15150   0.45346   0.04667   0.00000  Uiso   1.00
C150   C     0.15162   0.40194   0.25114   0.00000  Uiso   1.00
C151   C     0.18183   0.54654   0.45333   0.00000  Uiso   1.00
C152   C     0.19388   0.59283   0.02395   0.00000  Uiso   1.00
C153   C     0.13945   0.40717   0.47605   0.00000  Uiso   1.00
C154   C     0.19497   0.59267   0.47720   0.00000  Uiso   1.00
C155   C     0.13837   0.40733   0.02280   0.00000  Uiso   1.00
C156   C     0.18979   0.65217   0.24831   0.00000  Uiso   1.00
C157   C     0.14355   0.34783   0.25169   0.00000  Uiso   1.00
C158   C     0.16730   0.50005   0.33632   0.00000  Uiso   1.00
C159   C     0.16603   0.49995   0.16368   0.00000  Uiso   1.00
C160   C     0.15072   0.45399   0.09338   0.00000  Uiso   1.00
F161   F     0.13733   0.40979   0.11679   0.00000  Uiso   1.00
F162   F     0.19600   0.59022   0.38321   0.00000  Uiso   1.00
F163   F     0.19223   0.59068   0.11786   0.00000  Uiso   1.00
F164   F     0.14110   0.40932   0.38214   0.00000  Uiso   1.00
F165   F     0.24535   0.33873   0.24438   0.00000  Uiso   1.00
F166   F     0.08799   0.66127   0.25562   0.00000  Uiso   1.00
F167   F     0.01008   0.45270   0.20948   0.00000  Uiso   1.00
F168   F     0.32326   0.54731   0.29052   0.00000  Uiso   1.00
H169   H     0.20427   0.62891   0.04176   0.00000  Uiso   1.00
H170   H     0.12907   0.37109   0.45824   0.00000  Uiso   1.00
H171   H     0.20609   0.62865   0.45984   0.00000  Uiso   1.00
H172   H     0.12724   0.37135   0.04016   0.00000  Uiso   1.00
N173   N     0.31678   0.48598   0.23783   0.00000  Uiso   1.00
N174   N     0.01656   0.51402   0.26217   0.00000  Uiso   1.00
O175   O     0.12975   0.57952   0.25299   0.00000  Uiso   1.00
O176   O     0.20358   0.42048   0.24702   0.00000  Uiso   1.00
O177   O     0.22613   0.57054   0.24519   0.00000  Uiso   1.00
O178   O     0.10720   0.42946   0.25482   0.00000  Uiso   1.00
O179   O     0.11847   0.50450   0.31998   0.00000  Uiso   1.00
O180   O     0.21486   0.49550   0.18003   0.00000  Uiso   1.00
O181   O     0.21485   0.49552   0.31218   0.00000  Uiso   1.00
O182   O     0.11848   0.50448   0.18783   0.00000  Uiso   1.00
Zn183  Zn    0.10231   0.50600   0.25521   0.00000  Uiso   1.00
Zn184  Zn    0.23102   0.49400   0.24479   0.00000  Uiso   1.00
C185   C     0.51504   0.59806   0.24886   0.00000  Uiso   1.00
C186   C     0.51594   0.54601   0.40662   0.00000  Uiso   1.00
C187   C     0.49804   0.50025   0.11617   0.00000  Uiso   1.00
C188   C     0.50196   0.49976   0.38383   0.00000  Uiso   1.00
C189   C     0.51228   0.54650   0.09391   0.00000  Uiso   1.00
C190   C     0.48772   0.45350   0.40609   0.00000  Uiso   1.00
C191   C     0.51298   0.54685   0.04723   0.00000  Uiso   1.00
C192   C     0.48702   0.45315   0.45277   0.00000  Uiso   1.00
C193   C     0.49942   0.50008   0.02347   0.00000  Uiso   1.00
C194   C     0.50058   0.49992   0.47653   0.00000  Uiso   1.00
C195   C     0.48484   0.45346   0.04667   0.00000  Uiso   1.00
C196   C     0.48496   0.40194   0.25114   0.00000  Uiso   1.00
C197   C     0.51516   0.54654   0.45333   0.00000  Uiso   1.00
C198   C     0.52721   0.59283   0.02395   0.00000  Uiso   1.00
C199   C     0.47279   0.40717   0.47605   0.00000  Uiso   1.00
C200   C     0.52830   0.59267   0.47720   0.00000  Uiso   1.00
C201   C     0.47170   0.40733   0.02280   0.00000  Uiso   1.00
C202   C     0.52312   0.65217   0.24831   0.00000  Uiso   1.00
C203   C     0.47688   0.34783   0.25169   0.00000  Uiso   1.00
C204   C     0.50063   0.50005   0.33632   0.00000  Uiso   1.00
C205   C     0.49937   0.49995   0.16368   0.00000  Uiso   1.00
C206   C     0.48406   0.45399   0.09338   0.00000  Uiso   1.00
F207   F     0.47066   0.40979   0.11679   0.00000  Uiso   1.00
F208   F     0.52934   0.59022   0.38321   0.00000  Uiso   1.00
F209   F     0.52556   0.59068   0.11786   0.00000  Uiso   1.00
F210   F     0.47444   0.40932   0.38214   0.00000  Uiso   1.00
F211   F     0.57868   0.33873   0.24438   0.00000  Uiso   1.00
F212   F     0.42132   0.66127   0.25562   0.00000  Uiso   1.00
F213   F     0.34341   0.45270   0.20948   0.00000  Uiso   1.00
F214   F     0.65659   0.54731   0.29052   0.00000  Uiso   1.00
H215   H     0.53760   0.62891   0.04176   0.00000  Uiso   1.00
H216   H     0.46240   0.37109   0.45824   0.00000  Uiso   1.00
H217   H     0.53943   0.62865   0.45984   0.00000  Uiso   1.00
H218   H     0.46058   0.37135   0.04016   0.00000  Uiso   1.00
N219   N     0.65011   0.48598   0.23783   0.00000  Uiso   1.00
N220   N     0.34989   0.51402   0.26217   0.00000  Uiso   1.00
O221   O     0.46308   0.57952   0.25299   0.00000  Uiso   1.00
O222   O     0.53692   0.42048   0.24702   0.00000  Uiso   1.00
O223   O     0.55946   0.57054   0.24519   0.00000  Uiso   1.00
O224   O     0.44054   0.42946   0.25482   0.00000  Uiso   1.00
O225   O     0.45181   0.50450   0.31998   0.00000  Uiso   1.00
O226   O     0.54819   0.49550   0.18003   0.00000  Uiso   1.00
O227   O     0.54819   0.49552   0.31218   0.00000  Uiso   1.00
O228   O     0.45181   0.50448   0.18783   0.00000  Uiso   1.00
Zn229  Zn    0.43565   0.50600   0.25521   0.00000  Uiso   1.00
Zn230  Zn    0.56435   0.49400   0.24479   0.00000  Uiso   1.00
C231   C     0.84838   0.59806   0.24886   0.00000  Uiso   1.00
C232   C     0.84928   0.54601   0.40662   0.00000  Uiso   1.00
C233   C     0.83137   0.50025   0.11617   0.00000  Uiso   1.00
C234   C     0.83530   0.49976   0.38383   0.00000  Uiso   1.00
C235   C     0.84562   0.54650   0.09391   0.00000  Uiso   1.00
C236   C     0.82105   0.45350   0.40609   0.00000  Uiso   1.00
C237   C     0.84631   0.54685   0.04723   0.00000  Uiso   1.00
C238   C     0.82036   0.45315   0.45277   0.00000  Uiso   1.00
C239   C     0.83276   0.50008   0.02347   0.00000  Uiso   1.00
C240   C     0.83391   0.49992   0.47653   0.00000  Uiso   1.00
C241   C     0.81817   0.45346   0.04667   0.00000  Uiso   1.00
C242   C     0.81829   0.40194   0.25114   0.00000  Uiso   1.00
C243   C     0.84850   0.54654   0.45333   0.00000  Uiso   1.00
C244   C     0.86055   0.59283   0.02395   0.00000  Uiso   1.00
C245   C     0.80612   0.40717   0.47605   0.00000  Uiso   1.00
C246   C     0.86163   0.59267   0.47720   0.00000  Uiso   1.00
C247   C     0.80503   0.40733   0.02280   0.00000  Uiso   1.00
C248   C     0.85645   0.65217   0.24831   0.00000  Uiso   1.00
C249   C     0.81021   0.34783   0.25169   0.00000  Uiso   1.00
C250   C     0.83397   0.50005   0.33632   0.00000  Uiso   1.00
C251   C     0.83270   0.49995   0.16368   0.00000  Uiso   1.00
C252   C     0.81739   0.45399   0.09338   0.00000  Uiso   1.00
F253   F     0.80400   0.40979   0.11679   0.00000  Uiso   1.00
F254   F     0.86267   0.59022   0.38321   0.00000  Uiso   1.00
F255   F     0.85890   0.59068   0.11786   0.00000  Uiso   1.00
F256   F     0.80777   0.40932   0.38214   0.00000  Uiso   1.00
F257   F     0.91201   0.33873   0.24438   0.00000  Uiso   1.00
F258   F     0.75465   0.66127   0.25562   0.00000  Uiso   1.00
F259   F     0.67674   0.45270   0.20948   0.00000  Uiso   1.00
F260   F     0.98992   0.54731   0.29052   0.00000  Uiso   1.00
H261   H     0.87093   0.62891   0.04176   0.00000  Uiso   1.00
H262   H     0.79573   0.37109   0.45824   0.00000  Uiso   1.00
H263   H     0.87276   0.62865   0.45984   0.00000  Uiso   1.00
H264   H     0.79391   0.37135   0.04016   0.00000  Uiso   1.00
N265   N     0.98344   0.48598   0.23783   0.00000  Uiso   1.00
N266   N     0.68322   0.51402   0.26217   0.00000  Uiso   1.00
O267   O     0.79642   0.57952   0.25299   0.00000  Uiso   1.00
O268   O     0.87025   0.42048   0.24702   0.00000  Uiso   1.00
O269   O     0.89280   0.57054   0.24519   0.00000  Uiso   1.00
O270   O     0.77387   0.42946   0.25482   0.00000  Uiso   1.00
O271   O     0.78514   0.50450   0.31998   0.00000  Uiso   1.00
O272   O     0.88153   0.49550   0.18003   0.00000  Uiso   1.00
O273   O     0.88152   0.49552   0.31218   0.00000  Uiso   1.00
O274   O     0.78515   0.50448   0.18783   0.00000  Uiso   1.00
Zn275  Zn    0.76898   0.50600   0.25521   0.00000  Uiso   1.00
Zn276  Zn    0.89769   0.49400   0.24479   0.00000  Uiso   1.00
C277   C     0.18171   0.93139   0.24886   0.00000  Uiso   1.00
C278   C     0.18261   0.87934   0.40662   0.00000  Uiso   1.00
C279   C     0.16470   0.83358   0.11617   0.00000  Uiso   1.00
C280   C     0.16863   0.83309   0.38383   0.00000  Uiso   1.00
C281   C     0.17895   0.87983   0.09391   0.00000  Uiso   1.00
C282   C     0.15438   0.78683   0.40609   0.00000  Uiso   1.00
C283   C     0.17964   0.88019   0.04723   0.00000  Uiso   1.00
C284   C     0.15369   0.78648   0.45277   0.00000  Uiso   1.00
C285   C     0.16609   0.83342   0.02347   0.00000  Uiso   1.00
C286   C     0.16724   0.83325   0.47653   0.00000  Uiso   1.00
C287   C     0.15150   0.78679   0.04667   0.00000  Uiso   1.00
C288   C     0.15162   0.73528   0.25114   0.00000  Uiso   1.00
C289   C     0.18183   0.87987   0.45333   0.00000  Uiso   1.00
C290   C     0.19388   0.92616   0.02395   0.00000  Uiso   1.00
C291   C     0.13945   0.74051   0.47605   0.00000  Uiso   1.00
C292   C     0.19497   0.92600   0.47720   0.00000  Uiso   1.00
C293   C     0.13837   0.74066   0.02280   0.00000  Uiso   1.00
C294   C     0.18979   0.98551   0.24831   0.00000  Uiso   1.00
C295   C     0.14355   0.68116   0.25169   0.00000  Uiso   1.00
C296   C     0.16730   0.83338   0.33632   0.00000  Uiso   1.00
C297   C     0.16603   0.83328   0.16368   0.00000  Uiso   1.00
C298   C     0.15072   0.78732   0.09338   0.00000  Uiso   1.00
F299   F     0.13733   0.74312   0.11679   0.00000  Uiso   1.00
F300   F     0.19600   0.92355   0.38321   0.00000  Uiso   1.00
F301   F     0.19223   0.92401   0.11786   0.00000  Uiso   1.00
F302   F     0.14110   0.74266   0.38214   0.00000  Uiso   1.00
F303   F     0.24535   0.67207   0.24438   0.00000  Uiso   1.00
F304   F     0.08799   0.99460   0.25562   0.00000  Uiso   1.00
F305   F     0.01008   0.78603   0.20948   0.00000  Uiso   1.00
F306   F     0.32326   0.88064   0.29052   0.00000  Uiso   1.00
H307   H     0.20427   0.96224   0.04176   0.00000  Uiso   1.00
H308   H     0.12907   0.70443   0.45824   0.00000  Uiso   1.00
H309   H     0.20609   0.96198   0.45984   0.00000  Uiso   1.00
H310   H     0.12724   0.70468   0.04016   0.00000  Uiso   1.00
N311   N     0.31678   0.81932   0.23783   0.00000  Uiso   1.00
N312   N     0.01656   0.84735   0.26217   0.00000  Uiso   1.00
O313   O     0.12975   0.91286   0.25299   0.00000  Uiso   1.00
O314   O     0.20358   0.75381   0.24702   0.00000  Uiso   1.00
O315   O     0.22613   0.90387   0.24519   0.00000  Uiso   1.00
O316   O     0.10720   0.76279   0.25482   0.00000  Uiso   1.00
O317   O     0.11847   0.83784   0.31998   0.00000  Uiso   1.00
O318   O     0.21486   0.82883   0.18003   0.00000  Uiso   1.00
O319   O     0.21485   0.82885   0.31218   0.00000  Uiso   1.00
O320   O     0.11848   0.83781   0.18783   0.00000  Uiso   1.00
Zn321  Zn    0.10231   0.83933   0.25521   0.00000  Uiso   1.00
Zn322  Zn    0.23102   0.82734   0.24479   0.00000  Uiso   1.00
C323   C     0.51504   0.93139   0.24886   0.00000  Uiso   1.00
C324   C     0.51594   0.87934   0.40662   0.00000  Uiso   1.00
C325   C     0.49804   0.83358   0.11617   0.00000  Uiso   1.00
C326   C     0.50196   0.83309   0.38383   0.00000  Uiso   1.00
C327   C     0.51228   0.87983   0.09391   0.00000  Uiso   1.00
C328   C     0.48772   0.78683   0.40609   0.00000  Uiso   1.00
C329   C     0.51298   0.88019   0.04723   0.00000  Uiso   1.00
C330   C     0.48702   0.78648   0.45277   0.00000  Uiso   1.00
C331   C     0.49942   0.83342   0.02347   0.00000  Uiso   1.00
C332   C     0.50058   0.83325   0.47653   0.00000  Uiso   1.00
C333   C     0.48484   0.78679   0.04667   0.00000  Uiso   1.00
C334   C     0.48496   0.73528   0.25114   0.00000  Uiso   1.00
C335   C     0.51516   0.87987   0.45333   0.00000  Uiso   1.00
C336   C     0.52721   0.92616   0.02395   0.00000  Uiso   1.00
C337   C     0.47279   0.74051   0.47605   0.00000  Uiso   1.00
C338   C     0.52830   0.92600   0.47720   0.00000  Uiso   1.00
C339   C     0.47170   0.74066   0.02280   0.00000  Uiso   1.00
C340   C     0.52312   0.98551   0.24831   0.00000  Uiso   1.00
C341   C     0.47688   0.68116   0.25169   0.00000  Uiso   1.00
C342   C     0.50063   0.83338   0.33632   0.00000  Uiso   1.00
C343   C     0.49937   0.83328   0.16368   0.00000  Uiso   1.00
C344   C     0.48406   0.78732   0.09338   0.00000  Uiso   1.00
F345   F     0.47066   0.74312   0.11679   0.00000  Uiso   1.00
F346   F     0.52934   0.92355   0.38321   0.00000  Uiso   1.00
F347   F     0.52556   0.92401   0.11786   0.00000  Uiso   1.00
F348   F     0.47444   0.74266   0.38214   0.00000  Uiso   1.00
F349   F     0.57868   0.67207   0.24438   0.00000  Uiso   1.00
F350   F     0.42132   0.99460   0.25562   0.00000  Uiso   1.00
F351   F     0.34341   0.78603   0.20948   0.00000  Uiso   1.00
F352   F     0.65659   0.88064   0.29052   0.00000  Uiso   1.00
H353   H     0.53760   0.96224   0.04176   0.00000  Uiso   1.00
H354   H     0.46240   0.70443   0.45824   0.00000  Uiso   1.00
H355   H     0.53943   0.96198   0.45984   0.00000  Uiso   1.00
H356   H     0.46058   0.70468   0.04016   0.00000  Uiso   1.00
N357   N     0.65011   0.81932   0.23783   0.00000  Uiso   1.00
N358   N     0.34989   0.84735   0.26217   0.00000  Uiso   1.00
O359   O     0.46308   0.91286   0.25299   0.00000  Uiso   1.00
O360   O     0.53692   0.75381   0.24702   0.00000  Uiso   1.00
O361   O     0.55946   0.90387   0.24519   0.00000  Uiso   1.00
O362   O     0.44054   0.76279   0.25482   0.00000  Uiso   1.00
O363   O     0.45181   0.83784   0.31998   0.00000  Uiso   1.00
O364   O     0.54819   0.82883   0.18003   0.00000  Uiso   1.00
O365   O     0.54819   0.82885   0.31218   0.00000  Uiso   1.00
O366   O     0.45181   0.83781   0.18783   0.00000  Uiso   1.00
Zn367  Zn    0.43565   0.83933   0.25521   0.00000  Uiso   1.00
Zn368  Zn    0.56435   0.82734   0.24479   0.00000  Uiso   1.00
C369   C     0.84838   0.93139   0.24886   0.00000  Uiso   1.00
C370   C     0.84928   0.87934   0.40662   0.00000  Uiso   1.00
C371   C     0.83137   0.83358   0.11617   0.00000  Uiso   1.00
C372   C     0.83530   0.83309   0.38383   0.00000  Uiso   1.00
C373   C     0.84562   0.87983   0.09391   0.00000  Uiso   1.00
C374   C     0.82105   0.78683   0.40609   0.00000  Uiso   1.00
C375   C     0.84631   0.88019   0.04723   0.00000  Uiso   1.00
C376   C     0.82036   0.78648   0.45277   0.00000  Uiso   1.00
C377   C     0.83276   0.83342   0.02347   0.00000  Uiso   1.00
C378   C     0.83391   0.83325   0.47653   0.00000  Uiso   1.00
C379   C     0.81817   0.78679   0.04667   0.00000  Uiso   1.00
C380   C     0.81829   0.73528   0.25114   0.00000  Uiso   1.00
C381   C     0.84850   0.87987   0.45333   0.00000  Uiso   1.00
C382   C     0.86055   0.92616   0.02395   0.00000  Uiso   1.00
C383   C     0.80612   0.74051   0.47605   0.00000  Uiso   1.00
C384   C     0.86163   0.92600   0.47720   0.00000  Uiso   1.00
C385   C     0.80503   0.74066   0.02280   0.00000  Uiso   1.00
C386   C     0.85645   0.98551   0.24831   0.00000  Uiso   1.00
C387   C     0.81021   0.68116   0.25169   0.00000  Uiso   1.00
C388   C     0.83397   0.83338   0.33632   0.00000  Uiso   1.00
C389   C     0.83270   0.83328   0.16368   0.00000  Uiso   1.00
C390   C     0.81739   0.78732   0.09338   0.00000  Uiso   1.00
F391   F     0.80400   0.74312   0.11679   0.00000  Uiso   1.00
F392   F     0.86267   0.92355   0.38321   0.00000  Uiso   1.00
F393   F     0.85890   0.92401   0.11786   0.00000  Uiso   1.00
F394   F     0.80777   0.74266   0.38214   0.00000  Uiso   1.00
F395   F     0.91201   0.67207   0.24438   0.00000  Uiso   1.00
F396   F     0.75465   0.99460   0.25562   0.00000  Uiso   1.00
F397   F     0.67674   0.78603   0.20948   0.00000  Uiso   1.00
F398   F     0.98992   0.88064   0.29052   0.00000  Uiso   1.00
H399   H     0.87093   0.96224   0.04176   0.00000  Uiso   1.00
H400   H     0.79573   0.70443   0.45824   0.00000  Uiso   1.00
H401   H     0.87276   0.96198   0.45984   0.00000  Uiso   1.00
H402   H     0.79391   0.70468   0.04016   0.00000  Uiso   1.00
N403   N     0.98344   0.81932   0.23783   0.00000  Uiso   1.00
N404   N     0.68322   0.84735   0.26217   0.00000  Uiso   1.00
O405   O     0.79642   0.91286   0.25299   0.00000  Uiso   1.00
O406   O     0.87025   0.75381   0.24702   0.00000  Uiso   1.00
O407   O     0.89280   0.90387   0.24519   0.00000  Uiso   1.00
O408   O     0.77387   0.76279   0.25482   0.00000  Uiso   1.00
O409   O     0.78514   0.83784   0.31998   0.00000  Uiso   1.00
O410   O     0.88153   0.82883   0.18003   0.00000  Uiso   1.00
O411   O     0.88152   0.82885   0.31218   0.00000  Uiso   1.00
O412   O     0.78515   0.83781   0.18783   0.00000  Uiso   1.00
Zn413  Zn    0.76898   0.83933   0.25521   0.00000  Uiso   1.00
Zn414  Zn    0.89769   0.82734   0.24479   0.00000  Uiso   1.00
C415   C     0.18171   0.26472   0.74886   0.00000  Uiso   1.00
C416   C     0.18261   0.21268   0.90662   0.00000  Uiso   1.00
C417   C     0.16470   0.16691   0.61617   0.00000  Uiso   1.00
C418   C     0.16863   0.16642   0.88383   0.00000  Uiso   1.00
C419   C     0.17895   0.21317   0.59391   0.00000  Uiso   1.00
C420   C     0.15438   0.12017   0.90609   0.00000  Uiso   1.00
C421   C     0.17964   0.21352   0.54723   0.00000  Uiso   1.00
C422   C     0.15369   0.11981   0.95277   0.00000  Uiso   1.00
C423   C     0.16609   0.16675   0.52347   0.00000  Uiso   1.00
C424   C     0.16724   0.16658   0.97653   0.00000  Uiso   1.00
C425   C     0.15150   0.12013   0.54667   0.00000  Uiso   1.00
C426   C     0.15162   0.06861   0.75114   0.00000  Uiso   1.00
C427   C     0.18183   0.21321   0.95333   0.00000  Uiso   1.00
C428   C     0.19388   0.25949   0.52395   0.00000  Uiso   1.00
C429   C     0.13945   0.07384   0.97605   0.00000  Uiso   1.00
C430   C     0.19497   0.25934   0.97720   0.00000  Uiso   1.00
C431   C     0.13837   0.07400   0.52280   0.00000  Uiso   1.00
C432   C     0.18979   0.31884   0.74831   0.00000  Uiso   1.00
C433   C     0.14355   0.01449   0.75169   0.00000  Uiso   1.00
C434   C     0.16730   0.16672   0.83632   0.00000  Uiso   1.00
C435   C     0.16603   0.16662   0.66368   0.00000  Uiso   1.00
C436   C     0.15072   0.12066   0.59338   0.00000  Uiso   1.00
F437   F     0.13733   0.07645   0.61679   0.00000  Uiso   1.00
F438   F     0.19600   0.25688   0.88321   0.00000  Uiso   1.00
F439   F     0.19223   0.25734   0.61786   0.00000  Uiso   1.00
F440   F     0.14110   0.07599   0.88214   0.00000  Uiso   1.00
F441   F     0.24535   0.00540   0.74438   0.00000  Uiso   1.00
F442   F     0.08799   0.32793   0.75562   0.00000  Uiso   1.00
F443   F     0.01008   0.11936   0.70948   0.00000  Uiso   1.00
F444   F     0.32326   0.21397   0.79052   0.00000  Uiso   1.00
H445   H     0.20427   0.29557   0.54176   0.00000  Uiso   1.00
H446   H     0.12907   0.03776   0.95824   0.00000  Uiso   1.00
H447   H     0.20609   0.29532   0.95984   0.00000  Uiso   1.00
H448   H     0.12724   0.03802   0.54016   0.00000  Uiso   1.00
N449   N     0.31678   0.15265   0.73783   0.00000  Uiso   1.00
N450   N     0.01656   0.18068   0.76217   0.00000  Uiso   1.00
O451   O     0.12975   0.24619   0.75299   0.00000  Uiso   1.00
O452   O     0.20358   0.08714   0.74702   0.00000  Uiso   1.00
O453   O     0.22613   0.23721   0.74519   0.00000  Uiso   1.00
O454   O     0.10720   0.09613   0.75482   0.00000  Uiso   1.00
O455   O     0.11847   0.17117   0.81998   0.00000  Uiso   1.00
O456   O     0.21486   0.16216   0.68003   0.00000  Uiso   1.00
O457   O     0.21485   0.16219   0.81218   0.00000  Uiso   1.00
O458   O     0.11848   0.17115   0.68783   0.00000  Uiso   1.00
Zn459  Zn    0.10231   0.17266   0.75521   0.00000  Uiso   1.00
Zn460  Zn    0.23102   0.16067   0.74479   0.00000  Uiso   1.00
C461   C     0.51504   0.26472   0.74886   0.00000  Uiso   1.00
C462   C     0.51594   0.21268   0.90662   0.00000  Uiso   1.00
C463   C     0.49804   0.16691   0.61617   0.00000  Uiso   1.00
C464   C     0.50196   0.16642   0.88383   0.00000  Uiso   1.00
C465   C     0.51228   0.21317   0.59391   0.00000  Uiso   1.00
C466   C     0.48772   0.12017   0.90609   0.00000  Uiso   1.00
C467   C     0.51298   0.21352   0.54723   0.00000  Uiso   1.00
C468   C     0.48702   0.11981   0.95277   0.00000  Uiso   1.00
C469   C     0.49942   0.16675   0.52347   0.00000  Uiso   1.00
C470   C     0.50058   0.16658   0.97653   0.00000  Uiso   1.00
C471   C     0.48484   0.12013   0.54667   0.00000  Uiso   1.00
C472   C     0.48496   0.06861   0.75114   0.00000  Uiso   1.00
C473   C     0.51516   0.21321   0.95333   0.00000  Uiso   1.00
C474   C     0.52721   0.25949   0.52395   0.00000  Uiso   1.00
C475   C     0.47279   0.07384   0.97605   0.00000  Uiso   1.00
C476   C     0.52830   0.25934   0.97720   0.00000  Uiso   1.00
C477   C     0.47170   0.07400   0.52280   0.00000  Uiso   1.00
C478   C     0.52312   0.31884   0.74831   0.00000  Uiso   1.00
C479   C     0.47688   0.01449   0.75169   0.00000  Uiso   1.00
C480   C     0.50063   0.16672   0.83632   0.00000  Uiso   1.00
C481   C     0.49937   0.16662   0.66368   0.00000  Uiso   1.00
C482   C     0.48406   0.12066   0.59338   0.00000  Uiso   1.00
F483   F     0.47066   0.07645   0.61679   0.00000  Uiso   1.00
F484   F     0.52934   0.25688   0.88321   0.00000  Uiso   1.00
F485   F     0.52556   0.25734   0.61786   0.00000  Uiso   1.00
F486   F     0.47444   0.07599   0.88214   0.00000  Uiso   1.00
F487   F     0.57868   0.00540   0.74438   0.00000  Uiso   1.00
F488   F     0.42132   0.32793   0.75562   0.00000  Uiso   1.00
F489   F     0.34341   0.11936   0.70948   0.00000  Uiso   1.00
F490   F     0.65659   0.21397   0.79052   0.00000  Uiso   1.00
H491   H     0.53760   0.29557   0.54176   0.00000  Uiso   1.00
H492   H     0.46240   0.03776   0.95824   0.00000  Uiso   1.00
H493   H     0.53943   0.29532   0.95984   0.00000  Uiso   1.00
H494   H     0.46058   0.03802   0.54016   0.00000  Uiso   1.00
N495   N     0.65011   0.15265   0.73783   0.00000  Uiso   1.00
N496   N     0.34989   0.18068   0.76217   0.00000  Uiso   1.00
O497   O     0.46308   0.24619   0.75299   0.00000  Uiso   1.00
O498   O     0.53692   0.08714   0.74702   0.00000  Uiso   1.00
O499   O     0.55946   0.23721   0.74519   0.00000  Uiso   1.00
O500   O     0.44054   0.09613   0.75482   0.00000  Uiso   1.00
O501   O     0.45181   0.17117   0.81998   0.00000  Uiso   1.00
O502   O     0.54819   0.16216   0.68003   0.00000  Uiso   1.00
O503   O     0.54819   0.16219   0.81218   0.00000  Uiso   1.00
O504   O     0.45181   0.17115   0.68783   0.00000  Uiso   1.00
Zn505  Zn    0.43565   0.17266   0.75521   0.00000  Uiso   1.00
Zn506  Zn    0.56435   0.16067   0.74479   0.00000  Uiso   1.00
C507   C     0.84838   0.26472   0.74886   0.00000  Uiso   1.00
C508   C     0.84928   0.21268   0.90662   0.00000  Uiso   1.00
C509   C     0.83137   0.16691   0.61617   0.00000  Uiso   1.00
C510   C     0.83530   0.16642   0.88383   0.00000  Uiso   1.00
C511   C     0.84562   0.21317   0.59391   0.00000  Uiso   1.00
C512   C     0.82105   0.12017   0.90609   0.00000  Uiso   1.00
C513   C     0.84631   0.21352   0.54723   0.00000  Uiso   1.00
C514   C     0.82036   0.11981   0.95277   0.00000  Uiso   1.00
C515   C     0.83276   0.16675   0.52347   0.00000  Uiso   1.00
C516   C     0.83391   0.16658   0.97653   0.00000  Uiso   1.00
C517   C     0.81817   0.12013   0.54667   0.00000  Uiso   1.00
C518   C     0.81829   0.06861   0.75114   0.00000  Uiso   1.00
C519   C     0.84850   0.21321   0.95333   0.00000  Uiso   1.00
C520   C     0.86055   0.25949   0.52395   0.00000  Uiso   1.00
C521   C     0.80612   0.07384   0.97605   0.00000  Uiso   1.00
C522   C     0.86163   0.25934   0.97720   0.00000  Uiso   1.00
C523   C     0.80503   0.07400   0.52280   0.00000  Uiso   1.00
C524   C     0.85645   0.31884   0.74831   0.00000  Uiso   1.00
C525   C     0.81021   0.01449   0.75169   0.00000  Uiso   1.00
C526   C     0.83397   0.16672   0.83632   0.00000  Uiso   1.00
C527   C     0.83270   0.16662   0.66368   0.00000  Uiso   1.00
C528   C     0.81739   0.12066   0.59338   0.00000  Uiso   1.00
F529   F     0.80400   0.07645   0.61679   0.00000  Uiso   1.00
F530   F     0.86267   0.25688   0.88321   0.00000  Uiso   1.00
F531   F     0.85890   0.25734   0.61786   0.00000  Uiso   1.00
F532   F     0.80777   0.07599   0.88214   0.00000  Uiso   1.00
F533   F     0.91201   0.00540   0.74438   0.00000  Uiso   1.00
F534   F     0.75465   0.32793   0.75562   0.00000  Uiso   1.00
F535   F     0.67674   0.11936   0.70948   0.00000  Uiso   1.00
F536   F     0.98992   0.21397   0.79052   0.00000  Uiso   1.00
H537   H     0.87093   0.29557   0.54176   0.00000  Uiso   1.00
H538   H     0.79573   0.03776   0.95824   0.00000  Uiso   1.00
H539   H     0.87276   0.29532   0.95984   0.00000  Uiso   1.00
H540   H     0.79391   0.03802   0.54016   0.00000  Uiso   1.00
N541   N     0.98344   0.15265   0.73783   0.00000  Uiso   1.00
N542   N     0.68322   0.18068   0.76217   0.00000  Uiso   1.00
O543   O     0.79642   0.24619   0.75299   0.00000  Uiso   1.00
O544   O     0.87025   0.08714   0.74702   0.00000  Uiso   1.00
O545   O     0.89280   0.23721   0.74519   0.00000  Uiso   1.00
O546   O     0.77387   0.09613   0.75482   0.00000  Uiso   1.00
O547   O     0.78514   0.17117   0.81998   0.00000  Uiso   1.00
O548   O     0.88153   0.16216   0.68003   0.00000  Uiso   1.00
O549   O     0.88152   0.16219   0.81218   0.00000  Uiso   1.00
O550   O     0.78515   0.17115   0.68783   0.00000  Uiso   1.00
Zn551  Zn    0.76898   0.17266   0.75521   0.00000  Uiso   1.00
Zn552  Zn    0.89769   0.16067   0.74479   0.00000  Uiso   1.00
C553   C     0.18171   0.59806   0.74886   0.00000  Uiso   1.00
C554   C     0.18261   0.54601   0.90662   0.00000  Uiso   1.00
C555   C     0.16470   0.50025   0.61617   0.00000  Uiso   1.00
C556   C     0.16863   0.49976   0.88383   0.00000  Uiso   1.00
C557   C     0.17895   0.54650   0.59391   0.00000  Uiso   1.00
C558   C     0.15438   0.45350   0.90609   0.00000  Uiso   1.00
C559   C     0.17964   0.54685   0.54723   0.00000  Uiso   1.00
C560   C     0.15369   0.45315   0.95277   0.00000  Uiso   1.00
C561   C     0.16609   0.50008   0.52347   0.00000  Uiso   1.00
C562   C     0.16724   0.49992   0.97653   0.00000  Uiso   1.00
C563   C     0.15150   0.45346   0.54667   0.00000  Uiso   1.00
C564   C     0.15162   0.40194   0.75114   0.00000  Uiso   1.00
C565   C     0.18183   0.54654   0.95333   0.00000  Uiso   1.00
C566   C     0.19388   0.59283   0.52395   0.00000  Uiso   1.00
C567   C     0.13945   0.40717   0.97605   0.00000  Uiso   1.00
C568   C     0.19497   0.59267   0.97720   0.00000  Uiso   1.00
C569   C     0.13837   0.40733   0.52280   0.00000  Uiso   1.00
C570   C     0.18979   0.65217   0.74831   0.00000  Uiso   1.00
C571   C     0.14355   0.34783   0.75169   0.00000  Uiso   1.00
C572   C     0.16730   0.50005   0.83632   0.00000  Uiso   1.00
C573   C     0.16603   0.49995   0.66368   0.00000  Uiso   1.00
C574   C     0.15072   0.45399   0.59338   0.00000  Uiso   1.00
F575   F     0.13733   0.40979   0.61679   0.00000  Uiso   1.00
F576   F     0.19600   0.59022   0.88321   0.00000  Uiso   1.00
F577   F     0.19223   0.59068   0.61786   0.00000  Uiso   1.00
F578   F     0.14110   0.40932   0.88214   0.00000  Uiso   1.00
F579   F     0.24535   0.33873   0.74438   0.00000  Uiso   1.00
F580   F     0.08799   0.66127   0.75562   0.00000  Uiso   1.00
F581   F     0.01008   0.45270   0.70948   0.00000  Uiso   1.00
F582   F     0.32326   0.54731   0.79052   0.00000  Uiso   1.00
H583   H     0.20427   0.62891   0.54176   0.00000  Uiso   1.00
H584   H     0.12907   0.37109   0.95824   0.00000  Uiso   1.00
H585   H     0.20609   0.62865   0.95984   0.00000  Uiso   1.00
H586   H     0.12724   0.37135   0.54016   0.00000  Uiso   1.00
N587   N     0.31678   0.48598   0.73783   0.00000  Uiso   1.00
N588   N     0.01656   0.51402   0.76217   0.00000  Uiso   1.00
O589   O     0.12975   0.57952   0.75299   0.00000  Uiso   1.00
O590   O     0.20358   0.42048   0.74702   0.00000  Uiso   1.00
O591   O     0.22613   0.57054   0.74519   0.00000  Uiso   1.00
O592   O     0.10720   0.42946   0.75482   0.00000  Uiso   1.00
O593   O     0.11847   0.50450   0.81998   0.00000  Uiso   1.00
O594   O     0.21486   0.49550   0.68003   0.00000  Uiso   1.00
O595   O     0.21485   0.49552   0.81218   0.00000  Uiso   1.00
O596   O     0.11848   0.50448   0.68783   0.00000  Uiso   1.00
Zn597  Zn    0.10231   0.50600   0.75521   0.00000  Uiso   1.00
Zn598  Zn    0.23102   0.49400   0.74479   0.00000  Uiso   1.00
C599   C     0.51504   0.59806   0.74886   0.00000  Uiso   1.00
C600   C     0.51594   0.54601   0.90662   0.00000  Uiso   1.00
C601   C     0.49804   0.50025   0.61617   0.00000  Uiso   1.00
C602   C     0.50196   0.49976   0.88383   0.00000  Uiso   1.00
C603   C     0.51228   0.54650   0.59391   0.00000  Uiso   1.00
C604   C     0.48772   0.45350   0.90609   0.00000  Uiso   1.00
C605   C     0.51298   0.54685   0.54723   0.00000  Uiso   1.00
C606   C     0.48702   0.45315   0.95277   0.00000  Uiso   1.00
C607   C     0.49942   0.50008   0.52347   0.00000  Uiso   1.00
C608   C     0.50058   0.49992   0.97653   0.00000  Uiso   1.00
C609   C     0.48484   0.45346   0.54667   0.00000  Uiso   1.00
C610   C     0.48496   0.40194   0.75114   0.00000  Uiso   1.00
C611   C     0.51516   0.54654   0.95333   0.00000  Uiso   1.00
C612   C     0.52721   0.59283   0.52395   0.00000  Uiso   1.00
C613   C     0.47279   0.40717   0.97605   0.00000  Uiso   1.00
C614   C     0.52830   0.59267   0.97720   0.00000  Uiso   1.00
C615   C     0.47170   0.40733   0.52280   0.00000  Uiso   1.00
C616   C     0.52312   0.65217   0.74831   0.00000  Uiso   1.00
C617   C     0.47688   0.34783   0.75169   0.00000  Uiso   1.00
C618   C     0.50063   0.50005   0.83632   0.00000  Uiso   1.00
C619   C     0.49937   0.49995   0.66368   0.00000  Uiso   1.00
C620   C     0.48406   0.45399   0.59338   0.00000  Uiso   1.00
F621   F     0.47066   0.40979   0.61679   0.00000  Uiso   1.00
F622   F     0.52934   0.59022   0.88321   0.00000  Uiso   1.00
F623   F     0.52556   0.59068   0.61786   0.00000  Uiso   1.00
F624   F     0.47444   0.40932   0.88214   0.00000  Uiso   1.00
F625   F     0.57868   0.33873   0.74438   0.00000  Uiso   1.00
F626   F     0.42132   0.66127   0.75562   0.00000  Uiso   1.00
F627   F     0.34341   0.45270   0.70948   0.00000  Uiso   1.00
F628   F     0.65659   0.54731   0.79052   0.00000  Uiso   1.00
H629   H     0.53760   0.62891   0.54176   0.00000  Uiso   1.00
H630   H     0.46240   0.37109   0.95824   0.00000  Uiso   1.00
H631   H     0.53943   0.62865   0.95984   0.00000  Uiso   1.00
H632   H     0.46058   0.37135   0.54016   0.00000  Uiso   1.00
N633   N     0.65011   0.48598   0.73783   0.00000  Uiso   1.00
N634   N     0.34989   0.51402   0.76217   0.00000  Uiso   1.00
O635   O     0.46308   0.57952   0.75299   0.00000  Uiso   1.00
O636   O     0.53692   0.42048   0.74702   0.00000  Uiso   1.00
O637   O     0.55946   0.57054   0.74519   0.00000  Uiso   1.00
O638   O     0.44054   0.42946   0.75482   0.00000  Uiso   1.00
O639   O     0.45181   0.50450   0.81998   0.00000  Uiso   1.00
O640   O     0.54819   0.49550   0.68003   0.00000  Uiso   1.00
O641   O     0.54819   0.49552   0.81218   0.00000  Uiso   1.00
O642   O     0.45181   0.50448   0.68783   0.00000  Uiso   1.00
Zn643  Zn    0.43565   0.50600   0.75521   0.00000  Uiso   1.00
Zn644  Zn    0.56435   0.49400   0.74479   0.00000  Uiso   1.00
C645   C     0.84838   0.59806   0.74886   0.00000  Uiso   1.00
C646   C     0.84928   0.54601   0.90662   0.00000  Uiso   1.00
C647   C     0.83137   0.50025   0.61617   0.00000  Uiso   1.00
C648   C     0.83530   0.49976   0.88383   0.00000  Uiso   1.00
C649   C     0.84562   0.54650   0.59391   0.00000  Uiso   1.00
C650   C     0.82105   0.45350   0.90609   0.00000  Uiso   1.00
C651   C     0.84631   0.54685   0.54723   0.00000  Uiso   1.00
C652   C     0.82036   0.45315   0.95277   0.00000  Uiso   1.00
C653   C     0.83276   0.50008   0.52347   0.00000  Uiso   1.00
C654   C     0.83391   0.49992   0.97653   0.00000  Uiso   1.00
C655   C     0.81817   0.45346   0.54667   0.00000  Uiso   1.00
C656   C     0.81829   0.40194   0.75114   0.00000  Uiso   1.00
C657   C     0.84850   0.54654   0.95333   0.00000  Uiso   1.00
C658   C     0.86055   0.59283   0.52395   0.00000  Uiso   1.00
C659   C     0.80612   0.40717   0.97605   0.00000  Uiso   1.00
C660   C     0.86163   0.59267   0.97720   0.00000  Uiso   1.00
C661   C     0.80503   0.40733   0.52280   0.00000  Uiso   1.00
C662   C     0.85645   0.65217   0.74831   0.00000  Uiso   1.00
C663   C     0.81021   0.34783   0.75169   0.00000  Uiso   1.00
C664   C     0.83397   0.50005   0.83632   0.00000  Uiso   1.00
C665   C     0.83270   0.49995   0.66368   0.00000  Uiso   1.00
C666   C     0.81739   0.45399   0.59338   0.00000  Uiso   1.00
F667   F     0.80400   0.40979   0.61679   0.00000  Uiso   1.00
F668   F     0.86267   0.59022   0.88321   0.00000  Uiso   1.00
F669   F     0.85890   0.59068   0.61786   0.00000  Uiso   1.00
F670   F     0.80777   0.40932   0.88214   0.00000  Uiso   1.00
F671   F     0.91201   0.33873   0.74438   0.00000  Uiso   1.00
F672   F     0.75465   0.66127   0.75562   0.00000  Uiso   1.00
F673   F     0.67674   0.45270   0.70948   0.00000  Uiso   1.00
F674   F     0.98992   0.54731   0.79052   0.00000  Uiso   1.00
H675   H     0.87093   0.62891   0.54176   0.00000  Uiso   1.00
H676   H     0.79573   0.37109   0.95824   0.00000  Uiso   1.00
H677   H     0.87276   0.62865   0.95984   0.00000  Uiso   1.00
H678   H     0.79391   0.37135   0.54016   0.00000  Uiso   1.00
N679   N     0.98344   0.48598   0.73783   0.00000  Uiso   1.00
N680   N     0.68322   0.51402   0.76217   0.00000  Uiso   1.00
O681   O     0.79642   0.57952   0.75299   0.00000  Uiso   1.00
O682   O     0.87025   0.42048   0.74702   0.00000  Uiso   1.00
O683   O     0.89280   0.57054   0.74519   0.00000  Uiso   1.00
O684   O     0.77387   0.42946   0.75482   0.00000  Uiso   1.00
O685   O     0.78514   0.50450   0.81998   0.00000  Uiso   1.00
O686   O     0.88153   0.49550   0.68003   0.00000  Uiso   1.00
O687   O     0.88152   0.49552   0.81218   0.00000  Uiso   1.00
O688   O     0.78515   0.50448   0.68783   0.00000  Uiso   1.00
Zn689  Zn    0.76898   0.50600   0.75521   0.00000  Uiso   1.00
Zn690  Zn    0.89769   0.49400   0.74479   0.00000  Uiso   1.00
C691   C     0.18171   0.93139   0.74886   0.00000  Uiso   1.00
C692   C     0.18261   0.87934   0.90662   0.00000  Uiso   1.00
C693   C     0.16470   0.83358   0.61617   0.00000  Uiso   1.00
C694   C     0.16863   0.83309   0.88383   0.00000  Uiso   1.00
C695   C     0.17895   0.87983   0.59391   0.00000  Uiso   1.00
C696   C     0.15438   0.78683   0.90609   0.00000  Uiso   1.00
C697   C     0.17964   0.88019   0.54723   0.00000  Uiso   1.00
C698   C     0.15369   0.78648   0.95277   0.00000  Uiso   1.00
C699   C     0.16609   0.83342   0.52347   0.00000  Uiso   1.00
C700   C     0.16724   0.83325   0.97653   0.00000  Uiso   1.00
C701   C     0.15150   0.78679   0.54667   0.00000  Uiso   1.00
C702   C     0.15162   0.73528   0.75114   0.00000  Uiso   1.00
C703   C     0.18183   0.87987   0.95333   0.00000  Uiso   1.00
C704   C     0.19388   0.92616   0.52395   0.00000  Uiso   1.00
C705   C     0.13945   0.74051   0.97605   0.00000  Uiso   1.00
C706   C     0.19497   0.92600   0.97720   0.00000  Uiso   1.00
C707   C     0.13837   0.74066   0.52280   0.00000  Uiso   1.00
C708   C     0.18979   0.98551   0.74831   0.00000  Uiso   1.00
C709   C     0.14355   0.68116   0.75169   0.00000  Uiso   1.00
C710   C     0.16730   0.83338   0.83632   0.00000  Uiso   1.00
C711   C     0.16603   0.83328   0.66368   0.00000  Uiso   1.00
C712   C     0.15072   0.78732   0.59338   0.00000  Uiso   1.00
F713   F     0.13733   0.74312   0.61679   0.00000  Uiso   1.00
F714   F     0.19600   0.92355   0.88321   0.00000  Uiso   1.00
F715   F     0.19223   0.92401   0.61786   0.00000  Uiso   1.00
F716   F     0.14110   0.74266   0.88214   0.00000  Uiso   1.00
F717   F     0.24535   0.67207   0.74438   0.00000  Uiso   1.00
F718   F     0.08799   0.99460   0.75562   0.00000  Uiso   1.00
F719   F     0.01008   0.78603   0.70948   0.00000  Uiso   1.00
F720   F     0.32326   0.88064   0.79052   0.00000  Uiso   1.00
H721   H     0.20427   0.96224   0.54176   0.00000  Uiso   1.00
H722   H     0.12907   0.70443   0.95824   0.00000  Uiso   1.00
H723   H     0.20609   0.96198   0.95984   0.00000  Uiso   1.00
H724   H     0.12724   0.70468   0.54016   0.00000  Uiso   1.00
N725   N     0.31678   0.81932   0.73783   0.00000  Uiso   1.00
N726   N     0.01656   0.84735   0.76217   0.00000  Uiso   1.00
O727   O     0.12975   0.91286   0.75299   0.00000  Uiso   1.00
O728   O     0.20358   0.75381   0.74702   0.00000  Uiso   1.00
O729   O     0.22613   0.90387   0.74519   0.00000  Uiso   1.00
O730   O     0.10720   0.76279   0.75482   0.00000  Uiso   1.00
O731   O     0.11847   0.83784   0.81998   0.00000  Uiso   1.00
O732   O     0.21486   0.82883   0.68003   0.00000  Uiso   1.00
O733   O     0.21485   0.82885   0.81218   0.00000  Uiso   1.00
O734   O     0.11848   0.83781   0.68783   0.00000  Uiso   1.00
Zn735  Zn    0.10231   0.83933   0.75521   0.00000  Uiso   1.00
Zn736  Zn    0.23102   0.82734   0.74479   0.00000  Uiso   1.00
C737   C     0.51504   0.93139   0.74886   0.00000  Uiso   1.00
C738   C     0.51594   0.87934   0.90662   0.00000  Uiso   1.00
C739   C     0.49804   0.83358   0.61617   0.00000  Uiso   1.00
C740   C     0.50196   0.83309   0.88383   0.00000  Uiso   1.00
C741   C     0.51228   0.87983   0.59391   0.00000  Uiso   1.00
C742   C     0.48772   0.78683   0.90609   0.00000  Uiso   1.00
C743   C     0.51298   0.88019   0.54723   0.00000  Uiso   1.00
C744   C     0.48702   0.78648   0.95277   0.00000  Uiso   1.00
C745   C     0.49942   0.83342   0.52347   0.00000  Uiso   1.00
C746   C     0.50058   0.83325   0.97653   0.00000  Uiso   1.00
C747   C     0.48484   0.78679   0.54667   0.00000  Uiso   1.00
C748   C     0.48496   0.73528   0.75114   0.00000  Uiso   1.00
C749   C     0.51516   0.87987   0.95333   0.00000  Uiso   1.00
C750   C     0.52721   0.92616   0.52395   0.00000  Uiso   1.00
C751   C     0.47279   0.74051   0.97605   0.00000  Uiso   1.00
C752   C     0.52830   0.92600   0.97720   0.00000  Uiso   1.00
C753   C     0.47170   0.74066   0.52280   0.00000  Uiso   1.00
C754   C     0.52312   0.98551   0.74831   0.00000  Uiso   1.00
C755   C     0.47688   0.68116   0.75169   0.00000  Uiso   1.00
C756   C     0.50063   0.83338   0.83632   0.00000  Uiso   1.00
C757   C     0.49937   0.83328   0.66368   0.00000  Uiso   1.00
C758   C     0.48406   0.78732   0.59338   0.00000  Uiso   1.00
F759   F     0.47066   0.74312   0.61679   0.00000  Uiso   1.00
F760   F     0.52934   0.92355   0.88321   0.00000  Uiso   1.00
F761   F     0.52556   0.92401   0.61786   0.00000  Uiso   1.00
F762   F     0.47444   0.74266   0.88214   0.00000  Uiso   1.00
F763   F     0.57868   0.67207   0.74438   0.00000  Uiso   1.00
F764   F     0.42132   0.99460   0.75562   0.00000  Uiso   1.00
F765   F     0.34341   0.78603   0.70948   0.00000  Uiso   1.00
F766   F     0.65659   0.88064   0.79052   0.00000  Uiso   1.00
H767   H     0.53760   0.96224   0.54176   0.00000  Uiso   1.00
H768   H     0.46240   0.70443   0.95824   0.00000  Uiso   1.00
H769   H     0.53943   0.96198   0.95984   0.00000  Uiso   1.00
H770   H     0.46058   0.70468   0.54016   0.00000  Uiso   1.00
N771   N     0.65011   0.81932   0.73783   0.00000  Uiso   1.00
N772   N     0.34989   0.84735   0.76217   0.00000  Uiso   1.00
O773   O     0.46308   0.91286   0.75299   0.00000  Uiso   1.00
O774   O     0.53692   0.75381   0.74702   0.00000  Uiso   1.00
O775   O     0.55946   0.90387   0.74519   0.00000  Uiso   1.00
O776   O     0.44054   0.76279   0.75482   0.00000  Uiso   1.00
O777   O     0.45181   0.83784   0.81998   0.00000  Uiso   1.00
O778   O     0.54819   0.82883   0.68003   0.00000  Uiso   1.00
O779   O     0.54819   0.82885   0.81218   0.00000  Uiso   1.00
O780   O     0.45181   0.83781   0.68783   0.00000  Uiso   1.00
Zn781  Zn    0.43565   0.83933   0.75521   0.00000  Uiso   1.00
Zn782  Zn    0.56435   0.82734   0.74479   0.00000  Uiso   1.00
C783   C     0.84838   0.93139   0.74886   0.00000  Uiso   1.00
C784   C     0.84928   0.87934   0.90662   0.00000  Uiso   1.00
C785   C     0.83137   0.83358   0.61617   0.00000  Uiso   1.00
C786   C     0.83530   0.83309   0.88383   0.00000  Uiso   1.00
C787   C     0.84562   0.87983   0.59391   0.00000  Uiso   1.00
C788   C     0.82105   0.78683   0.90609   0.00000  Uiso   1.00
C789   C     0.84631   0.88019   0.54723   0.00000  Uiso   1.00
C790   C     0.82036   0.78648   0.95277   0.00000  Uiso   1.00
C791   C     0.83276   0.83342   0.52347   0.00000  Uiso   1.00
C792   C     0.83391   0.83325   0.97653   0.00000  Uiso   1.00
C793   C     0.81817   0.78679   0.54667   0.00000  Uiso   1.00
C794   C     0.81829   0.73528   0.75114   0.00000  Uiso   1.00
C795   C     0.84850   0.87987   0.95333   0.00000  Uiso   1.00
C796   C     0.86055   0.92616   0.52395   0.00000  Uiso   1.00
C797   C     0.80612   0.74051   0.97605   0.00000  Uiso   1.00
C798   C     0.86163   0.92600   0.97720   0.00000  Uiso   1.00
C799   C     0.80503   0.74066   0.52280   0.00000  Uiso   1.00
C800   C     0.85645   0.98551   0.74831   0.00000  Uiso   1.00
C801   C     0.81021   0.68116   0.75169   0.00000  Uiso   1.00
C802   C     0.83397   0.83338   0.83632   0.00000  Uiso   1.00
C803   C     0.83270   0.83328   0.66368   0.00000  Uiso   1.00
C804   C     0.81739   0.78732   0.59338   0.00000  Uiso   1.00
F805   F     0.80400   0.74312   0.61679   0.00000  Uiso   1.00
F806   F     0.86267   0.92355   0.88321   0.00000  Uiso   1.00
F807   F     0.85890   0.92401   0.61786   0.00000  Uiso   1.00
F808   F     0.80777   0.74266   0.88214   0.00000  Uiso   1.00
F809   F     0.91201   0.67207   0.74438   0.00000  Uiso   1.00
F810   F     0.75465   0.99460   0.75562   0.00000  Uiso   1.00
F811   F     0.67674   0.78603   0.70948   0.00000  Uiso   1.00
F812   F     0.98992   0.88064   0.79052   0.00000  Uiso   1.00
H813   H     0.87093   0.96224   0.54176   0.00000  Uiso   1.00
H814   H     0.79573   0.70443   0.95824   0.00000  Uiso   1.00
H815   H     0.87276   0.96198   0.95984   0.00000  Uiso   1.00
H816   H     0.79391   0.70468   0.54016   0.00000  Uiso   1.00
N817   N     0.98344   0.81932   0.73783   0.00000  Uiso   1.00
N818   N     0.68322   0.84735   0.76217   0.00000  Uiso   1.00
O819   O     0.79642   0.91286   0.75299   0.00000  Uiso   1.00
O820   O     0.87025   0.75381   0.74702   0.00000  Uiso   1.00
O821   O     0.89280   0.90387   0.74519   0.00000  Uiso   1.00
O822   O     0.77387   0.76279   0.75482   0.00000  Uiso   1.00
O823   O     0.78514   0.83784   0.81998   0.00000  Uiso   1.00
O824   O     0.88153   0.82883   0.68003   0.00000  Uiso   1.00
O825   O     0.88152   0.82885   0.81218   0.00000  Uiso   1.00
O826   O     0.78515   0.83781   0.68783   0.00000  Uiso   1.00
Zn827  Zn    0.76898   0.83933   0.75521   0.00000  Uiso   1.00
Zn828  Zn    0.89769   0.82734   0.74479   0.00000  Uiso   1.00
loop_
_geom_bond_atom_site_label_1
_geom_bond_atom_site_label_2
_geom_bond_distance
_geom_bond_site_symmetry_2
_ccdc_geom_bond_type
C1     O37     1.276   .     A
C1     C18     1.400   .     S
C1     O39     1.289   .     A
C2     C4      1.392   .     A
C2     F24     1.361   .     S
C2     C13     1.387   .     A
C3     C21     1.415   .     S
C3     C22     1.392   .     A
C3     C5      1.392   .     A
C4     C6      1.392   .     A
C4     C20     1.415   .     S
C5     F25     1.361   .     S
C5     C7      1.387   .     A
C6     F26     1.361   .     S
C6     C8      1.387   .     A
C7     C9      1.415   .     A
C7     C14     1.401   .     A
C8     C15     1.401   .     A
C8     C10     1.415   .     A
C9     C11     1.415   .     A
C9     C424    1.393   1_554 S
C10    C13     1.415   .     A
C10    C423    1.393   .     S
C11    C22     1.387   .     A
C11    C17     1.401   .     A
C12    O40     1.289   .     A
C12    C19     1.400   .     S
C12    O38     1.276   .     A
C13    C16     1.401   .     A
C14    H31     1.084   .     S
C14    C430    1.388   1_554 S
C15    H32     1.084   .     S
C15    C431    1.388   .     S
C16    H33     1.084   .     S
C16    C428    1.388   .     S
C17    H34     1.084   .     S
C17    C429    1.388   1_554 S
C18    C157    1.347   .     S
C18    F165    1.365   .     S
C19    C294    1.347   1_545 S
C19    F304    1.365   1_545 S
C20    O41     1.286   .     A
C20    O43     1.286   .     A
C21    O44     1.286   .     A
C21    O42     1.286   .     A
C22    F23     1.361   .     S
F27    C294    1.365   1_545 S
F28    C157    1.365   .     S
F29    N127    1.335   1_455 S
F30    N82     1.335   .     S
N35    Zn46    2.021   .     S
N35    F75     1.335   .     S
N35    N82     1.279   .     S
N36    Zn45    2.021   .     S
N36    N127    1.279   1_455 S
N36    F122    1.335   1_455 S
O37    Zn45    1.969   .     S
O38    Zn46    1.969   .     S
O39    Zn46    1.987   .     S
O40    Zn45    1.987   .     S
O41    Zn45    1.992   .     S
O42    Zn46    1.992   .     S
O43    Zn46    2.010   .     S
O44    Zn45    2.010   .     S
C47    O83     1.276   .     A
C47    C64     1.400   .     S
C47    O85     1.289   .     A
C48    C50     1.392   .     A
C48    F70     1.361   .     S
C48    C59     1.387   .     A
C49    C67     1.415   .     S
C49    C68     1.392   .     A
C49    C51     1.392   .     A
C50    C52     1.392   .     A
C50    C66     1.415   .     S
C51    F71     1.361   .     S
C51    C53     1.387   .     A
C52    F72     1.361   .     S
C52    C54     1.387   .     A
C53    C55     1.415   .     A
C53    C60     1.401   .     A
C54    C61     1.401   .     A
C54    C56     1.415   .     A
C55    C57     1.415   .     A
C55    C470    1.393   1_554 S
C56    C59     1.415   .     A
C56    C469    1.393   .     S
C57    C68     1.387   .     A
C57    C63     1.401   .     A
C58    O86     1.289   .     A
C58    C65     1.400   .     S
C58    O84     1.276   .     A
C59    C62     1.401   .     A
C60    H77     1.084   .     S
C60    C476    1.388   1_554 S
C61    H78     1.084   .     S
C61    C477    1.388   .     S
C62    H79     1.084   .     S
C62    C474    1.388   .     S
C63    H80     1.084   .     S
C63    C475    1.388   1_554 S
C64    C203    1.347   .     S
C64    F211    1.365   .     S
C65    C340    1.347   1_545 S
C65    F350    1.365   1_545 S
C66    O87     1.286   .     A
C66    O89     1.286   .     A
C67    O90     1.286   .     A
C67    O88     1.286   .     A
C68    F69     1.361   .     S
F73    C340    1.365   1_545 S
F74    C203    1.365   .     S
F76    N128    1.335   .     S
N81    Zn92    2.021   .     S
N81    F121    1.335   .     S
N81    N128    1.279   .     S
N82    Zn91    2.021   .     S
O83    Zn91    1.969   .     S
O84    Zn92    1.969   .     S
O85    Zn92    1.987   .     S
O86    Zn91    1.987   .     S
O87    Zn91    1.992   .     S
O88    Zn92    1.992   .     S
O89    Zn92    2.010   .     S
O90    Zn91    2.010   .     S
C93    O129    1.276   .     A
C93    C110    1.400   .     S
C93    O131    1.289   .     A
C94    C96     1.392   .     A
C94    F116    1.361   .     S
C94    C105    1.387   .     A
C95    C113    1.415   .     S
C95    C114    1.392   .     A
C95    C97     1.392   .     A
C96    C98     1.392   .     A
C96    C112    1.415   .     S
C97    F117    1.361   .     S
C97    C99     1.387   .     A
C98    F118    1.361   .     S
C98    C100    1.387   .     A
C99    C101    1.415   .     A
C99    C106    1.401   .     A
C100   C107    1.401   .     A
C100   C102    1.415   .     A
C101   C103    1.415   .     A
C101   C516    1.393   1_554 S
C102   C105    1.415   .     A
C102   C515    1.393   .     S
C103   C114    1.387   .     A
C103   C109    1.401   .     A
C104   O132    1.289   .     A
C104   C111    1.400   .     S
C104   O130    1.276   .     A
C105   C108    1.401   .     A
C106   H123    1.084   .     S
C106   C522    1.388   1_554 S
C107   H124    1.084   .     S
C107   C523    1.388   .     S
C108   H125    1.084   .     S
C108   C520    1.388   .     S
C109   H126    1.084   .     S
C109   C521    1.388   1_554 S
C110   C249    1.347   .     S
C110   F257    1.365   .     S
C111   C386    1.347   1_545 S
C111   F396    1.365   1_545 S
C112   O133    1.286   .     A
C112   O135    1.286   .     A
C113   O136    1.286   .     A
C113   O134    1.286   .     A
C114   F115    1.361   .     S
F119   C386    1.365   1_545 S
F120   C249    1.365   .     S
F122   N36     1.335   1_655 S
N127   Zn138   2.021   .     S
N127   F29     1.335   1_655 S
N127   N36     1.279   1_655 S
N128   Zn137   2.021   .     S
O129   Zn137   1.969   .     S
O130   Zn138   1.969   .     S
O131   Zn138   1.987   .     S
O132   Zn137   1.987   .     S
O133   Zn137   1.992   .     S
O134   Zn138   1.992   .     S
O135   Zn138   2.010   .     S
O136   Zn137   2.010   .     S
C139   O175    1.276   .     A
C139   C156    1.400   .     S
C139   O177    1.289   .     A
C140   C142    1.392   .     A
C140   F162    1.361   .     S
C140   C151    1.387   .     A
C141   C159    1.415   .     S
C141   C160    1.392   .     A
C141   C143    1.392   .     A
C142   C144    1.392   .     A
C142   C158    1.415   .     S
C143   F163    1.361   .     S
C143   C145    1.387   .     A
C144   F164    1.361   .     S
C144   C146    1.387   .     A
C145   C147    1.415   .     A
C145   C152    1.401   .     A
C146   C153    1.401   .     A
C146   C148    1.415   .     A
C147   C149    1.415   .     A
C147   C562    1.393   1_554 S
C148   C151    1.415   .     A
C148   C561    1.393   .     S
C149   C160    1.387   .     A
C149   C155    1.401   .     A
C150   O178    1.289   .     A
C150   C157    1.400   .     S
C150   O176    1.276   .     A
C151   C154    1.401   .     A
C152   H169    1.084   .     S
C152   C568    1.388   1_554 S
C153   H170    1.084   .     S
C153   C569    1.388   .     S
C154   H171    1.084   .     S
C154   C566    1.388   .     S
C155   H172    1.084   .     S
C155   C567    1.388   1_554 S
C156   C295    1.347   .     S
C156   F303    1.365   .     S
C158   O179    1.286   .     A
C158   O181    1.286   .     A
C159   O182    1.286   .     A
C159   O180    1.286   .     A
C160   F161    1.361   .     S
F166   C295    1.365   .     S
F167   N265    1.335   1_455 S
F168   N220    1.335   .     S
N173   Zn184   2.021   .     S
N173   F213    1.335   .     S
N173   N220    1.279   .     S
N174   Zn183   2.021   .     S
N174   N265    1.279   1_455 S
N174   F260    1.335   1_455 S
O175   Zn183   1.969   .     S
O176   Zn184   1.969   .     S
O177   Zn184   1.987   .     S
O178   Zn183   1.987   .     S
O179   Zn183   1.992   .     S
O180   Zn184   1.992   .     S
O181   Zn184   2.010   .     S
O182   Zn183   2.010   .     S
C185   O221    1.276   .     A
C185   C202    1.400   .     S
C185   O223    1.289   .     A
C186   C188    1.392   .     A
C186   F208    1.361   .     S
C186   C197    1.387   .     A
C187   C205    1.415   .     S
C187   C206    1.392   .     A
C187   C189    1.392   .     A
C188   C190    1.392   .     A
C188   C204    1.415   .     S
C189   F209    1.361   .     S
C189   C191    1.387   .     A
C190   F210    1.361   .     S
C190   C192    1.387   .     A
C191   C193    1.415   .     A
C191   C198    1.401   .     A
C192   C199    1.401   .     A
C192   C194    1.415   .     A
C193   C195    1.415   .     A
C193   C608    1.393   1_554 S
C194   C197    1.415   .     A
C194   C607    1.393   .     S
C195   C206    1.387   .     A
C195   C201    1.401   .     A
C196   O224    1.289   .     A
C196   C203    1.400   .     S
C196   O222    1.276   .     A
C197   C200    1.401   .     A
C198   H215    1.084   .     S
C198   C614    1.388   1_554 S
C199   H216    1.084   .     S
C199   C615    1.388   .     S
C200   H217    1.084   .     S
C200   C612    1.388   .     S
C201   H218    1.084   .     S
C201   C613    1.388   1_554 S
C202   C341    1.347   .     S
C202   F349    1.365   .     S
C204   O225    1.286   .     A
C204   O227    1.286   .     A
C205   O228    1.286   .     A
C205   O226    1.286   .     A
C206   F207    1.361   .     S
F212   C341    1.365   .     S
F214   N266    1.335   .     S
N219   Zn230   2.021   .     S
N219   F259    1.335   .     S
N219   N266    1.279   .     S
N220   Zn229   2.021   .     S
O221   Zn229   1.969   .     S
O222   Zn230   1.969   .     S
O223   Zn230   1.987   .     S
O224   Zn229   1.987   .     S
O225   Zn229   1.992   .     S
O226   Zn230   1.992   .     S
O227   Zn230   2.010   .     S
O228   Zn229   2.010   .     S
C231   O267    1.276   .     A
C231   C248    1.400   .     S
C231   O269    1.289   .     A
C232   C234    1.392   .     A
C232   F254    1.361   .     S
C232   C243    1.387   .     A
C233   C251    1.415   .     S
C233   C252    1.392   .     A
C233   C235    1.392   .     A
C234   C236    1.392   .     A
C234   C250    1.415   .     S
C235   F255    1.361   .     S
C235   C237    1.387   .     A
C236   F256    1.361   .     S
C236   C238    1.387   .     A
C237   C239    1.415   .     A
C237   C244    1.401   .     A
C238   C245    1.401   .     A
C238   C240    1.415   .     A
C239   C241    1.415   .     A
C239   C654    1.393   1_554 S
C240   C243    1.415   .     A
C240   C653    1.393   .     S
C241   C252    1.387   .     A
C241   C247    1.401   .     A
C242   O270    1.289   .     A
C242   C249    1.400   .     S
C242   O268    1.276   .     A
C243   C246    1.401   .     A
C244   H261    1.084   .     S
C244   C660    1.388   1_554 S
C245   H262    1.084   .     S
C245   C661    1.388   .     S
C246   H263    1.084   .     S
C246   C658    1.388   .     S
C247   H264    1.084   .     S
C247   C659    1.388   1_554 S
C248   C387    1.347   .     S
C248   F395    1.365   .     S
C250   O271    1.286   .     A
C250   O273    1.286   .     A
C251   O274    1.286   .     A
C251   O272    1.286   .     A
C252   F253    1.361   .     S
F258   C387    1.365   .     S
F260   N174    1.335   1_655 S
N265   Zn276   2.021   .     S
N265   F167    1.335   1_655 S
N265   N174    1.279   1_655 S
N266   Zn275   2.021   .     S
O267   Zn275   1.969   .     S
O268   Zn276   1.969   .     S
O269   Zn276   1.987   .     S
O270   Zn275   1.987   .     S
O271   Zn275   1.992   .     S
O272   Zn276   1.992   .     S
O273   Zn276   2.010   .     S
O274   Zn275   2.010   .     S
C277   O313    1.276   .     A
C277   C294    1.400   .     S
C277   O315    1.289   .     A
C278   C280    1.392   .     A
C278   F300    1.361   .     S
C278   C289    1.387   .     A
C279   C297    1.415   .     S
C279   C298    1.392   .     A
C279   C281    1.392   .     A
C280   C282    1.392   .     A
C280   C296    1.415   .     S
C281   F301    1.361   .     S
C281   C283    1.387   .     A
C282   F302    1.361   .     S
C282   C284    1.387   .     A
C283   C285    1.415   .     A
C283   C290    1.401   .     A
C284   C291    1.401   .     A
C284   C286    1.415   .     A
C285   C287    1.415   .     A
C285   C700    1.393   1_554 S
C286   C289    1.415   .     A
C286   C699    1.393   .     S
C287   C298    1.387   .     A
C287   C293    1.401   .     A
C288   O316    1.289   .     A
C288   C295    1.400   .     S
C288   O314    1.276   .     A
C289   C292    1.401   .     A
C290   H307    1.084   .     S
C290   C706    1.388   1_554 S
C291   H308    1.084   .     S
C291   C707    1.388   .     S
C292   H309    1.084   .     S
C292   C704    1.388   .     S
C293   H310    1.084   .     S
C293   C705    1.388   1_554 S
C294   C19     1.347   1_565 S
C294   F27     1.365   1_565 S
C296   O317    1.286   .     A
C296   O319    1.286   .     A
C297   O320    1.286   .     A
C297   O318    1.286   .     A
C298   F299    1.361   .     S
F304   C19     1.365   1_565 S
F305   N403    1.335   1_455 S
F306   N358    1.335   .     S
N311   Zn322   2.021   .     S
N311   F351    1.335   .     S
N311   N358    1.279   .     S
N312   Zn321   2.021   .     S
N312   N403    1.279   1_455 S
N312   F398    1.335   1_455 S
O313   Zn321   1.969   .     S
O314   Zn322   1.969   .     S
O315   Zn322   1.987   .     S
O316   Zn321   1.987   .     S
O317   Zn321   1.992   .     S
O318   Zn322   1.992   .     S
O319   Zn322   2.010   .     S
O320   Zn321   2.010   .     S
C323   O359    1.276   .     A
C323   C340    1.400   .     S
C323   O361    1.289   .     A
C324   C326    1.392   .     A
C324   F346    1.361   .     S
C324   C335    1.387   .     A
C325   C343    1.415   .     S
C325   C344    1.392   .     A
C325   C327    1.392   .     A
C326   C328    1.392   .     A
C326   C342    1.415   .     S
C327   F347    1.361   .     S
C327   C329    1.387   .     A
C328   F348    1.361   .     S
C328   C330    1.387   .     A
C329   C331    1.415   .     A
C329   C336    1.401   .     A
C330   C337    1.401   .     A
C330   C332    1.415   .     A
C331   C333    1.415   .     A
C331   C746    1.393   1_554 S
C332   C335    1.415   .     A
C332   C745    1.393   .     S
C333   C344    1.387   .     A
C333   C339    1.401   .     A
C334   O362    1.289   .     A
C334   C341    1.400   .     S
C334   O360    1.276   .     A
C335   C338    1.401   .     A
C336   H353    1.084   .     S
C336   C752    1.388   1_554 S
C337   H354    1.084   .     S
C337   C753    1.388   .     S
C338   H355    1.084   .     S
C338   C750    1.388   .     S
C339   H356    1.084   .     S
C339   C751    1.388   1_554 S
C340   C65     1.347   1_565 S
C340   F73     1.365   1_565 S
C342   O363    1.286   .     A
C342   O365    1.286   .     A
C343   O366    1.286   .     A
C343   O364    1.286   .     A
C344   F345    1.361   .     S
F350   C65     1.365   1_565 S
F352   N404    1.335   .     S
N357   Zn368   2.021   .     S
N357   F397    1.335   .     S
N357   N404    1.279   .     S
N358   Zn367   2.021   .     S
O359   Zn367   1.969   .     S
O360   Zn368   1.969   .     S
O361   Zn368   1.987   .     S
O362   Zn367   1.987   .     S
O363   Zn367   1.992   .     S
O364   Zn368   1.992   .     S
O365   Zn368   2.010   .     S
O366   Zn367   2.010   .     S
C369   O405    1.276   .     A
C369   C386    1.400   .     S
C369   O407    1.289   .     A
C370   C372    1.392   .     A
C370   F392    1.361   .     S
C370   C381    1.387   .     A
C371   C389    1.415   .     S
C371   C390    1.392   .     A
C371   C373    1.392   .     A
C372   C374    1.392   .     A
C372   C388    1.415   .     S
C373   F393    1.361   .     S
C373   C375    1.387   .     A
C374   F394    1.361   .     S
C374   C376    1.387   .     A
C375   C377    1.415   .     A
C375   C382    1.401   .     A
C376   C383    1.401   .     A
C376   C378    1.415   .     A
C377   C379    1.415   .     A
C377   C792    1.393   1_554 S
C378   C381    1.415   .     A
C378   C791    1.393   .     S
C379   C390    1.387   .     A
C379   C385    1.401   .     A
C380   O408    1.289   .     A
C380   C387    1.400   .     S
C380   O406    1.276   .     A
C381   C384    1.401   .     A
C382   H399    1.084   .     S
C382   C798    1.388   1_554 S
C383   H400    1.084   .     S
C383   C799    1.388   .     S
C384   H401    1.084   .     S
C384   C796    1.388   .     S
C385   H402    1.084   .     S
C385   C797    1.388   1_554 S
C386   C111    1.347   1_565 S
C386   F119    1.365   1_565 S
C388   O409    1.286   .     A
C388   O411    1.286   .     A
C389   O412    1.286   .     A
C389   O410    1.286   .     A
C390   F391    1.361   .     S
F396   C111    1.365   1_565 S
F398   N312    1.335   1_655 S
N403   Zn414   2.021   .     S
N403   F305    1.335   1_655 S
N403   N312    1.279   1_655 S
N404   Zn413   2.021   .     S
O405   Zn413   1.969   .     S
O406   Zn414   1.969   .     S
O407   Zn414   1.987   .     S
O408   Zn413   1.987   .     S
O409   Zn413   1.992   .     S
O410   Zn414   1.992   .     S
O411   Zn414   2.010   .     S
O412   Zn413   2.010   .     S
C415   O451    1.276   .     A
C415   C432    1.400   .     S
C415   O453    1.289   .     A
C416   C418    1.392   .     A
C416   F438    1.361   .     S
C416   C427    1.387   .     A
C417   C435    1.415   .     S
C417   C436    1.392   .     A
C417   C419    1.392   .     A
C418   C420    1.392   .     A
C418   C434    1.415   .     S
C419   F439    1.361   .     S
C419   C421    1.387   .     A
C420   F440    1.361   .     S
C420   C422    1.387   .     A
C421   C423    1.415   .     A
C421   C428    1.401   .     A
C422   C429    1.401   .     A
C422   C424    1.415   .     A
C423   C425    1.415   .     A
C424   C427    1.415   .     A
C424   C9      1.393   1_556 S
C425   C436    1.387   .     A
C425   C431    1.401   .     A
C426   O454    1.289   .     A
C426   C433    1.400   .     S
C426   O452    1.276   .     A
C427   C430    1.401   .     A
C428   H445    1.084   .     S
C429   H446    1.084   .     S
C429   C17     1.388   1_556 S
C430   H447    1.084   .     S
C430   C14     1.388   1_556 S
C431   H448    1.084   .     S
C432   C571    1.347   .     S
C432   F579    1.365   .     S
C433   C708    1.347   1_545 S
C433   F718    1.365   1_545 S
C434   O455    1.286   .     A
C434   O457    1.286   .     A
C435   O458    1.286   .     A
C435   O456    1.286   .     A
C436   F437    1.361   .     S
F441   C708    1.365   1_545 S
F442   C571    1.365   .     S
F443   N541    1.335   1_455 S
F444   N496    1.335   .     S
N449   Zn460   2.021   .     S
N449   F489    1.335   .     S
N449   N496    1.279   .     S
N450   Zn459   2.021   .     S
N450   N541    1.279   1_455 S
N450   F536    1.335   1_455 S
O451   Zn459   1.969   .     S
O452   Zn460   1.969   .     S
O453   Zn460   1.987   .     S
O454   Zn459   1.987   .     S
O455   Zn459   1.992   .     S
O456   Zn460   1.992   .     S
O457   Zn460   2.010   .     S
O458   Zn459   2.010   .     S
C461   O497    1.276   .     A
C461   C478    1.400   .     S
C461   O499    1.289   .     A
C462   C464    1.392   .     A
C462   F484    1.361   .     S
C462   C473    1.387   .     A
C463   C481    1.415   .     S
C463   C482    1.392   .     A
C463   C465    1.392   .     A
C464   C466    1.392   .     A
C464   C480    1.415   .     S
C465   F485    1.361   .     S
C465   C467    1.387   .     A
C466   F486    1.361   .     S
C466   C468    1.387   .     A
C467   C469    1.415   .     A
C467   C474    1.401   .     A
C468   C475    1.401   .     A
C468   C470    1.415   .     A
C469   C471    1.415   .     A
C470   C473    1.415   .     A
C470   C55     1.393   1_556 S
C471   C482    1.387   .     A
C471   C477    1.401   .     A
C472   O500    1.289   .     A
C472   C479    1.400   .     S
C472   O498    1.276   .     A
C473   C476    1.401   .     A
C474   H491    1.084   .     S
C475   H492    1.084   .     S
C475   C63     1.388   1_556 S
C476   H493    1.084   .     S
C476   C60     1.388   1_556 S
C477   H494    1.084   .     S
C478   C617    1.347   .     S
C478   F625    1.365   .     S
C479   C754    1.347   1_545 S
C479   F764    1.365   1_545 S
C480   O501    1.286   .     A
C480   O503    1.286   .     A
C481   O504    1.286   .     A
C481   O502    1.286   .     A
C482   F483    1.361   .     S
F487   C754    1.365   1_545 S
F488   C617    1.365   .     S
F490   N542    1.335   .     S
N495   Zn506   2.021   .     S
N495   F535    1.335   .     S
N495   N542    1.279   .     S
N496   Zn505   2.021   .     S
O497   Zn505   1.969   .     S
O498   Zn506   1.969   .     S
O499   Zn506   1.987   .     S
O500   Zn505   1.987   .     S
O501   Zn505   1.992   .     S
O502   Zn506   1.992   .     S
O503   Zn506   2.010   .     S
O504   Zn505   2.010   .     S
C507   O543    1.276   .     A
C507   C524    1.400   .     S
C507   O545    1.289   .     A
C508   C510    1.392   .     A
C508   F530    1.361   .     S
C508   C519    1.387   .     A
C509   C527    1.415   .     S
C509   C528    1.392   .     A
C509   C511    1.392   .     A
C510   C512    1.392   .     A
C510   C526    1.415   .     S
C511   F531    1.361   .     S
C511   C513    1.387   .     A
C512   F532    1.361   .     S
C512   C514    1.387   .     A
C513   C515    1.415   .     A
C513   C520    1.401   .     A
C514   C521    1.401   .     A
C514   C516    1.415   .     A
C515   C517    1.415   .     A
C516   C519    1.415   .     A
C516   C101    1.393   1_556 S
C517   C528    1.387   .     A
C517   C523    1.401   .     A
C518   O546    1.289   .     A
C518   C525    1.400   .     S
C518   O544    1.276   .     A
C519   C522    1.401   .     A
C520   H537    1.084   .     S
C521   H538    1.084   .     S
C521   C109    1.388   1_556 S
C522   H539    1.084   .     S
C522   C106    1.388   1_556 S
C523   H540    1.084   .     S
C524   C663    1.347   .     S
C524   F671    1.365   .     S
C525   C800    1.347   1_545 S
C525   F810    1.365   1_545 S
C526   O547    1.286   .     A
C526   O549    1.286   .     A
C527   O550    1.286   .     A
C527   O548    1.286   .     A
C528   F529    1.361   .     S
F533   C800    1.365   1_545 S
F534   C663    1.365   .     S
F536   N450    1.335   1_655 S
N541   Zn552   2.021   .     S
N541   F443    1.335   1_655 S
N541   N450    1.279   1_655 S
N542   Zn551   2.021   .     S
O543   Zn551   1.969   .     S
O544   Zn552   1.969   .     S
O545   Zn552   1.987   .     S
O546   Zn551   1.987   .     S
O547   Zn551   1.992   .     S
O548   Zn552   1.992   .     S
O549   Zn552   2.010   .     S
O550   Zn551   2.010   .     S
C553   O589    1.276   .     A
C553   C570    1.400   .     S
C553   O591    1.289   .     A
C554   C556    1.392   .     A
C554   F576    1.361   .     S
C554   C565    1.387   .     A
C555   C573    1.415   .     S
C555   C574    1.392   .     A
C555   C557    1.392   .     A
C556   C558    1.392   .     A
C556   C572    1.415   .     S
C557   F577    1.361   .     S
C557   C559    1.387   .     A
C558   F578    1.361   .     S
C558   C560    1.387   .     A
C559   C561    1.415   .     A
C559   C566    1.401   .     A
C560   C567    1.401   .     A
C560   C562    1.415   .     A
C561   C563    1.415   .     A
C562   C565    1.415   .     A
C562   C147    1.393   1_556 S
C563   C574    1.387   .     A
C563   C569    1.401   .     A
C564   O592    1.289   .     A
C564   C571    1.400   .     S
C564   O590    1.276   .     A
C565   C568    1.401   .     A
C566   H583    1.084   .     S
C567   H584    1.084   .     S
C567   C155    1.388   1_556 S
C568   H585    1.084   .     S
C568   C152    1.388   1_556 S
C569   H586    1.084   .     S
C570   C709    1.347   .     S
C570   F717    1.365   .     S
C572   O593    1.286   .     A
C572   O595    1.286   .     A
C573   O596    1.286   .     A
C573   O594    1.286   .     A
C574   F575    1.361   .     S
F580   C709    1.365   .     S
F581   N679    1.335   1_455 S
F582   N634    1.335   .     S
N587   Zn598   2.021   .     S
N587   F627    1.335   .     S
N587   N634    1.279   .     S
N588   Zn597   2.021   .     S
N588   N679    1.279   1_455 S
N588   F674    1.335   1_455 S
O589   Zn597   1.969   .     S
O590   Zn598   1.969   .     S
O591   Zn598   1.987   .     S
O592   Zn597   1.987   .     S
O593   Zn597   1.992   .     S
O594   Zn598   1.992   .     S
O595   Zn598   2.010   .     S
O596   Zn597   2.010   .     S
C599   O635    1.276   .     A
C599   C616    1.400   .     S
C599   O637    1.289   .     A
C600   C602    1.392   .     A
C600   F622    1.361   .     S
C600   C611    1.387   .     A
C601   C619    1.415   .     S
C601   C620    1.392   .     A
C601   C603    1.392   .     A
C602   C604    1.392   .     A
C602   C618    1.415   .     S
C603   F623    1.361   .     S
C603   C605    1.387   .     A
C604   F624    1.361   .     S
C604   C606    1.387   .     A
C605   C607    1.415   .     A
C605   C612    1.401   .     A
C606   C613    1.401   .     A
C606   C608    1.415   .     A
C607   C609    1.415   .     A
C608   C611    1.415   .     A
C608   C193    1.393   1_556 S
C609   C620    1.387   .     A
C609   C615    1.401   .     A
C610   O638    1.289   .     A
C610   C617    1.400   .     S
C610   O636    1.276   .     A
C611   C614    1.401   .     A
C612   H629    1.084   .     S
C613   H630    1.084   .     S
C613   C201    1.388   1_556 S
C614   H631    1.084   .     S
C614   C198    1.388   1_556 S
C615   H632    1.084   .     S
C616   C755    1.347   .     S
C616   F763    1.365   .     S
C618   O639    1.286   .     A
C618   O641    1.286   .     A
C619   O642    1.286   .     A
C619   O640    1.286   .     A
C620   F621    1.361   .     S
F626   C755    1.365   .     S
F628   N680    1.335   .     S
N633   Zn644   2.021   .     S
N633   F673    1.335   .     S
N633   N680    1.279   .     S
N634   Zn643   2.021   .     S
O635   Zn643   1.969   .     S
O636   Zn644   1.969   .     S
O637   Zn644   1.987   .     S
O638   Zn643   1.987   .     S
O639   Zn643   1.992   .     S
O640   Zn644   1.992   .     S
O641   Zn644   2.010   .     S
O642   Zn643   2.010   .     S
C645   O681    1.276   .     A
C645   C662    1.400   .     S
C645   O683    1.289   .     A
C646   C648    1.392   .     A
C646   F668    1.361   .     S
C646   C657    1.387   .     A
C647   C665    1.415   .     S
C647   C666    1.392   .     A
C647   C649    1.392   .     A
C648   C650    1.392   .     A
C648   C664    1.415   .     S
C649   F669    1.361   .     S
C649   C651    1.387   .     A
C650   F670    1.361   .     S
C650   C652    1.387   .     A
C651   C653    1.415   .     A
C651   C658    1.401   .     A
C652   C659    1.401   .     A
C652   C654    1.415   .     A
C653   C655    1.415   .     A
C654   C657    1.415   .     A
C654   C239    1.393   1_556 S
C655   C666    1.387   .     A
C655   C661    1.401   .     A
C656   O684    1.289   .     A
C656   C663    1.400   .     S
C656   O682    1.276   .     A
C657   C660    1.401   .     A
C658   H675    1.084   .     S
C659   H676    1.084   .     S
C659   C247    1.388   1_556 S
C660   H677    1.084   .     S
C660   C244    1.388   1_556 S
C661   H678    1.084   .     S
C662   C801    1.347   .     S
C662   F809    1.365   .     S
C664   O685    1.286   .     A
C664   O687    1.286   .     A
C665   O688    1.286   .     A
C665   O686    1.286   .     A
C666   F667    1.361   .     S
F672   C801    1.365   .     S
F674   N588    1.335   1_655 S
N679   Zn690   2.021   .     S
N679   F581    1.335   1_655 S
N679   N588    1.279   1_655 S
N680   Zn689   2.021   .     S
O681   Zn689   1.969   .     S
O682   Zn690   1.969   .     S
O683   Zn690   1.987   .     S
O684   Zn689   1.987   .     S
O685   Zn689   1.992   .     S
O686   Zn690   1.992   .     S
O687   Zn690   2.010   .     S
O688   Zn689   2.010   .     S
C691   O727    1.276   .     A
C691   C708    1.400   .     S
C691   O729    1.289   .     A
C692   C694    1.392   .     A
C692   F714    1.361   .     S
C692   C703    1.387   .     A
C693   C711    1.415   .     S
C693   C712    1.392   .     A
C693   C695    1.392   .     A
C694   C696    1.392   .     A
C694   C710    1.415   .     S
C695   F715    1.361   .     S
C695   C697    1.387   .     A
C696   F716    1.361   .     S
C696   C698    1.387   .     A
C697   C699    1.415   .     A
C697   C704    1.401   .     A
C698   C705    1.401   .     A
C698   C700    1.415   .     A
C699   C701    1.415   .     A
C700   C703    1.415   .     A
C700   C285    1.393   1_556 S
C701   C712    1.387   .     A
C701   C707    1.401   .     A
C702   O730    1.289   .     A
C702   C709    1.400   .     S
C702   O728    1.276   .     A
C703   C706    1.401   .     A
C704   H721    1.084   .     S
C705   H722    1.084   .     S
C705   C293    1.388   1_556 S
C706   H723    1.084   .     S
C706   C290    1.388   1_556 S
C707   H724    1.084   .     S
C708   C433    1.347   1_565 S
C708   F441    1.365   1_565 S
C710   O731    1.286   .     A
C710   O733    1.286   .     A
C711   O734    1.286   .     A
C711   O732    1.286   .     A
C712   F713    1.361   .     S
F718   C433    1.365   1_565 S
F719   N817    1.335   1_455 S
F720   N772    1.335   .     S
N725   Zn736   2.021   .     S
N725   F765    1.335   .     S
N725   N772    1.279   .     S
N726   Zn735   2.021   .     S
N726   N817    1.279   1_455 S
N726   F812    1.335   1_455 S
O727   Zn735   1.969   .     S
O728   Zn736   1.969   .     S
O729   Zn736   1.987   .     S
O730   Zn735   1.987   .     S
O731   Zn735   1.992   .     S
O732   Zn736   1.992   .     S
O733   Zn736   2.010   .     S
O734   Zn735   2.010   .     S
C737   O773    1.276   .     A
C737   C754    1.400   .     S
C737   O775    1.289   .     A
C738   C740    1.392   .     A
C738   F760    1.361   .     S
C738   C749    1.387   .     A
C739   C757    1.415   .     S
C739   C758    1.392   .     A
C739   C741    1.392   .     A
C740   C742    1.392   .     A
C740   C756    1.415   .     S
C741   F761    1.361   .     S
C741   C743    1.387   .     A
C742   F762    1.361   .     S
C742   C744    1.387   .     A
C743   C745    1.415   .     A
C743   C750    1.401   .     A
C744   C751    1.401   .     A
C744   C746    1.415   .     A
C745   C747    1.415   .     A
C746   C749    1.415   .     A
C746   C331    1.393   1_556 S
C747   C758    1.387   .     A
C747   C753    1.401   .     A
C748   O776    1.289   .     A
C748   C755    1.400   .     S
C748   O774    1.276   .     A
C749   C752    1.401   .     A
C750   H767    1.084   .     S
C751   H768    1.084   .     S
C751   C339    1.388   1_556 S
C752   H769    1.084   .     S
C752   C336    1.388   1_556 S
C753   H770    1.084   .     S
C754   C479    1.347   1_565 S
C754   F487    1.365   1_565 S
C756   O777    1.286   .     A
C756   O779    1.286   .     A
C757   O780    1.286   .     A
C757   O778    1.286   .     A
C758   F759    1.361   .     S
F764   C479    1.365   1_565 S
F766   N818    1.335   .     S
N771   Zn782   2.021   .     S
N771   F811    1.335   .     S
N771   N818    1.279   .     S
N772   Zn781   2.021   .     S
O773   Zn781   1.969   .     S
O774   Zn782   1.969   .     S
O775   Zn782   1.987   .     S
O776   Zn781   1.987   .     S
O777   Zn781   1.992   .     S
O778   Zn782   1.992   .     S
O779   Zn782   2.010   .     S
O780   Zn781   2.010   .     S
C783   O819    1.276   .     A
C783   C800    1.400   .     S
C783   O821    1.289   .     A
C784   C786    1.392   .     A
C784   F806    1.361   .     S
C784   C795    1.387   .     A
C785   C803    1.415   .     S
C785   C804    1.392   .     A
C785   C787    1.392   .     A
C786   C788    1.392   .     A
C786   C802    1.415   .     S
C787   F807    1.361   .     S
C787   C789    1.387   .     A
C788   F808    1.361   .     S
C788   C790    1.387   .     A
C789   C791    1.415   .     A
C789   C796    1.401   .     A
C790   C797    1.401   .     A
C790   C792    1.415   .     A
C791   C793    1.415   .     A
C792   C795    1.415   .     A
C792   C377    1.393   1_556 S
C793   C804    1.387   .     A
C793   C799    1.401   .     A
C794   O822    1.289   .     A
C794   C801    1.400   .     S
C794   O820    1.276   .     A
C795   C798    1.401   .     A
C796   H813    1.084   .     S
C797   H814    1.084   .     S
C797   C385    1.388   1_556 S
C798   H815    1.084   .     S
C798   C382    1.388   1_556 S
C799   H816    1.084   .     S
C800   C525    1.347   1_565 S
C800   F533    1.365   1_565 S
C802   O823    1.286   .     A
C802   O825    1.286   .     A
C803   O826    1.286   .     A
C803   O824    1.286   .     A
C804   F805    1.361   .     S
F810   C525    1.365   1_565 S
F812   N726    1.335   1_655 S
N817   Zn828   2.021   .     S
N817   F719    1.335   1_655 S
N817   N726    1.279   1_655 S
N818   Zn827   2.021   .     S
O819   Zn827   1.969   .     S
O820   Zn828   1.969   .     S
O821   Zn828   1.987   .     S
O822   Zn827   1.987   .     S
O823   Zn827   1.992   .     S
O824   Zn828   1.992   .     S
O825   Zn828   2.010   .     S
O826   Zn827   2.010   .     S
