data_str_m3_o10_o18_pcu_sym.72
_audit_creation_date              2020-01-03
_audit_creation_method            'Materials Studio'
_symmetry_space_group_name_H-M    'P1'
_symmetry_Int_Tables_number       1
_symmetry_cell_setting            triclinic
loop_
_symmetry_equiv_pos_as_xyz
  x,y,z
_cell_length_a                    23.5946
_cell_length_b                    25.6779
_cell_length_c                    27.4825
_cell_angle_alpha                 93.7882
_cell_angle_beta                  93.0473
_cell_angle_gamma                 93.9714
loop_
_atom_site_label
_atom_site_type_symbol
_atom_site_fract_x
_atom_site_fract_y
_atom_site_fract_z
_atom_site_U_iso_or_equiv
_atom_site_adp_type
_atom_site_occupancy
C1     C     0.01497   0.26484   0.24885   0.00000  Uiso   1.00
C2     C     0.31238   0.16305   0.15892   0.00000  Uiso   1.00
C3     C     0.03332   0.18232   0.39306   0.00000  Uiso   1.00
C4     C     0.30265   0.16080   0.10619   0.00000  Uiso   1.00
C5     C     0.02661   0.23842   0.46619   0.00000  Uiso   1.00
C6     C     0.32174   0.12619   0.02547   0.00000  Uiso   1.00
C7     C     0.00454   0.21934   0.41989   0.00000  Uiso   1.00
C8     C     0.00462   0.13467   0.07496   0.00000  Uiso   1.00
C9     C     0.08230   0.16329   0.41293   0.00000  Uiso   1.00
C10    C     0.25424   0.18214   0.08753   0.00000  Uiso   1.00
C11    C     0.10879   0.18631   0.45634   0.00000  Uiso   1.00
C12    C     0.31837   0.06849   0.25118   0.00000  Uiso   1.00
C13    C     0.23723   0.17459   0.03808   0.00000  Uiso   1.00
C14    C     0.07913   0.22283   0.48426   0.00000  Uiso   1.00
C15    C     0.27049   0.14414   0.00725   0.00000  Uiso   1.00
C16    C     0.16406   0.17419   0.47222   0.00000  Uiso   1.00
C17    C     0.18567   0.19292   0.01960   0.00000  Uiso   1.00
C18    C     0.15504   0.22924   0.04686   0.00000  Uiso   1.00
C19    C     0.19906   0.14530   0.44171   0.00000  Uiso   1.00
C20    C     0.10284   0.24413   0.02916   0.00000  Uiso   1.00
C21    C     0.25157   0.13096   0.45900   0.00000  Uiso   1.00
C22    C     0.02278   0.31939   0.24815   0.00000  Uiso   1.00
C23    C     0.31057   0.01395   0.25194   0.00000  Uiso   1.00
C24    C     0.02116   0.17128   0.34103   0.00000  Uiso   1.00
H25    H     0.08099   0.27249   0.05075   0.00000  Uiso   1.00
H26    H     0.18783   0.13445   0.40369   0.00000  Uiso   1.00
H27    H     0.06574   0.00306   0.24449   0.00000  Uiso   1.00
H28    H     0.26761   0.33028   0.25560   0.00000  Uiso   1.00
H29    H     0.13145   0.09676   0.19070   0.00000  Uiso   1.00
H30    H     0.20188   0.23636   0.30952   0.00000  Uiso   1.00
H31    H     0.27693   0.10849   0.43473   0.00000  Uiso   1.00
H32    H     0.22822   0.20149   0.11310   0.00000  Uiso   1.00
H33    H     0.10029   0.13185   0.39238   0.00000  Uiso   1.00
H34    H     0.04288   0.11855   0.08911   0.00000  Uiso   1.00
H35    H     0.29973   0.23464   0.40450   0.00000  Uiso   1.00
H36    H     0.00394   0.26682   0.48693   0.00000  Uiso   1.00
H37    H     0.01476   0.10403   0.00185   0.00000  Uiso   1.00
H38    H     0.17138   0.24859   0.08126   0.00000  Uiso   1.00
N39    N     0.14695   0.15216   0.23740   0.00000  Uiso   1.00
N40    N     0.18638   0.18117   0.26261   0.00000  Uiso   1.00
O41    O     0.29719   0.24631   0.25310   0.00000  Uiso   1.00
O42    O     0.16712   0.21780   0.29314   0.00000  Uiso   1.00
O43    O     0.03614   0.08702   0.24691   0.00000  Uiso   1.00
O44    O     0.05822   0.23702   0.24502   0.00000  Uiso   1.00
O45    O     0.27512   0.09632   0.25499   0.00000  Uiso   1.00
O46    O     0.30328   0.17397   0.32247   0.00000  Uiso   1.00
O47    O     0.03005   0.15937   0.17753   0.00000  Uiso   1.00
O48    O     0.06431   0.16467   0.31439   0.00000  Uiso   1.00
O49    O     0.26902   0.16866   0.18561   0.00000  Uiso   1.00
O50    O     0.16621   0.11542   0.20698   0.00000  Uiso   1.00
Zn51   Zn    0.27033   0.17287   0.25540   0.00000  Uiso   1.00
Zn52   Zn    0.06300   0.16046   0.24461   0.00000  Uiso   1.00
C53    C     0.34831   0.26484   0.24885   0.00000  Uiso   1.00
C54    C     0.64572   0.16305   0.15892   0.00000  Uiso   1.00
C55    C     0.36665   0.18232   0.39306   0.00000  Uiso   1.00
C56    C     0.63598   0.16080   0.10619   0.00000  Uiso   1.00
C57    C     0.35995   0.23842   0.46619   0.00000  Uiso   1.00
C58    C     0.65507   0.12619   0.02547   0.00000  Uiso   1.00
C59    C     0.33787   0.21934   0.41989   0.00000  Uiso   1.00
C60    C     0.33795   0.13467   0.07496   0.00000  Uiso   1.00
C61    C     0.41564   0.16329   0.41293   0.00000  Uiso   1.00
C62    C     0.58757   0.18214   0.08753   0.00000  Uiso   1.00
C63    C     0.44212   0.18631   0.45634   0.00000  Uiso   1.00
C64    C     0.65170   0.06849   0.25118   0.00000  Uiso   1.00
C65    C     0.57057   0.17459   0.03808   0.00000  Uiso   1.00
C66    C     0.41246   0.22283   0.48426   0.00000  Uiso   1.00
C67    C     0.60383   0.14414   0.00725   0.00000  Uiso   1.00
C68    C     0.49740   0.17419   0.47222   0.00000  Uiso   1.00
C69    C     0.51900   0.19292   0.01960   0.00000  Uiso   1.00
C70    C     0.48837   0.22924   0.04686   0.00000  Uiso   1.00
C71    C     0.53239   0.14530   0.44171   0.00000  Uiso   1.00
C72    C     0.43618   0.24413   0.02916   0.00000  Uiso   1.00
C73    C     0.58490   0.13096   0.45900   0.00000  Uiso   1.00
C74    C     0.35611   0.31939   0.24815   0.00000  Uiso   1.00
C75    C     0.64390   0.01395   0.25194   0.00000  Uiso   1.00
C76    C     0.35450   0.17128   0.34103   0.00000  Uiso   1.00
H77    H     0.41433   0.27249   0.05075   0.00000  Uiso   1.00
H78    H     0.52116   0.13445   0.40369   0.00000  Uiso   1.00
H79    H     0.39907   0.00306   0.24449   0.00000  Uiso   1.00
H80    H     0.60094   0.33028   0.25560   0.00000  Uiso   1.00
H81    H     0.46478   0.09676   0.19070   0.00000  Uiso   1.00
H82    H     0.53522   0.23636   0.30952   0.00000  Uiso   1.00
H83    H     0.61027   0.10849   0.43473   0.00000  Uiso   1.00
H84    H     0.56155   0.20149   0.11310   0.00000  Uiso   1.00
H85    H     0.43363   0.13185   0.39238   0.00000  Uiso   1.00
H86    H     0.37621   0.11855   0.08911   0.00000  Uiso   1.00
H87    H     0.63306   0.23464   0.40450   0.00000  Uiso   1.00
H88    H     0.33728   0.26682   0.48693   0.00000  Uiso   1.00
H89    H     0.34809   0.10403   0.00185   0.00000  Uiso   1.00
H90    H     0.50471   0.24859   0.08126   0.00000  Uiso   1.00
N91    N     0.48029   0.15216   0.23740   0.00000  Uiso   1.00
N92    N     0.51971   0.18117   0.26261   0.00000  Uiso   1.00
O93    O     0.63052   0.24631   0.25310   0.00000  Uiso   1.00
O94    O     0.50046   0.21780   0.29314   0.00000  Uiso   1.00
O95    O     0.36948   0.08702   0.24691   0.00000  Uiso   1.00
O96    O     0.39155   0.23702   0.24502   0.00000  Uiso   1.00
O97    O     0.60845   0.09632   0.25499   0.00000  Uiso   1.00
O98    O     0.63662   0.17397   0.32247   0.00000  Uiso   1.00
O99    O     0.36338   0.15937   0.17753   0.00000  Uiso   1.00
O100   O     0.39764   0.16467   0.31439   0.00000  Uiso   1.00
O101   O     0.60236   0.16866   0.18561   0.00000  Uiso   1.00
O102   O     0.49954   0.11542   0.20698   0.00000  Uiso   1.00
Zn103  Zn    0.60366   0.17287   0.25540   0.00000  Uiso   1.00
Zn104  Zn    0.39634   0.16046   0.24461   0.00000  Uiso   1.00
C105   C     0.68164   0.26484   0.24885   0.00000  Uiso   1.00
C106   C     0.97905   0.16305   0.15892   0.00000  Uiso   1.00
C107   C     0.69999   0.18232   0.39306   0.00000  Uiso   1.00
C108   C     0.96931   0.16080   0.10619   0.00000  Uiso   1.00
C109   C     0.69328   0.23842   0.46619   0.00000  Uiso   1.00
C110   C     0.98841   0.12619   0.02547   0.00000  Uiso   1.00
C111   C     0.67120   0.21934   0.41989   0.00000  Uiso   1.00
C112   C     0.67129   0.13467   0.07496   0.00000  Uiso   1.00
C113   C     0.74897   0.16329   0.41293   0.00000  Uiso   1.00
C114   C     0.92090   0.18214   0.08753   0.00000  Uiso   1.00
C115   C     0.77546   0.18631   0.45634   0.00000  Uiso   1.00
C116   C     0.98503   0.06849   0.25118   0.00000  Uiso   1.00
C117   C     0.90390   0.17459   0.03808   0.00000  Uiso   1.00
C118   C     0.74579   0.22283   0.48426   0.00000  Uiso   1.00
C119   C     0.93716   0.14414   0.00725   0.00000  Uiso   1.00
C120   C     0.83073   0.17419   0.47222   0.00000  Uiso   1.00
C121   C     0.85234   0.19292   0.01960   0.00000  Uiso   1.00
C122   C     0.82170   0.22924   0.04686   0.00000  Uiso   1.00
C123   C     0.86572   0.14530   0.44171   0.00000  Uiso   1.00
C124   C     0.76951   0.24413   0.02916   0.00000  Uiso   1.00
C125   C     0.91824   0.13096   0.45900   0.00000  Uiso   1.00
C126   C     0.68945   0.31939   0.24815   0.00000  Uiso   1.00
C127   C     0.97724   0.01395   0.25194   0.00000  Uiso   1.00
C128   C     0.68783   0.17128   0.34103   0.00000  Uiso   1.00
H129   H     0.74766   0.27249   0.05075   0.00000  Uiso   1.00
H130   H     0.85450   0.13445   0.40369   0.00000  Uiso   1.00
H131   H     0.73240   0.00306   0.24449   0.00000  Uiso   1.00
H132   H     0.93428   0.33028   0.25560   0.00000  Uiso   1.00
H133   H     0.79812   0.09676   0.19070   0.00000  Uiso   1.00
H134   H     0.86855   0.23636   0.30952   0.00000  Uiso   1.00
H135   H     0.94360   0.10849   0.43473   0.00000  Uiso   1.00
H136   H     0.89488   0.20149   0.11310   0.00000  Uiso   1.00
H137   H     0.76696   0.13185   0.39238   0.00000  Uiso   1.00
H138   H     0.70955   0.11855   0.08911   0.00000  Uiso   1.00
H139   H     0.96640   0.23464   0.40450   0.00000  Uiso   1.00
H140   H     0.67061   0.26682   0.48693   0.00000  Uiso   1.00
H141   H     0.68142   0.10403   0.00185   0.00000  Uiso   1.00
H142   H     0.83805   0.24859   0.08126   0.00000  Uiso   1.00
N143   N     0.81362   0.15216   0.23740   0.00000  Uiso   1.00
N144   N     0.85305   0.18117   0.26261   0.00000  Uiso   1.00
O145   O     0.96386   0.24631   0.25310   0.00000  Uiso   1.00
O146   O     0.83379   0.21780   0.29314   0.00000  Uiso   1.00
O147   O     0.70281   0.08702   0.24691   0.00000  Uiso   1.00
O148   O     0.72488   0.23702   0.24502   0.00000  Uiso   1.00
O149   O     0.94178   0.09632   0.25499   0.00000  Uiso   1.00
O150   O     0.96995   0.17397   0.32247   0.00000  Uiso   1.00
O151   O     0.69672   0.15937   0.17753   0.00000  Uiso   1.00
O152   O     0.73098   0.16467   0.31439   0.00000  Uiso   1.00
O153   O     0.93569   0.16866   0.18561   0.00000  Uiso   1.00
O154   O     0.83288   0.11542   0.20698   0.00000  Uiso   1.00
Zn155  Zn    0.93700   0.17287   0.25540   0.00000  Uiso   1.00
Zn156  Zn    0.72967   0.16046   0.24461   0.00000  Uiso   1.00
C157   C     0.01497   0.59818   0.24885   0.00000  Uiso   1.00
C158   C     0.31238   0.49639   0.15892   0.00000  Uiso   1.00
C159   C     0.03332   0.51566   0.39306   0.00000  Uiso   1.00
C160   C     0.30265   0.49413   0.10619   0.00000  Uiso   1.00
C161   C     0.02661   0.57175   0.46619   0.00000  Uiso   1.00
C162   C     0.32174   0.45952   0.02547   0.00000  Uiso   1.00
C163   C     0.00454   0.55267   0.41989   0.00000  Uiso   1.00
C164   C     0.00462   0.46800   0.07496   0.00000  Uiso   1.00
C165   C     0.08230   0.49662   0.41293   0.00000  Uiso   1.00
C166   C     0.25424   0.51548   0.08753   0.00000  Uiso   1.00
C167   C     0.10879   0.51964   0.45634   0.00000  Uiso   1.00
C168   C     0.31837   0.40183   0.25118   0.00000  Uiso   1.00
C169   C     0.23723   0.50792   0.03808   0.00000  Uiso   1.00
C170   C     0.07913   0.55616   0.48426   0.00000  Uiso   1.00
C171   C     0.27049   0.47747   0.00725   0.00000  Uiso   1.00
C172   C     0.16406   0.50752   0.47222   0.00000  Uiso   1.00
C173   C     0.18567   0.52626   0.01960   0.00000  Uiso   1.00
C174   C     0.15504   0.56257   0.04686   0.00000  Uiso   1.00
C175   C     0.19906   0.47863   0.44171   0.00000  Uiso   1.00
C176   C     0.10284   0.57747   0.02916   0.00000  Uiso   1.00
C177   C     0.25157   0.46430   0.45900   0.00000  Uiso   1.00
C178   C     0.02278   0.65272   0.24815   0.00000  Uiso   1.00
C179   C     0.31057   0.34728   0.25194   0.00000  Uiso   1.00
C180   C     0.02116   0.50461   0.34103   0.00000  Uiso   1.00
H181   H     0.08099   0.60583   0.05075   0.00000  Uiso   1.00
H182   H     0.18783   0.46778   0.40369   0.00000  Uiso   1.00
H183   H     0.06574   0.33639   0.24449   0.00000  Uiso   1.00
H184   H     0.26761   0.66361   0.25560   0.00000  Uiso   1.00
H185   H     0.13145   0.43010   0.19070   0.00000  Uiso   1.00
H186   H     0.20188   0.56969   0.30952   0.00000  Uiso   1.00
H187   H     0.27693   0.44182   0.43473   0.00000  Uiso   1.00
H188   H     0.22822   0.53483   0.11310   0.00000  Uiso   1.00
H189   H     0.10029   0.46519   0.39238   0.00000  Uiso   1.00
H190   H     0.04288   0.45188   0.08911   0.00000  Uiso   1.00
H191   H     0.29973   0.56797   0.40450   0.00000  Uiso   1.00
H192   H     0.00394   0.60015   0.48693   0.00000  Uiso   1.00
H193   H     0.01476   0.43737   0.00185   0.00000  Uiso   1.00
H194   H     0.17138   0.58193   0.08126   0.00000  Uiso   1.00
N195   N     0.14695   0.48550   0.23740   0.00000  Uiso   1.00
N196   N     0.18638   0.51450   0.26261   0.00000  Uiso   1.00
O197   O     0.29719   0.57964   0.25310   0.00000  Uiso   1.00
O198   O     0.16712   0.55114   0.29314   0.00000  Uiso   1.00
O199   O     0.03614   0.42036   0.24691   0.00000  Uiso   1.00
O200   O     0.05822   0.57035   0.24502   0.00000  Uiso   1.00
O201   O     0.27512   0.42965   0.25499   0.00000  Uiso   1.00
O202   O     0.30328   0.50730   0.32247   0.00000  Uiso   1.00
O203   O     0.03005   0.49270   0.17753   0.00000  Uiso   1.00
O204   O     0.06431   0.49801   0.31439   0.00000  Uiso   1.00
O205   O     0.26902   0.50199   0.18561   0.00000  Uiso   1.00
O206   O     0.16621   0.44875   0.20698   0.00000  Uiso   1.00
Zn207  Zn    0.27033   0.50621   0.25540   0.00000  Uiso   1.00
Zn208  Zn    0.06300   0.49379   0.24461   0.00000  Uiso   1.00
C209   C     0.34831   0.59818   0.24885   0.00000  Uiso   1.00
C210   C     0.64572   0.49639   0.15892   0.00000  Uiso   1.00
C211   C     0.36665   0.51566   0.39306   0.00000  Uiso   1.00
C212   C     0.63598   0.49413   0.10619   0.00000  Uiso   1.00
C213   C     0.35995   0.57175   0.46619   0.00000  Uiso   1.00
C214   C     0.65507   0.45952   0.02547   0.00000  Uiso   1.00
C215   C     0.33787   0.55267   0.41989   0.00000  Uiso   1.00
C216   C     0.33795   0.46800   0.07496   0.00000  Uiso   1.00
C217   C     0.41564   0.49662   0.41293   0.00000  Uiso   1.00
C218   C     0.58757   0.51548   0.08753   0.00000  Uiso   1.00
C219   C     0.44212   0.51964   0.45634   0.00000  Uiso   1.00
C220   C     0.65170   0.40183   0.25118   0.00000  Uiso   1.00
C221   C     0.57057   0.50792   0.03808   0.00000  Uiso   1.00
C222   C     0.41246   0.55616   0.48426   0.00000  Uiso   1.00
C223   C     0.60383   0.47747   0.00725   0.00000  Uiso   1.00
C224   C     0.49740   0.50752   0.47222   0.00000  Uiso   1.00
C225   C     0.51900   0.52626   0.01960   0.00000  Uiso   1.00
C226   C     0.48837   0.56257   0.04686   0.00000  Uiso   1.00
C227   C     0.53239   0.47863   0.44171   0.00000  Uiso   1.00
C228   C     0.43618   0.57747   0.02916   0.00000  Uiso   1.00
C229   C     0.58490   0.46430   0.45900   0.00000  Uiso   1.00
C230   C     0.35611   0.65272   0.24815   0.00000  Uiso   1.00
C231   C     0.64390   0.34728   0.25194   0.00000  Uiso   1.00
C232   C     0.35450   0.50461   0.34103   0.00000  Uiso   1.00
H233   H     0.41433   0.60583   0.05075   0.00000  Uiso   1.00
H234   H     0.52116   0.46778   0.40369   0.00000  Uiso   1.00
H235   H     0.39907   0.33639   0.24449   0.00000  Uiso   1.00
H236   H     0.60094   0.66361   0.25560   0.00000  Uiso   1.00
H237   H     0.46478   0.43010   0.19070   0.00000  Uiso   1.00
H238   H     0.53522   0.56969   0.30952   0.00000  Uiso   1.00
H239   H     0.61027   0.44182   0.43473   0.00000  Uiso   1.00
H240   H     0.56155   0.53483   0.11310   0.00000  Uiso   1.00
H241   H     0.43363   0.46519   0.39238   0.00000  Uiso   1.00
H242   H     0.37621   0.45188   0.08911   0.00000  Uiso   1.00
H243   H     0.63306   0.56797   0.40450   0.00000  Uiso   1.00
H244   H     0.33728   0.60015   0.48693   0.00000  Uiso   1.00
H245   H     0.34809   0.43737   0.00185   0.00000  Uiso   1.00
H246   H     0.50471   0.58193   0.08126   0.00000  Uiso   1.00
N247   N     0.48029   0.48550   0.23740   0.00000  Uiso   1.00
N248   N     0.51971   0.51450   0.26261   0.00000  Uiso   1.00
O249   O     0.63052   0.57964   0.25310   0.00000  Uiso   1.00
O250   O     0.50046   0.55114   0.29314   0.00000  Uiso   1.00
O251   O     0.36948   0.42036   0.24691   0.00000  Uiso   1.00
O252   O     0.39155   0.57035   0.24502   0.00000  Uiso   1.00
O253   O     0.60845   0.42965   0.25499   0.00000  Uiso   1.00
O254   O     0.63662   0.50730   0.32247   0.00000  Uiso   1.00
O255   O     0.36338   0.49270   0.17753   0.00000  Uiso   1.00
O256   O     0.39764   0.49801   0.31439   0.00000  Uiso   1.00
O257   O     0.60236   0.50199   0.18561   0.00000  Uiso   1.00
O258   O     0.49954   0.44875   0.20698   0.00000  Uiso   1.00
Zn259  Zn    0.60366   0.50621   0.25540   0.00000  Uiso   1.00
Zn260  Zn    0.39634   0.49379   0.24461   0.00000  Uiso   1.00
C261   C     0.68164   0.59818   0.24885   0.00000  Uiso   1.00
C262   C     0.97905   0.49639   0.15892   0.00000  Uiso   1.00
C263   C     0.69999   0.51566   0.39306   0.00000  Uiso   1.00
C264   C     0.96931   0.49413   0.10619   0.00000  Uiso   1.00
C265   C     0.69328   0.57175   0.46619   0.00000  Uiso   1.00
C266   C     0.98841   0.45952   0.02547   0.00000  Uiso   1.00
C267   C     0.67120   0.55267   0.41989   0.00000  Uiso   1.00
C268   C     0.67129   0.46800   0.07496   0.00000  Uiso   1.00
C269   C     0.74897   0.49662   0.41293   0.00000  Uiso   1.00
C270   C     0.92090   0.51548   0.08753   0.00000  Uiso   1.00
C271   C     0.77546   0.51964   0.45634   0.00000  Uiso   1.00
C272   C     0.98503   0.40183   0.25118   0.00000  Uiso   1.00
C273   C     0.90390   0.50792   0.03808   0.00000  Uiso   1.00
C274   C     0.74579   0.55616   0.48426   0.00000  Uiso   1.00
C275   C     0.93716   0.47747   0.00725   0.00000  Uiso   1.00
C276   C     0.83073   0.50752   0.47222   0.00000  Uiso   1.00
C277   C     0.85234   0.52626   0.01960   0.00000  Uiso   1.00
C278   C     0.82170   0.56257   0.04686   0.00000  Uiso   1.00
C279   C     0.86572   0.47863   0.44171   0.00000  Uiso   1.00
C280   C     0.76951   0.57747   0.02916   0.00000  Uiso   1.00
C281   C     0.91824   0.46430   0.45900   0.00000  Uiso   1.00
C282   C     0.68945   0.65272   0.24815   0.00000  Uiso   1.00
C283   C     0.97724   0.34728   0.25194   0.00000  Uiso   1.00
C284   C     0.68783   0.50461   0.34103   0.00000  Uiso   1.00
H285   H     0.74766   0.60583   0.05075   0.00000  Uiso   1.00
H286   H     0.85450   0.46778   0.40369   0.00000  Uiso   1.00
H287   H     0.73240   0.33639   0.24449   0.00000  Uiso   1.00
H288   H     0.93428   0.66361   0.25560   0.00000  Uiso   1.00
H289   H     0.79812   0.43010   0.19070   0.00000  Uiso   1.00
H290   H     0.86855   0.56969   0.30952   0.00000  Uiso   1.00
H291   H     0.94360   0.44182   0.43473   0.00000  Uiso   1.00
H292   H     0.89488   0.53483   0.11310   0.00000  Uiso   1.00
H293   H     0.76696   0.46519   0.39238   0.00000  Uiso   1.00
H294   H     0.70955   0.45188   0.08911   0.00000  Uiso   1.00
H295   H     0.96640   0.56797   0.40450   0.00000  Uiso   1.00
H296   H     0.67061   0.60015   0.48693   0.00000  Uiso   1.00
H297   H     0.68142   0.43737   0.00185   0.00000  Uiso   1.00
H298   H     0.83805   0.58193   0.08126   0.00000  Uiso   1.00
N299   N     0.81362   0.48550   0.23740   0.00000  Uiso   1.00
N300   N     0.85305   0.51450   0.26261   0.00000  Uiso   1.00
O301   O     0.96386   0.57964   0.25310   0.00000  Uiso   1.00
O302   O     0.83379   0.55114   0.29314   0.00000  Uiso   1.00
O303   O     0.70281   0.42036   0.24691   0.00000  Uiso   1.00
O304   O     0.72488   0.57035   0.24502   0.00000  Uiso   1.00
O305   O     0.94178   0.42965   0.25499   0.00000  Uiso   1.00
O306   O     0.96995   0.50730   0.32247   0.00000  Uiso   1.00
O307   O     0.69672   0.49270   0.17753   0.00000  Uiso   1.00
O308   O     0.73098   0.49801   0.31439   0.00000  Uiso   1.00
O309   O     0.93569   0.50199   0.18561   0.00000  Uiso   1.00
O310   O     0.83288   0.44875   0.20698   0.00000  Uiso   1.00
Zn311  Zn    0.93700   0.50621   0.25540   0.00000  Uiso   1.00
Zn312  Zn    0.72967   0.49379   0.24461   0.00000  Uiso   1.00
C313   C     0.01497   0.93151   0.24885   0.00000  Uiso   1.00
C314   C     0.31238   0.82972   0.15892   0.00000  Uiso   1.00
C315   C     0.03332   0.84899   0.39306   0.00000  Uiso   1.00
C316   C     0.30265   0.82747   0.10619   0.00000  Uiso   1.00
C317   C     0.02661   0.90509   0.46619   0.00000  Uiso   1.00
C318   C     0.32174   0.79285   0.02547   0.00000  Uiso   1.00
C319   C     0.00454   0.88601   0.41989   0.00000  Uiso   1.00
C320   C     0.00462   0.80134   0.07496   0.00000  Uiso   1.00
C321   C     0.08230   0.82995   0.41293   0.00000  Uiso   1.00
C322   C     0.25424   0.84881   0.08753   0.00000  Uiso   1.00
C323   C     0.10879   0.85297   0.45634   0.00000  Uiso   1.00
C324   C     0.31837   0.73516   0.25118   0.00000  Uiso   1.00
C325   C     0.23723   0.84125   0.03808   0.00000  Uiso   1.00
C326   C     0.07913   0.88950   0.48426   0.00000  Uiso   1.00
C327   C     0.27049   0.81081   0.00725   0.00000  Uiso   1.00
C328   C     0.16406   0.84085   0.47222   0.00000  Uiso   1.00
C329   C     0.18567   0.85959   0.01960   0.00000  Uiso   1.00
C330   C     0.15504   0.89591   0.04686   0.00000  Uiso   1.00
C331   C     0.19906   0.81197   0.44171   0.00000  Uiso   1.00
C332   C     0.10284   0.91080   0.02916   0.00000  Uiso   1.00
C333   C     0.25157   0.79763   0.45900   0.00000  Uiso   1.00
C334   C     0.02278   0.98605   0.24815   0.00000  Uiso   1.00
C335   C     0.31057   0.68062   0.25194   0.00000  Uiso   1.00
C336   C     0.02116   0.83794   0.34103   0.00000  Uiso   1.00
H337   H     0.08099   0.93916   0.05075   0.00000  Uiso   1.00
H338   H     0.18783   0.80111   0.40369   0.00000  Uiso   1.00
H339   H     0.06574   0.66972   0.24449   0.00000  Uiso   1.00
H340   H     0.26761   0.99695   0.25560   0.00000  Uiso   1.00
H341   H     0.13145   0.76343   0.19070   0.00000  Uiso   1.00
H342   H     0.20188   0.90303   0.30952   0.00000  Uiso   1.00
H343   H     0.27693   0.77515   0.43473   0.00000  Uiso   1.00
H344   H     0.22822   0.86816   0.11310   0.00000  Uiso   1.00
H345   H     0.10029   0.79852   0.39238   0.00000  Uiso   1.00
H346   H     0.04288   0.78521   0.08911   0.00000  Uiso   1.00
H347   H     0.29973   0.90131   0.40450   0.00000  Uiso   1.00
H348   H     0.00394   0.93349   0.48693   0.00000  Uiso   1.00
H349   H     0.01476   0.77070   0.00185   0.00000  Uiso   1.00
H350   H     0.17138   0.91526   0.08126   0.00000  Uiso   1.00
N351   N     0.14695   0.81883   0.23740   0.00000  Uiso   1.00
N352   N     0.18638   0.84784   0.26261   0.00000  Uiso   1.00
O353   O     0.29719   0.91298   0.25310   0.00000  Uiso   1.00
O354   O     0.16712   0.88447   0.29314   0.00000  Uiso   1.00
O355   O     0.03614   0.75369   0.24691   0.00000  Uiso   1.00
O356   O     0.05822   0.90368   0.24502   0.00000  Uiso   1.00
O357   O     0.27512   0.76298   0.25499   0.00000  Uiso   1.00
O358   O     0.30328   0.84063   0.32247   0.00000  Uiso   1.00
O359   O     0.03005   0.82603   0.17753   0.00000  Uiso   1.00
O360   O     0.06431   0.83134   0.31439   0.00000  Uiso   1.00
O361   O     0.26902   0.83533   0.18561   0.00000  Uiso   1.00
O362   O     0.16621   0.78209   0.20698   0.00000  Uiso   1.00
Zn363  Zn    0.27033   0.83954   0.25540   0.00000  Uiso   1.00
Zn364  Zn    0.06300   0.82713   0.24461   0.00000  Uiso   1.00
C365   C     0.34831   0.93151   0.24885   0.00000  Uiso   1.00
C366   C     0.64572   0.82972   0.15892   0.00000  Uiso   1.00
C367   C     0.36665   0.84899   0.39306   0.00000  Uiso   1.00
C368   C     0.63598   0.82747   0.10619   0.00000  Uiso   1.00
C369   C     0.35995   0.90509   0.46619   0.00000  Uiso   1.00
C370   C     0.65507   0.79285   0.02547   0.00000  Uiso   1.00
C371   C     0.33787   0.88601   0.41989   0.00000  Uiso   1.00
C372   C     0.33795   0.80134   0.07496   0.00000  Uiso   1.00
C373   C     0.41564   0.82995   0.41293   0.00000  Uiso   1.00
C374   C     0.58757   0.84881   0.08753   0.00000  Uiso   1.00
C375   C     0.44212   0.85297   0.45634   0.00000  Uiso   1.00
C376   C     0.65170   0.73516   0.25118   0.00000  Uiso   1.00
C377   C     0.57057   0.84125   0.03808   0.00000  Uiso   1.00
C378   C     0.41246   0.88950   0.48426   0.00000  Uiso   1.00
C379   C     0.60383   0.81081   0.00725   0.00000  Uiso   1.00
C380   C     0.49740   0.84085   0.47222   0.00000  Uiso   1.00
C381   C     0.51900   0.85959   0.01960   0.00000  Uiso   1.00
C382   C     0.48837   0.89591   0.04686   0.00000  Uiso   1.00
C383   C     0.53239   0.81197   0.44171   0.00000  Uiso   1.00
C384   C     0.43618   0.91080   0.02916   0.00000  Uiso   1.00
C385   C     0.58490   0.79763   0.45900   0.00000  Uiso   1.00
C386   C     0.35611   0.98605   0.24815   0.00000  Uiso   1.00
C387   C     0.64390   0.68062   0.25194   0.00000  Uiso   1.00
C388   C     0.35450   0.83794   0.34103   0.00000  Uiso   1.00
H389   H     0.41433   0.93916   0.05075   0.00000  Uiso   1.00
H390   H     0.52116   0.80111   0.40369   0.00000  Uiso   1.00
H391   H     0.39907   0.66972   0.24449   0.00000  Uiso   1.00
H392   H     0.60094   0.99695   0.25560   0.00000  Uiso   1.00
H393   H     0.46478   0.76343   0.19070   0.00000  Uiso   1.00
H394   H     0.53522   0.90303   0.30952   0.00000  Uiso   1.00
H395   H     0.61027   0.77515   0.43473   0.00000  Uiso   1.00
H396   H     0.56155   0.86816   0.11310   0.00000  Uiso   1.00
H397   H     0.43363   0.79852   0.39238   0.00000  Uiso   1.00
H398   H     0.37621   0.78521   0.08911   0.00000  Uiso   1.00
H399   H     0.63306   0.90131   0.40450   0.00000  Uiso   1.00
H400   H     0.33728   0.93349   0.48693   0.00000  Uiso   1.00
H401   H     0.34809   0.77070   0.00185   0.00000  Uiso   1.00
H402   H     0.50471   0.91526   0.08126   0.00000  Uiso   1.00
N403   N     0.48029   0.81883   0.23740   0.00000  Uiso   1.00
N404   N     0.51971   0.84784   0.26261   0.00000  Uiso   1.00
O405   O     0.63052   0.91298   0.25310   0.00000  Uiso   1.00
O406   O     0.50046   0.88447   0.29314   0.00000  Uiso   1.00
O407   O     0.36948   0.75369   0.24691   0.00000  Uiso   1.00
O408   O     0.39155   0.90368   0.24502   0.00000  Uiso   1.00
O409   O     0.60845   0.76298   0.25499   0.00000  Uiso   1.00
O410   O     0.63662   0.84063   0.32247   0.00000  Uiso   1.00
O411   O     0.36338   0.82603   0.17753   0.00000  Uiso   1.00
O412   O     0.39764   0.83134   0.31439   0.00000  Uiso   1.00
O413   O     0.60236   0.83533   0.18561   0.00000  Uiso   1.00
O414   O     0.49954   0.78209   0.20698   0.00000  Uiso   1.00
Zn415  Zn    0.60366   0.83954   0.25540   0.00000  Uiso   1.00
Zn416  Zn    0.39634   0.82713   0.24461   0.00000  Uiso   1.00
C417   C     0.68164   0.93151   0.24885   0.00000  Uiso   1.00
C418   C     0.97905   0.82972   0.15892   0.00000  Uiso   1.00
C419   C     0.69999   0.84899   0.39306   0.00000  Uiso   1.00
C420   C     0.96931   0.82747   0.10619   0.00000  Uiso   1.00
C421   C     0.69328   0.90509   0.46619   0.00000  Uiso   1.00
C422   C     0.98841   0.79285   0.02547   0.00000  Uiso   1.00
C423   C     0.67120   0.88601   0.41989   0.00000  Uiso   1.00
C424   C     0.67129   0.80134   0.07496   0.00000  Uiso   1.00
C425   C     0.74897   0.82995   0.41293   0.00000  Uiso   1.00
C426   C     0.92090   0.84881   0.08753   0.00000  Uiso   1.00
C427   C     0.77546   0.85297   0.45634   0.00000  Uiso   1.00
C428   C     0.98503   0.73516   0.25118   0.00000  Uiso   1.00
C429   C     0.90390   0.84125   0.03808   0.00000  Uiso   1.00
C430   C     0.74579   0.88950   0.48426   0.00000  Uiso   1.00
C431   C     0.93716   0.81081   0.00725   0.00000  Uiso   1.00
C432   C     0.83073   0.84085   0.47222   0.00000  Uiso   1.00
C433   C     0.85234   0.85959   0.01960   0.00000  Uiso   1.00
C434   C     0.82170   0.89591   0.04686   0.00000  Uiso   1.00
C435   C     0.86572   0.81197   0.44171   0.00000  Uiso   1.00
C436   C     0.76951   0.91080   0.02916   0.00000  Uiso   1.00
C437   C     0.91824   0.79763   0.45900   0.00000  Uiso   1.00
C438   C     0.68945   0.98605   0.24815   0.00000  Uiso   1.00
C439   C     0.97724   0.68062   0.25194   0.00000  Uiso   1.00
C440   C     0.68783   0.83794   0.34103   0.00000  Uiso   1.00
H441   H     0.74766   0.93916   0.05075   0.00000  Uiso   1.00
H442   H     0.85450   0.80111   0.40369   0.00000  Uiso   1.00
H443   H     0.73240   0.66972   0.24449   0.00000  Uiso   1.00
H444   H     0.93428   0.99695   0.25560   0.00000  Uiso   1.00
H445   H     0.79812   0.76343   0.19070   0.00000  Uiso   1.00
H446   H     0.86855   0.90303   0.30952   0.00000  Uiso   1.00
H447   H     0.94360   0.77515   0.43473   0.00000  Uiso   1.00
H448   H     0.89488   0.86816   0.11310   0.00000  Uiso   1.00
H449   H     0.76696   0.79852   0.39238   0.00000  Uiso   1.00
H450   H     0.70955   0.78521   0.08911   0.00000  Uiso   1.00
H451   H     0.96640   0.90131   0.40450   0.00000  Uiso   1.00
H452   H     0.67061   0.93349   0.48693   0.00000  Uiso   1.00
H453   H     0.68142   0.77070   0.00185   0.00000  Uiso   1.00
H454   H     0.83805   0.91526   0.08126   0.00000  Uiso   1.00
N455   N     0.81362   0.81883   0.23740   0.00000  Uiso   1.00
N456   N     0.85305   0.84784   0.26261   0.00000  Uiso   1.00
O457   O     0.96386   0.91298   0.25310   0.00000  Uiso   1.00
O458   O     0.83379   0.88447   0.29314   0.00000  Uiso   1.00
O459   O     0.70281   0.75369   0.24691   0.00000  Uiso   1.00
O460   O     0.72488   0.90368   0.24502   0.00000  Uiso   1.00
O461   O     0.94178   0.76298   0.25499   0.00000  Uiso   1.00
O462   O     0.96995   0.84063   0.32247   0.00000  Uiso   1.00
O463   O     0.69672   0.82603   0.17753   0.00000  Uiso   1.00
O464   O     0.73098   0.83134   0.31439   0.00000  Uiso   1.00
O465   O     0.93569   0.83533   0.18561   0.00000  Uiso   1.00
O466   O     0.83288   0.78209   0.20698   0.00000  Uiso   1.00
Zn467  Zn    0.93700   0.83954   0.25540   0.00000  Uiso   1.00
Zn468  Zn    0.72967   0.82713   0.24461   0.00000  Uiso   1.00
C469   C     0.01497   0.26484   0.74885   0.00000  Uiso   1.00
C470   C     0.31238   0.16305   0.65892   0.00000  Uiso   1.00
C471   C     0.03332   0.18232   0.89306   0.00000  Uiso   1.00
C472   C     0.30265   0.16080   0.60619   0.00000  Uiso   1.00
C473   C     0.02661   0.23842   0.96619   0.00000  Uiso   1.00
C474   C     0.32174   0.12619   0.52547   0.00000  Uiso   1.00
C475   C     0.00454   0.21934   0.91989   0.00000  Uiso   1.00
C476   C     0.00462   0.13467   0.57496   0.00000  Uiso   1.00
C477   C     0.08230   0.16329   0.91293   0.00000  Uiso   1.00
C478   C     0.25424   0.18214   0.58753   0.00000  Uiso   1.00
C479   C     0.10879   0.18631   0.95634   0.00000  Uiso   1.00
C480   C     0.31837   0.06849   0.75118   0.00000  Uiso   1.00
C481   C     0.23723   0.17459   0.53808   0.00000  Uiso   1.00
C482   C     0.07913   0.22283   0.98426   0.00000  Uiso   1.00
C483   C     0.27049   0.14414   0.50725   0.00000  Uiso   1.00
C484   C     0.16406   0.17419   0.97222   0.00000  Uiso   1.00
C485   C     0.18567   0.19292   0.51960   0.00000  Uiso   1.00
C486   C     0.15504   0.22924   0.54686   0.00000  Uiso   1.00
C487   C     0.19906   0.14530   0.94171   0.00000  Uiso   1.00
C488   C     0.10284   0.24413   0.52916   0.00000  Uiso   1.00
C489   C     0.25157   0.13096   0.95900   0.00000  Uiso   1.00
C490   C     0.02278   0.31939   0.74815   0.00000  Uiso   1.00
C491   C     0.31057   0.01395   0.75194   0.00000  Uiso   1.00
C492   C     0.02116   0.17128   0.84103   0.00000  Uiso   1.00
H493   H     0.08099   0.27249   0.55075   0.00000  Uiso   1.00
H494   H     0.18783   0.13445   0.90369   0.00000  Uiso   1.00
H495   H     0.06574   0.00306   0.74449   0.00000  Uiso   1.00
H496   H     0.26761   0.33028   0.75560   0.00000  Uiso   1.00
H497   H     0.13145   0.09676   0.69070   0.00000  Uiso   1.00
H498   H     0.20188   0.23636   0.80952   0.00000  Uiso   1.00
H499   H     0.27693   0.10849   0.93473   0.00000  Uiso   1.00
H500   H     0.22822   0.20149   0.61310   0.00000  Uiso   1.00
H501   H     0.10029   0.13185   0.89238   0.00000  Uiso   1.00
H502   H     0.04288   0.11855   0.58911   0.00000  Uiso   1.00
H503   H     0.29973   0.23464   0.90450   0.00000  Uiso   1.00
H504   H     0.00394   0.26682   0.98693   0.00000  Uiso   1.00
H505   H     0.01476   0.10403   0.50185   0.00000  Uiso   1.00
H506   H     0.17138   0.24859   0.58126   0.00000  Uiso   1.00
N507   N     0.14695   0.15216   0.73740   0.00000  Uiso   1.00
N508   N     0.18638   0.18117   0.76261   0.00000  Uiso   1.00
O509   O     0.29719   0.24631   0.75310   0.00000  Uiso   1.00
O510   O     0.16712   0.21780   0.79314   0.00000  Uiso   1.00
O511   O     0.03614   0.08702   0.74691   0.00000  Uiso   1.00
O512   O     0.05822   0.23702   0.74502   0.00000  Uiso   1.00
O513   O     0.27512   0.09632   0.75499   0.00000  Uiso   1.00
O514   O     0.30328   0.17397   0.82247   0.00000  Uiso   1.00
O515   O     0.03005   0.15937   0.67753   0.00000  Uiso   1.00
O516   O     0.06431   0.16467   0.81439   0.00000  Uiso   1.00
O517   O     0.26902   0.16866   0.68561   0.00000  Uiso   1.00
O518   O     0.16621   0.11542   0.70698   0.00000  Uiso   1.00
Zn519  Zn    0.27033   0.17287   0.75540   0.00000  Uiso   1.00
Zn520  Zn    0.06300   0.16046   0.74461   0.00000  Uiso   1.00
C521   C     0.34831   0.26484   0.74885   0.00000  Uiso   1.00
C522   C     0.64572   0.16305   0.65892   0.00000  Uiso   1.00
C523   C     0.36665   0.18232   0.89306   0.00000  Uiso   1.00
C524   C     0.63598   0.16080   0.60619   0.00000  Uiso   1.00
C525   C     0.35995   0.23842   0.96619   0.00000  Uiso   1.00
C526   C     0.65507   0.12619   0.52547   0.00000  Uiso   1.00
C527   C     0.33787   0.21934   0.91989   0.00000  Uiso   1.00
C528   C     0.33795   0.13467   0.57496   0.00000  Uiso   1.00
C529   C     0.41564   0.16329   0.91293   0.00000  Uiso   1.00
C530   C     0.58757   0.18214   0.58753   0.00000  Uiso   1.00
C531   C     0.44212   0.18631   0.95634   0.00000  Uiso   1.00
C532   C     0.65170   0.06849   0.75118   0.00000  Uiso   1.00
C533   C     0.57057   0.17459   0.53808   0.00000  Uiso   1.00
C534   C     0.41246   0.22283   0.98426   0.00000  Uiso   1.00
C535   C     0.60383   0.14414   0.50725   0.00000  Uiso   1.00
C536   C     0.49740   0.17419   0.97222   0.00000  Uiso   1.00
C537   C     0.51900   0.19292   0.51960   0.00000  Uiso   1.00
C538   C     0.48837   0.22924   0.54686   0.00000  Uiso   1.00
C539   C     0.53239   0.14530   0.94171   0.00000  Uiso   1.00
C540   C     0.43618   0.24413   0.52916   0.00000  Uiso   1.00
C541   C     0.58490   0.13096   0.95900   0.00000  Uiso   1.00
C542   C     0.35611   0.31939   0.74815   0.00000  Uiso   1.00
C543   C     0.64390   0.01395   0.75194   0.00000  Uiso   1.00
C544   C     0.35450   0.17128   0.84103   0.00000  Uiso   1.00
H545   H     0.41433   0.27249   0.55075   0.00000  Uiso   1.00
H546   H     0.52116   0.13445   0.90369   0.00000  Uiso   1.00
H547   H     0.39907   0.00306   0.74449   0.00000  Uiso   1.00
H548   H     0.60094   0.33028   0.75560   0.00000  Uiso   1.00
H549   H     0.46478   0.09676   0.69070   0.00000  Uiso   1.00
H550   H     0.53522   0.23636   0.80952   0.00000  Uiso   1.00
H551   H     0.61027   0.10849   0.93473   0.00000  Uiso   1.00
H552   H     0.56155   0.20149   0.61310   0.00000  Uiso   1.00
H553   H     0.43363   0.13185   0.89238   0.00000  Uiso   1.00
H554   H     0.37621   0.11855   0.58911   0.00000  Uiso   1.00
H555   H     0.63306   0.23464   0.90450   0.00000  Uiso   1.00
H556   H     0.33728   0.26682   0.98693   0.00000  Uiso   1.00
H557   H     0.34809   0.10403   0.50185   0.00000  Uiso   1.00
H558   H     0.50471   0.24859   0.58126   0.00000  Uiso   1.00
N559   N     0.48029   0.15216   0.73740   0.00000  Uiso   1.00
N560   N     0.51971   0.18117   0.76261   0.00000  Uiso   1.00
O561   O     0.63052   0.24631   0.75310   0.00000  Uiso   1.00
O562   O     0.50046   0.21780   0.79314   0.00000  Uiso   1.00
O563   O     0.36948   0.08702   0.74691   0.00000  Uiso   1.00
O564   O     0.39155   0.23702   0.74502   0.00000  Uiso   1.00
O565   O     0.60845   0.09632   0.75499   0.00000  Uiso   1.00
O566   O     0.63662   0.17397   0.82247   0.00000  Uiso   1.00
O567   O     0.36338   0.15937   0.67753   0.00000  Uiso   1.00
O568   O     0.39764   0.16467   0.81439   0.00000  Uiso   1.00
O569   O     0.60236   0.16866   0.68561   0.00000  Uiso   1.00
O570   O     0.49954   0.11542   0.70698   0.00000  Uiso   1.00
Zn571  Zn    0.60366   0.17287   0.75540   0.00000  Uiso   1.00
Zn572  Zn    0.39634   0.16046   0.74461   0.00000  Uiso   1.00
C573   C     0.68164   0.26484   0.74885   0.00000  Uiso   1.00
C574   C     0.97905   0.16305   0.65892   0.00000  Uiso   1.00
C575   C     0.69999   0.18232   0.89306   0.00000  Uiso   1.00
C576   C     0.96931   0.16080   0.60619   0.00000  Uiso   1.00
C577   C     0.69328   0.23842   0.96619   0.00000  Uiso   1.00
C578   C     0.98841   0.12619   0.52547   0.00000  Uiso   1.00
C579   C     0.67120   0.21934   0.91989   0.00000  Uiso   1.00
C580   C     0.67129   0.13467   0.57496   0.00000  Uiso   1.00
C581   C     0.74897   0.16329   0.91293   0.00000  Uiso   1.00
C582   C     0.92090   0.18214   0.58753   0.00000  Uiso   1.00
C583   C     0.77546   0.18631   0.95634   0.00000  Uiso   1.00
C584   C     0.98503   0.06849   0.75118   0.00000  Uiso   1.00
C585   C     0.90390   0.17459   0.53808   0.00000  Uiso   1.00
C586   C     0.74579   0.22283   0.98426   0.00000  Uiso   1.00
C587   C     0.93716   0.14414   0.50725   0.00000  Uiso   1.00
C588   C     0.83073   0.17419   0.97222   0.00000  Uiso   1.00
C589   C     0.85234   0.19292   0.51960   0.00000  Uiso   1.00
C590   C     0.82170   0.22924   0.54686   0.00000  Uiso   1.00
C591   C     0.86572   0.14530   0.94171   0.00000  Uiso   1.00
C592   C     0.76951   0.24413   0.52916   0.00000  Uiso   1.00
C593   C     0.91824   0.13096   0.95900   0.00000  Uiso   1.00
C594   C     0.68945   0.31939   0.74815   0.00000  Uiso   1.00
C595   C     0.97724   0.01395   0.75194   0.00000  Uiso   1.00
C596   C     0.68783   0.17128   0.84103   0.00000  Uiso   1.00
H597   H     0.74766   0.27249   0.55075   0.00000  Uiso   1.00
H598   H     0.85450   0.13445   0.90369   0.00000  Uiso   1.00
H599   H     0.73240   0.00306   0.74449   0.00000  Uiso   1.00
H600   H     0.93428   0.33028   0.75560   0.00000  Uiso   1.00
H601   H     0.79812   0.09676   0.69070   0.00000  Uiso   1.00
H602   H     0.86855   0.23636   0.80952   0.00000  Uiso   1.00
H603   H     0.94360   0.10849   0.93473   0.00000  Uiso   1.00
H604   H     0.89488   0.20149   0.61310   0.00000  Uiso   1.00
H605   H     0.76696   0.13185   0.89238   0.00000  Uiso   1.00
H606   H     0.70955   0.11855   0.58911   0.00000  Uiso   1.00
H607   H     0.96640   0.23464   0.90450   0.00000  Uiso   1.00
H608   H     0.67061   0.26682   0.98693   0.00000  Uiso   1.00
H609   H     0.68142   0.10403   0.50185   0.00000  Uiso   1.00
H610   H     0.83805   0.24859   0.58126   0.00000  Uiso   1.00
N611   N     0.81362   0.15216   0.73740   0.00000  Uiso   1.00
N612   N     0.85305   0.18117   0.76261   0.00000  Uiso   1.00
O613   O     0.96386   0.24631   0.75310   0.00000  Uiso   1.00
O614   O     0.83379   0.21780   0.79314   0.00000  Uiso   1.00
O615   O     0.70281   0.08702   0.74691   0.00000  Uiso   1.00
O616   O     0.72488   0.23702   0.74502   0.00000  Uiso   1.00
O617   O     0.94178   0.09632   0.75499   0.00000  Uiso   1.00
O618   O     0.96995   0.17397   0.82247   0.00000  Uiso   1.00
O619   O     0.69672   0.15937   0.67753   0.00000  Uiso   1.00
O620   O     0.73098   0.16467   0.81439   0.00000  Uiso   1.00
O621   O     0.93569   0.16866   0.68561   0.00000  Uiso   1.00
O622   O     0.83288   0.11542   0.70698   0.00000  Uiso   1.00
Zn623  Zn    0.93700   0.17287   0.75540   0.00000  Uiso   1.00
Zn624  Zn    0.72967   0.16046   0.74461   0.00000  Uiso   1.00
C625   C     0.01497   0.59818   0.74885   0.00000  Uiso   1.00
C626   C     0.31238   0.49639   0.65892   0.00000  Uiso   1.00
C627   C     0.03332   0.51566   0.89306   0.00000  Uiso   1.00
C628   C     0.30265   0.49413   0.60619   0.00000  Uiso   1.00
C629   C     0.02661   0.57175   0.96619   0.00000  Uiso   1.00
C630   C     0.32174   0.45952   0.52547   0.00000  Uiso   1.00
C631   C     0.00454   0.55267   0.91989   0.00000  Uiso   1.00
C632   C     0.00462   0.46800   0.57496   0.00000  Uiso   1.00
C633   C     0.08230   0.49662   0.91293   0.00000  Uiso   1.00
C634   C     0.25424   0.51548   0.58753   0.00000  Uiso   1.00
C635   C     0.10879   0.51964   0.95634   0.00000  Uiso   1.00
C636   C     0.31837   0.40183   0.75118   0.00000  Uiso   1.00
C637   C     0.23723   0.50792   0.53808   0.00000  Uiso   1.00
C638   C     0.07913   0.55616   0.98426   0.00000  Uiso   1.00
C639   C     0.27049   0.47747   0.50725   0.00000  Uiso   1.00
C640   C     0.16406   0.50752   0.97222   0.00000  Uiso   1.00
C641   C     0.18567   0.52626   0.51960   0.00000  Uiso   1.00
C642   C     0.15504   0.56257   0.54686   0.00000  Uiso   1.00
C643   C     0.19906   0.47863   0.94171   0.00000  Uiso   1.00
C644   C     0.10284   0.57747   0.52916   0.00000  Uiso   1.00
C645   C     0.25157   0.46430   0.95900   0.00000  Uiso   1.00
C646   C     0.02278   0.65272   0.74815   0.00000  Uiso   1.00
C647   C     0.31057   0.34728   0.75194   0.00000  Uiso   1.00
C648   C     0.02116   0.50461   0.84103   0.00000  Uiso   1.00
H649   H     0.08099   0.60583   0.55075   0.00000  Uiso   1.00
H650   H     0.18783   0.46778   0.90369   0.00000  Uiso   1.00
H651   H     0.06574   0.33639   0.74449   0.00000  Uiso   1.00
H652   H     0.26761   0.66361   0.75560   0.00000  Uiso   1.00
H653   H     0.13145   0.43010   0.69070   0.00000  Uiso   1.00
H654   H     0.20188   0.56969   0.80952   0.00000  Uiso   1.00
H655   H     0.27693   0.44182   0.93473   0.00000  Uiso   1.00
H656   H     0.22822   0.53483   0.61310   0.00000  Uiso   1.00
H657   H     0.10029   0.46519   0.89238   0.00000  Uiso   1.00
H658   H     0.04288   0.45188   0.58911   0.00000  Uiso   1.00
H659   H     0.29973   0.56797   0.90450   0.00000  Uiso   1.00
H660   H     0.00394   0.60015   0.98693   0.00000  Uiso   1.00
H661   H     0.01476   0.43737   0.50185   0.00000  Uiso   1.00
H662   H     0.17138   0.58193   0.58126   0.00000  Uiso   1.00
N663   N     0.14695   0.48550   0.73740   0.00000  Uiso   1.00
N664   N     0.18638   0.51450   0.76261   0.00000  Uiso   1.00
O665   O     0.29719   0.57964   0.75310   0.00000  Uiso   1.00
O666   O     0.16712   0.55114   0.79314   0.00000  Uiso   1.00
O667   O     0.03614   0.42036   0.74691   0.00000  Uiso   1.00
O668   O     0.05822   0.57035   0.74502   0.00000  Uiso   1.00
O669   O     0.27512   0.42965   0.75499   0.00000  Uiso   1.00
O670   O     0.30328   0.50730   0.82247   0.00000  Uiso   1.00
O671   O     0.03005   0.49270   0.67753   0.00000  Uiso   1.00
O672   O     0.06431   0.49801   0.81439   0.00000  Uiso   1.00
O673   O     0.26902   0.50199   0.68561   0.00000  Uiso   1.00
O674   O     0.16621   0.44875   0.70698   0.00000  Uiso   1.00
Zn675  Zn    0.27033   0.50621   0.75540   0.00000  Uiso   1.00
Zn676  Zn    0.06300   0.49379   0.74461   0.00000  Uiso   1.00
C677   C     0.34831   0.59818   0.74885   0.00000  Uiso   1.00
C678   C     0.64572   0.49639   0.65892   0.00000  Uiso   1.00
C679   C     0.36665   0.51566   0.89306   0.00000  Uiso   1.00
C680   C     0.63598   0.49413   0.60619   0.00000  Uiso   1.00
C681   C     0.35995   0.57175   0.96619   0.00000  Uiso   1.00
C682   C     0.65507   0.45952   0.52547   0.00000  Uiso   1.00
C683   C     0.33787   0.55267   0.91989   0.00000  Uiso   1.00
C684   C     0.33795   0.46800   0.57496   0.00000  Uiso   1.00
C685   C     0.41564   0.49662   0.91293   0.00000  Uiso   1.00
C686   C     0.58757   0.51548   0.58753   0.00000  Uiso   1.00
C687   C     0.44212   0.51964   0.95634   0.00000  Uiso   1.00
C688   C     0.65170   0.40183   0.75118   0.00000  Uiso   1.00
C689   C     0.57057   0.50792   0.53808   0.00000  Uiso   1.00
C690   C     0.41246   0.55616   0.98426   0.00000  Uiso   1.00
C691   C     0.60383   0.47747   0.50725   0.00000  Uiso   1.00
C692   C     0.49740   0.50752   0.97222   0.00000  Uiso   1.00
C693   C     0.51900   0.52626   0.51960   0.00000  Uiso   1.00
C694   C     0.48837   0.56257   0.54686   0.00000  Uiso   1.00
C695   C     0.53239   0.47863   0.94171   0.00000  Uiso   1.00
C696   C     0.43618   0.57747   0.52916   0.00000  Uiso   1.00
C697   C     0.58490   0.46430   0.95900   0.00000  Uiso   1.00
C698   C     0.35611   0.65272   0.74815   0.00000  Uiso   1.00
C699   C     0.64390   0.34728   0.75194   0.00000  Uiso   1.00
C700   C     0.35450   0.50461   0.84103   0.00000  Uiso   1.00
H701   H     0.41433   0.60583   0.55075   0.00000  Uiso   1.00
H702   H     0.52116   0.46778   0.90369   0.00000  Uiso   1.00
H703   H     0.39907   0.33639   0.74449   0.00000  Uiso   1.00
H704   H     0.60094   0.66361   0.75560   0.00000  Uiso   1.00
H705   H     0.46478   0.43010   0.69070   0.00000  Uiso   1.00
H706   H     0.53522   0.56969   0.80952   0.00000  Uiso   1.00
H707   H     0.61027   0.44182   0.93473   0.00000  Uiso   1.00
H708   H     0.56155   0.53483   0.61310   0.00000  Uiso   1.00
H709   H     0.43363   0.46519   0.89238   0.00000  Uiso   1.00
H710   H     0.37621   0.45188   0.58911   0.00000  Uiso   1.00
H711   H     0.63306   0.56797   0.90450   0.00000  Uiso   1.00
H712   H     0.33728   0.60015   0.98693   0.00000  Uiso   1.00
H713   H     0.34809   0.43737   0.50185   0.00000  Uiso   1.00
H714   H     0.50471   0.58193   0.58126   0.00000  Uiso   1.00
N715   N     0.48029   0.48550   0.73740   0.00000  Uiso   1.00
N716   N     0.51971   0.51450   0.76261   0.00000  Uiso   1.00
O717   O     0.63052   0.57964   0.75310   0.00000  Uiso   1.00
O718   O     0.50046   0.55114   0.79314   0.00000  Uiso   1.00
O719   O     0.36948   0.42036   0.74691   0.00000  Uiso   1.00
O720   O     0.39155   0.57035   0.74502   0.00000  Uiso   1.00
O721   O     0.60845   0.42965   0.75499   0.00000  Uiso   1.00
O722   O     0.63662   0.50730   0.82247   0.00000  Uiso   1.00
O723   O     0.36338   0.49270   0.67753   0.00000  Uiso   1.00
O724   O     0.39764   0.49801   0.81439   0.00000  Uiso   1.00
O725   O     0.60236   0.50199   0.68561   0.00000  Uiso   1.00
O726   O     0.49954   0.44875   0.70698   0.00000  Uiso   1.00
Zn727  Zn    0.60366   0.50621   0.75540   0.00000  Uiso   1.00
Zn728  Zn    0.39634   0.49379   0.74461   0.00000  Uiso   1.00
C729   C     0.68164   0.59818   0.74885   0.00000  Uiso   1.00
C730   C     0.97905   0.49639   0.65892   0.00000  Uiso   1.00
C731   C     0.69999   0.51566   0.89306   0.00000  Uiso   1.00
C732   C     0.96931   0.49413   0.60619   0.00000  Uiso   1.00
C733   C     0.69328   0.57175   0.96619   0.00000  Uiso   1.00
C734   C     0.98841   0.45952   0.52547   0.00000  Uiso   1.00
C735   C     0.67120   0.55267   0.91989   0.00000  Uiso   1.00
C736   C     0.67129   0.46800   0.57496   0.00000  Uiso   1.00
C737   C     0.74897   0.49662   0.91293   0.00000  Uiso   1.00
C738   C     0.92090   0.51548   0.58753   0.00000  Uiso   1.00
C739   C     0.77546   0.51964   0.95634   0.00000  Uiso   1.00
C740   C     0.98503   0.40183   0.75118   0.00000  Uiso   1.00
C741   C     0.90390   0.50792   0.53808   0.00000  Uiso   1.00
C742   C     0.74579   0.55616   0.98426   0.00000  Uiso   1.00
C743   C     0.93716   0.47747   0.50725   0.00000  Uiso   1.00
C744   C     0.83073   0.50752   0.97222   0.00000  Uiso   1.00
C745   C     0.85234   0.52626   0.51960   0.00000  Uiso   1.00
C746   C     0.82170   0.56257   0.54686   0.00000  Uiso   1.00
C747   C     0.86572   0.47863   0.94171   0.00000  Uiso   1.00
C748   C     0.76951   0.57747   0.52916   0.00000  Uiso   1.00
C749   C     0.91824   0.46430   0.95900   0.00000  Uiso   1.00
C750   C     0.68945   0.65272   0.74815   0.00000  Uiso   1.00
C751   C     0.97724   0.34728   0.75194   0.00000  Uiso   1.00
C752   C     0.68783   0.50461   0.84103   0.00000  Uiso   1.00
H753   H     0.74766   0.60583   0.55075   0.00000  Uiso   1.00
H754   H     0.85450   0.46778   0.90369   0.00000  Uiso   1.00
H755   H     0.73240   0.33639   0.74449   0.00000  Uiso   1.00
H756   H     0.93428   0.66361   0.75560   0.00000  Uiso   1.00
H757   H     0.79812   0.43010   0.69070   0.00000  Uiso   1.00
H758   H     0.86855   0.56969   0.80952   0.00000  Uiso   1.00
H759   H     0.94360   0.44182   0.93473   0.00000  Uiso   1.00
H760   H     0.89488   0.53483   0.61310   0.00000  Uiso   1.00
H761   H     0.76696   0.46519   0.89238   0.00000  Uiso   1.00
H762   H     0.70955   0.45188   0.58911   0.00000  Uiso   1.00
H763   H     0.96640   0.56797   0.90450   0.00000  Uiso   1.00
H764   H     0.67061   0.60015   0.98693   0.00000  Uiso   1.00
H765   H     0.68142   0.43737   0.50185   0.00000  Uiso   1.00
H766   H     0.83805   0.58193   0.58126   0.00000  Uiso   1.00
N767   N     0.81362   0.48550   0.73740   0.00000  Uiso   1.00
N768   N     0.85305   0.51450   0.76261   0.00000  Uiso   1.00
O769   O     0.96386   0.57964   0.75310   0.00000  Uiso   1.00
O770   O     0.83379   0.55114   0.79314   0.00000  Uiso   1.00
O771   O     0.70281   0.42036   0.74691   0.00000  Uiso   1.00
O772   O     0.72488   0.57035   0.74502   0.00000  Uiso   1.00
O773   O     0.94178   0.42965   0.75499   0.00000  Uiso   1.00
O774   O     0.96995   0.50730   0.82247   0.00000  Uiso   1.00
O775   O     0.69672   0.49270   0.67753   0.00000  Uiso   1.00
O776   O     0.73098   0.49801   0.81439   0.00000  Uiso   1.00
O777   O     0.93569   0.50199   0.68561   0.00000  Uiso   1.00
O778   O     0.83288   0.44875   0.70698   0.00000  Uiso   1.00
Zn779  Zn    0.93700   0.50621   0.75540   0.00000  Uiso   1.00
Zn780  Zn    0.72967   0.49379   0.74461   0.00000  Uiso   1.00
C781   C     0.01497   0.93151   0.74885   0.00000  Uiso   1.00
C782   C     0.31238   0.82972   0.65892   0.00000  Uiso   1.00
C783   C     0.03332   0.84899   0.89306   0.00000  Uiso   1.00
C784   C     0.30265   0.82747   0.60619   0.00000  Uiso   1.00
C785   C     0.02661   0.90509   0.96619   0.00000  Uiso   1.00
C786   C     0.32174   0.79285   0.52547   0.00000  Uiso   1.00
C787   C     0.00454   0.88601   0.91989   0.00000  Uiso   1.00
C788   C     0.00462   0.80134   0.57496   0.00000  Uiso   1.00
C789   C     0.08230   0.82995   0.91293   0.00000  Uiso   1.00
C790   C     0.25424   0.84881   0.58753   0.00000  Uiso   1.00
C791   C     0.10879   0.85297   0.95634   0.00000  Uiso   1.00
C792   C     0.31837   0.73516   0.75118   0.00000  Uiso   1.00
C793   C     0.23723   0.84125   0.53808   0.00000  Uiso   1.00
C794   C     0.07913   0.88950   0.98426   0.00000  Uiso   1.00
C795   C     0.27049   0.81081   0.50725   0.00000  Uiso   1.00
C796   C     0.16406   0.84085   0.97222   0.00000  Uiso   1.00
C797   C     0.18567   0.85959   0.51960   0.00000  Uiso   1.00
C798   C     0.15504   0.89591   0.54686   0.00000  Uiso   1.00
C799   C     0.19906   0.81197   0.94171   0.00000  Uiso   1.00
C800   C     0.10284   0.91080   0.52916   0.00000  Uiso   1.00
C801   C     0.25157   0.79763   0.95900   0.00000  Uiso   1.00
C802   C     0.02278   0.98605   0.74815   0.00000  Uiso   1.00
C803   C     0.31057   0.68062   0.75194   0.00000  Uiso   1.00
C804   C     0.02116   0.83794   0.84103   0.00000  Uiso   1.00
H805   H     0.08099   0.93916   0.55075   0.00000  Uiso   1.00
H806   H     0.18783   0.80111   0.90369   0.00000  Uiso   1.00
H807   H     0.06574   0.66972   0.74449   0.00000  Uiso   1.00
H808   H     0.26761   0.99695   0.75560   0.00000  Uiso   1.00
H809   H     0.13145   0.76343   0.69070   0.00000  Uiso   1.00
H810   H     0.20188   0.90303   0.80952   0.00000  Uiso   1.00
H811   H     0.27693   0.77515   0.93473   0.00000  Uiso   1.00
H812   H     0.22822   0.86816   0.61310   0.00000  Uiso   1.00
H813   H     0.10029   0.79852   0.89238   0.00000  Uiso   1.00
H814   H     0.04288   0.78521   0.58911   0.00000  Uiso   1.00
H815   H     0.29973   0.90131   0.90450   0.00000  Uiso   1.00
H816   H     0.00394   0.93349   0.98693   0.00000  Uiso   1.00
H817   H     0.01476   0.77070   0.50185   0.00000  Uiso   1.00
H818   H     0.17138   0.91526   0.58126   0.00000  Uiso   1.00
N819   N     0.14695   0.81883   0.73740   0.00000  Uiso   1.00
N820   N     0.18638   0.84784   0.76261   0.00000  Uiso   1.00
O821   O     0.29719   0.91298   0.75310   0.00000  Uiso   1.00
O822   O     0.16712   0.88447   0.79314   0.00000  Uiso   1.00
O823   O     0.03614   0.75369   0.74691   0.00000  Uiso   1.00
O824   O     0.05822   0.90368   0.74502   0.00000  Uiso   1.00
O825   O     0.27512   0.76298   0.75499   0.00000  Uiso   1.00
O826   O     0.30328   0.84063   0.82247   0.00000  Uiso   1.00
O827   O     0.03005   0.82603   0.67753   0.00000  Uiso   1.00
O828   O     0.06431   0.83134   0.81439   0.00000  Uiso   1.00
O829   O     0.26902   0.83533   0.68561   0.00000  Uiso   1.00
O830   O     0.16621   0.78209   0.70698   0.00000  Uiso   1.00
Zn831  Zn    0.27033   0.83954   0.75540   0.00000  Uiso   1.00
Zn832  Zn    0.06300   0.82713   0.74461   0.00000  Uiso   1.00
C833   C     0.34831   0.93151   0.74885   0.00000  Uiso   1.00
C834   C     0.64572   0.82972   0.65892   0.00000  Uiso   1.00
C835   C     0.36665   0.84899   0.89306   0.00000  Uiso   1.00
C836   C     0.63598   0.82747   0.60619   0.00000  Uiso   1.00
C837   C     0.35995   0.90509   0.96619   0.00000  Uiso   1.00
C838   C     0.65507   0.79285   0.52547   0.00000  Uiso   1.00
C839   C     0.33787   0.88601   0.91989   0.00000  Uiso   1.00
C840   C     0.33795   0.80134   0.57496   0.00000  Uiso   1.00
C841   C     0.41564   0.82995   0.91293   0.00000  Uiso   1.00
C842   C     0.58757   0.84881   0.58753   0.00000  Uiso   1.00
C843   C     0.44212   0.85297   0.95634   0.00000  Uiso   1.00
C844   C     0.65170   0.73516   0.75118   0.00000  Uiso   1.00
C845   C     0.57057   0.84125   0.53808   0.00000  Uiso   1.00
C846   C     0.41246   0.88950   0.98426   0.00000  Uiso   1.00
C847   C     0.60383   0.81081   0.50725   0.00000  Uiso   1.00
C848   C     0.49740   0.84085   0.97222   0.00000  Uiso   1.00
C849   C     0.51900   0.85959   0.51960   0.00000  Uiso   1.00
C850   C     0.48837   0.89591   0.54686   0.00000  Uiso   1.00
C851   C     0.53239   0.81197   0.94171   0.00000  Uiso   1.00
C852   C     0.43618   0.91080   0.52916   0.00000  Uiso   1.00
C853   C     0.58490   0.79763   0.95900   0.00000  Uiso   1.00
C854   C     0.35611   0.98605   0.74815   0.00000  Uiso   1.00
C855   C     0.64390   0.68062   0.75194   0.00000  Uiso   1.00
C856   C     0.35450   0.83794   0.84103   0.00000  Uiso   1.00
H857   H     0.41433   0.93916   0.55075   0.00000  Uiso   1.00
H858   H     0.52116   0.80111   0.90369   0.00000  Uiso   1.00
H859   H     0.39907   0.66972   0.74449   0.00000  Uiso   1.00
H860   H     0.60094   0.99695   0.75560   0.00000  Uiso   1.00
H861   H     0.46478   0.76343   0.69070   0.00000  Uiso   1.00
H862   H     0.53522   0.90303   0.80952   0.00000  Uiso   1.00
H863   H     0.61027   0.77515   0.93473   0.00000  Uiso   1.00
H864   H     0.56155   0.86816   0.61310   0.00000  Uiso   1.00
H865   H     0.43363   0.79852   0.89238   0.00000  Uiso   1.00
H866   H     0.37621   0.78521   0.58911   0.00000  Uiso   1.00
H867   H     0.63306   0.90131   0.90450   0.00000  Uiso   1.00
H868   H     0.33728   0.93349   0.98693   0.00000  Uiso   1.00
H869   H     0.34809   0.77070   0.50185   0.00000  Uiso   1.00
H870   H     0.50471   0.91526   0.58126   0.00000  Uiso   1.00
N871   N     0.48029   0.81883   0.73740   0.00000  Uiso   1.00
N872   N     0.51971   0.84784   0.76261   0.00000  Uiso   1.00
O873   O     0.63052   0.91298   0.75310   0.00000  Uiso   1.00
O874   O     0.50046   0.88447   0.79314   0.00000  Uiso   1.00
O875   O     0.36948   0.75369   0.74691   0.00000  Uiso   1.00
O876   O     0.39155   0.90368   0.74502   0.00000  Uiso   1.00
O877   O     0.60845   0.76298   0.75499   0.00000  Uiso   1.00
O878   O     0.63662   0.84063   0.82247   0.00000  Uiso   1.00
O879   O     0.36338   0.82603   0.67753   0.00000  Uiso   1.00
O880   O     0.39764   0.83134   0.81439   0.00000  Uiso   1.00
O881   O     0.60236   0.83533   0.68561   0.00000  Uiso   1.00
O882   O     0.49954   0.78209   0.70698   0.00000  Uiso   1.00
Zn883  Zn    0.60366   0.83954   0.75540   0.00000  Uiso   1.00
Zn884  Zn    0.39634   0.82713   0.74461   0.00000  Uiso   1.00
C885   C     0.68164   0.93151   0.74885   0.00000  Uiso   1.00
C886   C     0.97905   0.82972   0.65892   0.00000  Uiso   1.00
C887   C     0.69999   0.84899   0.89306   0.00000  Uiso   1.00
C888   C     0.96931   0.82747   0.60619   0.00000  Uiso   1.00
C889   C     0.69328   0.90509   0.96619   0.00000  Uiso   1.00
C890   C     0.98841   0.79285   0.52547   0.00000  Uiso   1.00
C891   C     0.67120   0.88601   0.91989   0.00000  Uiso   1.00
C892   C     0.67129   0.80134   0.57496   0.00000  Uiso   1.00
C893   C     0.74897   0.82995   0.91293   0.00000  Uiso   1.00
C894   C     0.92090   0.84881   0.58753   0.00000  Uiso   1.00
C895   C     0.77546   0.85297   0.95634   0.00000  Uiso   1.00
C896   C     0.98503   0.73516   0.75118   0.00000  Uiso   1.00
C897   C     0.90390   0.84125   0.53808   0.00000  Uiso   1.00
C898   C     0.74579   0.88950   0.98426   0.00000  Uiso   1.00
C899   C     0.93716   0.81081   0.50725   0.00000  Uiso   1.00
C900   C     0.83073   0.84085   0.97222   0.00000  Uiso   1.00
C901   C     0.85234   0.85959   0.51960   0.00000  Uiso   1.00
C902   C     0.82170   0.89591   0.54686   0.00000  Uiso   1.00
C903   C     0.86572   0.81197   0.94171   0.00000  Uiso   1.00
C904   C     0.76951   0.91080   0.52916   0.00000  Uiso   1.00
C905   C     0.91824   0.79763   0.95900   0.00000  Uiso   1.00
C906   C     0.68945   0.98605   0.74815   0.00000  Uiso   1.00
C907   C     0.97724   0.68062   0.75194   0.00000  Uiso   1.00
C908   C     0.68783   0.83794   0.84103   0.00000  Uiso   1.00
H909   H     0.74766   0.93916   0.55075   0.00000  Uiso   1.00
H910   H     0.85450   0.80111   0.90369   0.00000  Uiso   1.00
H911   H     0.73240   0.66972   0.74449   0.00000  Uiso   1.00
H912   H     0.93428   0.99695   0.75560   0.00000  Uiso   1.00
H913   H     0.79812   0.76343   0.69070   0.00000  Uiso   1.00
H914   H     0.86855   0.90303   0.80952   0.00000  Uiso   1.00
H915   H     0.94360   0.77515   0.93473   0.00000  Uiso   1.00
H916   H     0.89488   0.86816   0.61310   0.00000  Uiso   1.00
H917   H     0.76696   0.79852   0.89238   0.00000  Uiso   1.00
H918   H     0.70955   0.78521   0.58911   0.00000  Uiso   1.00
H919   H     0.96640   0.90131   0.90450   0.00000  Uiso   1.00
H920   H     0.67061   0.93349   0.98693   0.00000  Uiso   1.00
H921   H     0.68142   0.77070   0.50185   0.00000  Uiso   1.00
H922   H     0.83805   0.91526   0.58126   0.00000  Uiso   1.00
N923   N     0.81362   0.81883   0.73740   0.00000  Uiso   1.00
N924   N     0.85305   0.84784   0.76261   0.00000  Uiso   1.00
O925   O     0.96386   0.91298   0.75310   0.00000  Uiso   1.00
O926   O     0.83379   0.88447   0.79314   0.00000  Uiso   1.00
O927   O     0.70281   0.75369   0.74691   0.00000  Uiso   1.00
O928   O     0.72488   0.90368   0.74502   0.00000  Uiso   1.00
O929   O     0.94178   0.76298   0.75499   0.00000  Uiso   1.00
O930   O     0.96995   0.84063   0.82247   0.00000  Uiso   1.00
O931   O     0.69672   0.82603   0.67753   0.00000  Uiso   1.00
O932   O     0.73098   0.83134   0.81439   0.00000  Uiso   1.00
O933   O     0.93569   0.83533   0.68561   0.00000  Uiso   1.00
O934   O     0.83288   0.78209   0.70698   0.00000  Uiso   1.00
Zn935  Zn    0.93700   0.83954   0.75540   0.00000  Uiso   1.00
Zn936  Zn    0.72967   0.82713   0.74461   0.00000  Uiso   1.00
loop_
_geom_bond_atom_site_label_1
_geom_bond_atom_site_label_2
_geom_bond_distance
_geom_bond_site_symmetry_2
_ccdc_geom_bond_type
C1     O44     1.290   .     A
C1     C22     1.402   .     S
C1     O145    1.280   1_455 S
C2     C4      1.452   .     S
C2     O49     1.301   .     A
C2     O99     1.294   .     S
C3     C9      1.385   .     A
C3     C24     1.449   .     S
C3     C7      1.399   .     A
C4     C10     1.389   .     A
C4     C60     1.399   .     S
C5     C14     1.404   .     A
C5     H36     1.084   .     S
C5     C7      1.394   .     A
C6     C15     1.403   .     A
C6     C60     1.392   .     S
C6     H89     1.084   .     S
C7     H139    1.083   1_455 S
C8     H34     1.083   .     S
C8     C108    1.399   1_455 S
C8     C110    1.392   1_455 S
C9     C11     1.393   .     A
C9     H33     1.079   .     S
C10    H32     1.077   .     S
C10    C13     1.393   .     A
C11    C16     1.415   .     A
C11    C14     1.418   .     A
C12    C23     1.402   .     S
C12    O45     1.290   .     A
C12    O95     1.280   .     S
C13    C17     1.416   .     A
C13    C15     1.419   .     A
C14    C488    1.389   .     S
C15    C489    1.389   1_554 S
C16    C19     1.418   .     A
C16    C485    1.414   .     S
C17    C18     1.419   .     A
C17    C484    1.414   1_554 S
C18    C20     1.388   .     A
C18    H38     1.078   .     S
C19    C21     1.386   .     A
C19    H26     1.078   .     S
C20    H25     1.084   .     S
C20    C482    1.389   1_554 S
C21    H31     1.084   .     S
C21    C483    1.389   .     S
C22    C283    1.337   1_455 S
C22    H183    1.088   .     S
C23    C386    1.337   1_545 S
C23    H340    1.088   1_545 S
C24    O48     1.299   .     A
C24    O150    1.294   1_455 S
H27    C334    1.088   1_545 S
H28    C179    1.088   .     S
H29    O50     0.990   .     S
H30    O42     0.990   .     S
H35    C59     1.083   .     S
H37    C110    1.084   1_455 S
N39    Zn52    2.026   .     S
N39    O50     1.338   .     S
N39    N40     1.291   .     D
N40    Zn51    2.026   .     S
N40    O42     1.338   .     S
O41    Zn51    1.953   .     S
O41    C53     1.280   .     S
O43    Zn52    1.953   .     S
O43    C116    1.280   1_455 S
O44    Zn52    1.976   .     S
O45    Zn51    1.976   .     S
O46    Zn51    1.960   .     S
O46    C76     1.294   .     S
O47    Zn52    1.960   .     S
O47    C106    1.294   1_455 S
O48    Zn52    1.912   .     S
O49    Zn51    1.912   .     S
C53    O96     1.290   .     A
C53    C74     1.402   .     S
C54    C56     1.452   .     S
C54    O101    1.301   .     A
C54    O151    1.294   .     S
C55    C61     1.385   .     A
C55    C76     1.449   .     S
C55    C59     1.399   .     A
C56    C62     1.389   .     A
C56    C112    1.399   .     S
C57    C66     1.404   .     A
C57    H88     1.084   .     S
C57    C59     1.394   .     A
C58    C67     1.403   .     A
C58    C112    1.392   .     S
C58    H141    1.084   .     S
C60    H86     1.083   .     S
C61    C63     1.393   .     A
C61    H85     1.079   .     S
C62    H84     1.077   .     S
C62    C65     1.393   .     A
C63    C68     1.415   .     A
C63    C66     1.418   .     A
C64    C75     1.402   .     S
C64    O97     1.290   .     A
C64    O147    1.280   .     S
C65    C69     1.416   .     A
C65    C67     1.419   .     A
C66    C540    1.389   .     S
C67    C541    1.389   1_554 S
C68    C71     1.418   .     A
C68    C537    1.414   .     S
C69    C70     1.419   .     A
C69    C536    1.414   1_554 S
C70    C72     1.388   .     A
C70    H90     1.078   .     S
C71    C73     1.386   .     A
C71    H78     1.078   .     S
C72    H77     1.084   .     S
C72    C534    1.389   1_554 S
C73    H83     1.084   .     S
C73    C535    1.389   .     S
C74    C179    1.337   .     S
C74    H235    1.088   .     S
C75    C438    1.337   1_545 S
C75    H392    1.088   1_545 S
C76    O100    1.299   .     A
H79    C386    1.088   1_545 S
H80    C231    1.088   .     S
H81    O102    0.990   .     S
H82    O94     0.990   .     S
H87    C111    1.083   .     S
N91    Zn104   2.026   .     S
N91    O102    1.338   .     S
N91    N92     1.291   .     D
N92    Zn103   2.026   .     S
N92    O94     1.338   .     S
O93    Zn103   1.953   .     S
O93    C105    1.280   .     S
O95    Zn104   1.953   .     S
O96    Zn104   1.976   .     S
O97    Zn103   1.976   .     S
O98    Zn103   1.960   .     S
O98    C128    1.294   .     S
O99    Zn104   1.960   .     S
O100   Zn104   1.912   .     S
O101   Zn103   1.912   .     S
C105   O148    1.290   .     A
C105   C126    1.402   .     S
C106   C108    1.452   .     S
C106   O153    1.301   .     A
C106   O47     1.294   1_655 S
C107   C113    1.385   .     A
C107   C128    1.449   .     S
C107   C111    1.399   .     A
C108   C114    1.389   .     A
C108   C8      1.399   1_655 S
C109   C118    1.404   .     A
C109   H140    1.084   .     S
C109   C111    1.394   .     A
C110   C119    1.403   .     A
C110   C8      1.392   1_655 S
C110   H37     1.084   1_655 S
C112   H138    1.083   .     S
C113   C115    1.393   .     A
C113   H137    1.079   .     S
C114   H136    1.077   .     S
C114   C117    1.393   .     A
C115   C120    1.415   .     A
C115   C118    1.418   .     A
C116   C127    1.402   .     S
C116   O149    1.290   .     A
C116   O43     1.280   1_655 S
C117   C121    1.416   .     A
C117   C119    1.419   .     A
C118   C592    1.389   .     S
C119   C593    1.389   1_554 S
C120   C123    1.418   .     A
C120   C589    1.414   .     S
C121   C122    1.419   .     A
C121   C588    1.414   1_554 S
C122   C124    1.388   .     A
C122   H142    1.078   .     S
C123   C125    1.386   .     A
C123   H130    1.078   .     S
C124   H129    1.084   .     S
C124   C586    1.389   1_554 S
C125   H135    1.084   .     S
C125   C587    1.389   .     S
C126   C231    1.337   .     S
C126   H287    1.088   .     S
C127   C334    1.337   1_645 S
C127   H444    1.088   1_545 S
C128   O152    1.299   .     A
H131   C438    1.088   1_545 S
H132   C283    1.088   .     S
H133   O154    0.990   .     S
H134   O146    0.990   .     S
H139   C7      1.083   1_655 S
N143   Zn156   2.026   .     S
N143   O154    1.338   .     S
N143   N144    1.291   .     D
N144   Zn155   2.026   .     S
N144   O146    1.338   .     S
O145   Zn155   1.953   .     S
O145   C1      1.280   1_655 S
O147   Zn156   1.953   .     S
O148   Zn156   1.976   .     S
O149   Zn155   1.976   .     S
O150   Zn155   1.960   .     S
O150   C24     1.294   1_655 S
O151   Zn156   1.960   .     S
O152   Zn156   1.912   .     S
O153   Zn155   1.912   .     S
C157   O200    1.290   .     A
C157   C178    1.402   .     S
C157   O301    1.280   1_455 S
C158   C160    1.452   .     S
C158   O205    1.301   .     A
C158   O255    1.294   .     S
C159   C165    1.385   .     A
C159   C180    1.449   .     S
C159   C163    1.399   .     A
C160   C166    1.389   .     A
C160   C216    1.399   .     S
C161   C170    1.404   .     A
C161   H192    1.084   .     S
C161   C163    1.394   .     A
C162   C171    1.403   .     A
C162   C216    1.392   .     S
C162   H245    1.084   .     S
C163   H295    1.083   1_455 S
C164   H190    1.083   .     S
C164   C264    1.399   1_455 S
C164   C266    1.392   1_455 S
C165   C167    1.393   .     A
C165   H189    1.079   .     S
C166   H188    1.077   .     S
C166   C169    1.393   .     A
C167   C172    1.415   .     A
C167   C170    1.418   .     A
C168   C179    1.402   .     S
C168   O201    1.290   .     A
C168   O251    1.280   .     S
C169   C173    1.416   .     A
C169   C171    1.419   .     A
C170   C644    1.389   .     S
C171   C645    1.389   1_554 S
C172   C175    1.418   .     A
C172   C641    1.414   .     S
C173   C174    1.419   .     A
C173   C640    1.414   1_554 S
C174   C176    1.388   .     A
C174   H194    1.078   .     S
C175   C177    1.386   .     A
C175   H182    1.078   .     S
C176   H181    1.084   .     S
C176   C638    1.389   1_554 S
C177   H187    1.084   .     S
C177   C639    1.389   .     S
C178   C439    1.337   1_455 S
C178   H339    1.088   .     S
C180   O204    1.299   .     A
C180   O306    1.294   1_455 S
H184   C335    1.088   .     S
H185   O206    0.990   .     S
H186   O198    0.990   .     S
H191   C215    1.083   .     S
H193   C266    1.084   1_455 S
N195   Zn208   2.026   .     S
N195   O206    1.338   .     S
N195   N196    1.291   .     D
N196   Zn207   2.026   .     S
N196   O198    1.338   .     S
O197   Zn207   1.953   .     S
O197   C209    1.280   .     S
O199   Zn208   1.953   .     S
O199   C272    1.280   1_455 S
O200   Zn208   1.976   .     S
O201   Zn207   1.976   .     S
O202   Zn207   1.960   .     S
O202   C232    1.294   .     S
O203   Zn208   1.960   .     S
O203   C262    1.294   1_455 S
O204   Zn208   1.912   .     S
O205   Zn207   1.912   .     S
C209   O252    1.290   .     A
C209   C230    1.402   .     S
C210   C212    1.452   .     S
C210   O257    1.301   .     A
C210   O307    1.294   .     S
C211   C217    1.385   .     A
C211   C232    1.449   .     S
C211   C215    1.399   .     A
C212   C218    1.389   .     A
C212   C268    1.399   .     S
C213   C222    1.404   .     A
C213   H244    1.084   .     S
C213   C215    1.394   .     A
C214   C223    1.403   .     A
C214   C268    1.392   .     S
C214   H297    1.084   .     S
C216   H242    1.083   .     S
C217   C219    1.393   .     A
C217   H241    1.079   .     S
C218   H240    1.077   .     S
C218   C221    1.393   .     A
C219   C224    1.415   .     A
C219   C222    1.418   .     A
C220   C231    1.402   .     S
C220   O253    1.290   .     A
C220   O303    1.280   .     S
C221   C225    1.416   .     A
C221   C223    1.419   .     A
C222   C696    1.389   .     S
C223   C697    1.389   1_554 S
C224   C227    1.418   .     A
C224   C693    1.414   .     S
C225   C226    1.419   .     A
C225   C692    1.414   1_554 S
C226   C228    1.388   .     A
C226   H246    1.078   .     S
C227   C229    1.386   .     A
C227   H234    1.078   .     S
C228   H233    1.084   .     S
C228   C690    1.389   1_554 S
C229   H239    1.084   .     S
C229   C691    1.389   .     S
C230   C335    1.337   .     S
C230   H391    1.088   .     S
C232   O256    1.299   .     A
H236   C387    1.088   .     S
H237   O258    0.990   .     S
H238   O250    0.990   .     S
H243   C267    1.083   .     S
N247   Zn260   2.026   .     S
N247   O258    1.338   .     S
N247   N248    1.291   .     D
N248   Zn259   2.026   .     S
N248   O250    1.338   .     S
O249   Zn259   1.953   .     S
O249   C261    1.280   .     S
O251   Zn260   1.953   .     S
O252   Zn260   1.976   .     S
O253   Zn259   1.976   .     S
O254   Zn259   1.960   .     S
O254   C284    1.294   .     S
O255   Zn260   1.960   .     S
O256   Zn260   1.912   .     S
O257   Zn259   1.912   .     S
C261   O304    1.290   .     A
C261   C282    1.402   .     S
C262   C264    1.452   .     S
C262   O309    1.301   .     A
C262   O203    1.294   1_655 S
C263   C269    1.385   .     A
C263   C284    1.449   .     S
C263   C267    1.399   .     A
C264   C270    1.389   .     A
C264   C164    1.399   1_655 S
C265   C274    1.404   .     A
C265   H296    1.084   .     S
C265   C267    1.394   .     A
C266   C275    1.403   .     A
C266   C164    1.392   1_655 S
C266   H193    1.084   1_655 S
C268   H294    1.083   .     S
C269   C271    1.393   .     A
C269   H293    1.079   .     S
C270   H292    1.077   .     S
C270   C273    1.393   .     A
C271   C276    1.415   .     A
C271   C274    1.418   .     A
C272   C283    1.402   .     S
C272   O305    1.290   .     A
C272   O199    1.280   1_655 S
C273   C277    1.416   .     A
C273   C275    1.419   .     A
C274   C748    1.389   .     S
C275   C749    1.389   1_554 S
C276   C279    1.418   .     A
C276   C745    1.414   .     S
C277   C278    1.419   .     A
C277   C744    1.414   1_554 S
C278   C280    1.388   .     A
C278   H298    1.078   .     S
C279   C281    1.386   .     A
C279   H286    1.078   .     S
C280   H285    1.084   .     S
C280   C742    1.389   1_554 S
C281   H291    1.084   .     S
C281   C743    1.389   .     S
C282   C387    1.337   .     S
C282   H443    1.088   .     S
C283   C22     1.337   1_655 S
C284   O308    1.299   .     A
H288   C439    1.088   .     S
H289   O310    0.990   .     S
H290   O302    0.990   .     S
H295   C163    1.083   1_655 S
N299   Zn312   2.026   .     S
N299   O310    1.338   .     S
N299   N300    1.291   .     D
N300   Zn311   2.026   .     S
N300   O302    1.338   .     S
O301   Zn311   1.953   .     S
O301   C157    1.280   1_655 S
O303   Zn312   1.953   .     S
O304   Zn312   1.976   .     S
O305   Zn311   1.976   .     S
O306   Zn311   1.960   .     S
O306   C180    1.294   1_655 S
O307   Zn312   1.960   .     S
O308   Zn312   1.912   .     S
O309   Zn311   1.912   .     S
C313   O356    1.290   .     A
C313   C334    1.402   .     S
C313   O457    1.280   1_455 S
C314   C316    1.452   .     S
C314   O361    1.301   .     A
C314   O411    1.294   .     S
C315   C321    1.385   .     A
C315   C336    1.449   .     S
C315   C319    1.399   .     A
C316   C322    1.389   .     A
C316   C372    1.399   .     S
C317   C326    1.404   .     A
C317   H348    1.084   .     S
C317   C319    1.394   .     A
C318   C327    1.403   .     A
C318   C372    1.392   .     S
C318   H401    1.084   .     S
C319   H451    1.083   1_455 S
C320   H346    1.083   .     S
C320   C420    1.399   1_455 S
C320   C422    1.392   1_455 S
C321   C323    1.393   .     A
C321   H345    1.079   .     S
C322   H344    1.077   .     S
C322   C325    1.393   .     A
C323   C328    1.415   .     A
C323   C326    1.418   .     A
C324   C335    1.402   .     S
C324   O357    1.290   .     A
C324   O407    1.280   .     S
C325   C329    1.416   .     A
C325   C327    1.419   .     A
C326   C800    1.389   .     S
C327   C801    1.389   1_554 S
C328   C331    1.418   .     A
C328   C797    1.414   .     S
C329   C330    1.419   .     A
C329   C796    1.414   1_554 S
C330   C332    1.388   .     A
C330   H350    1.078   .     S
C331   C333    1.386   .     A
C331   H338    1.078   .     S
C332   H337    1.084   .     S
C332   C794    1.389   1_554 S
C333   H343    1.084   .     S
C333   C795    1.389   .     S
C334   C127    1.337   1_465 S
C334   H27     1.088   1_565 S
C336   O360    1.299   .     A
C336   O462    1.294   1_455 S
H340   C23     1.088   1_565 S
H341   O362    0.990   .     S
H342   O354    0.990   .     S
H347   C371    1.083   .     S
H349   C422    1.084   1_455 S
N351   Zn364   2.026   .     S
N351   O362    1.338   .     S
N351   N352    1.291   .     D
N352   Zn363   2.026   .     S
N352   O354    1.338   .     S
O353   Zn363   1.953   .     S
O353   C365    1.280   .     S
O355   Zn364   1.953   .     S
O355   C428    1.280   1_455 S
O356   Zn364   1.976   .     S
O357   Zn363   1.976   .     S
O358   Zn363   1.960   .     S
O358   C388    1.294   .     S
O359   Zn364   1.960   .     S
O359   C418    1.294   1_455 S
O360   Zn364   1.912   .     S
O361   Zn363   1.912   .     S
C365   O408    1.290   .     A
C365   C386    1.402   .     S
C366   C368    1.452   .     S
C366   O413    1.301   .     A
C366   O463    1.294   .     S
C367   C373    1.385   .     A
C367   C388    1.449   .     S
C367   C371    1.399   .     A
C368   C374    1.389   .     A
C368   C424    1.399   .     S
C369   C378    1.404   .     A
C369   H400    1.084   .     S
C369   C371    1.394   .     A
C370   C379    1.403   .     A
C370   C424    1.392   .     S
C370   H453    1.084   .     S
C372   H398    1.083   .     S
C373   C375    1.393   .     A
C373   H397    1.079   .     S
C374   H396    1.077   .     S
C374   C377    1.393   .     A
C375   C380    1.415   .     A
C375   C378    1.418   .     A
C376   C387    1.402   .     S
C376   O409    1.290   .     A
C376   O459    1.280   .     S
C377   C381    1.416   .     A
C377   C379    1.419   .     A
C378   C852    1.389   .     S
C379   C853    1.389   1_554 S
C380   C383    1.418   .     A
C380   C849    1.414   .     S
C381   C382    1.419   .     A
C381   C848    1.414   1_554 S
C382   C384    1.388   .     A
C382   H402    1.078   .     S
C383   C385    1.386   .     A
C383   H390    1.078   .     S
C384   H389    1.084   .     S
C384   C846    1.389   1_554 S
C385   H395    1.084   .     S
C385   C847    1.389   .     S
C386   C23     1.337   1_565 S
C386   H79     1.088   1_565 S
C388   O412    1.299   .     A
H392   C75     1.088   1_565 S
H393   O414    0.990   .     S
H394   O406    0.990   .     S
H399   C423    1.083   .     S
N403   Zn416   2.026   .     S
N403   O414    1.338   .     S
N403   N404    1.291   .     D
N404   Zn415   2.026   .     S
N404   O406    1.338   .     S
O405   Zn415   1.953   .     S
O405   C417    1.280   .     S
O407   Zn416   1.953   .     S
O408   Zn416   1.976   .     S
O409   Zn415   1.976   .     S
O410   Zn415   1.960   .     S
O410   C440    1.294   .     S
O411   Zn416   1.960   .     S
O412   Zn416   1.912   .     S
O413   Zn415   1.912   .     S
C417   O460    1.290   .     A
C417   C438    1.402   .     S
C418   C420    1.452   .     S
C418   O465    1.301   .     A
C418   O359    1.294   1_655 S
C419   C425    1.385   .     A
C419   C440    1.449   .     S
C419   C423    1.399   .     A
C420   C426    1.389   .     A
C420   C320    1.399   1_655 S
C421   C430    1.404   .     A
C421   H452    1.084   .     S
C421   C423    1.394   .     A
C422   C431    1.403   .     A
C422   C320    1.392   1_655 S
C422   H349    1.084   1_655 S
C424   H450    1.083   .     S
C425   C427    1.393   .     A
C425   H449    1.079   .     S
C426   H448    1.077   .     S
C426   C429    1.393   .     A
C427   C432    1.415   .     A
C427   C430    1.418   .     A
C428   C439    1.402   .     S
C428   O461    1.290   .     A
C428   O355    1.280   1_655 S
C429   C433    1.416   .     A
C429   C431    1.419   .     A
C430   C904    1.389   .     S
C431   C905    1.389   1_554 S
C432   C435    1.418   .     A
C432   C901    1.414   .     S
C433   C434    1.419   .     A
C433   C900    1.414   1_554 S
C434   C436    1.388   .     A
C434   H454    1.078   .     S
C435   C437    1.386   .     A
C435   H442    1.078   .     S
C436   H441    1.084   .     S
C436   C898    1.389   1_554 S
C437   H447    1.084   .     S
C437   C899    1.389   .     S
C438   C75     1.337   1_565 S
C438   H131    1.088   1_565 S
C439   C178    1.337   1_655 S
C440   O464    1.299   .     A
H444   C127    1.088   1_565 S
H445   O466    0.990   .     S
H446   O458    0.990   .     S
H451   C319    1.083   1_655 S
N455   Zn468   2.026   .     S
N455   O466    1.338   .     S
N455   N456    1.291   .     D
N456   Zn467   2.026   .     S
N456   O458    1.338   .     S
O457   Zn467   1.953   .     S
O457   C313    1.280   1_655 S
O459   Zn468   1.953   .     S
O460   Zn468   1.976   .     S
O461   Zn467   1.976   .     S
O462   Zn467   1.960   .     S
O462   C336    1.294   1_655 S
O463   Zn468   1.960   .     S
O464   Zn468   1.912   .     S
O465   Zn467   1.912   .     S
C469   O512    1.290   .     A
C469   C490    1.402   .     S
C469   O613    1.280   1_455 S
C470   C472    1.452   .     S
C470   O517    1.301   .     A
C470   O567    1.294   .     S
C471   C477    1.385   .     A
C471   C492    1.449   .     S
C471   C475    1.399   .     A
C472   C478    1.389   .     A
C472   C528    1.399   .     S
C473   C482    1.404   .     A
C473   H504    1.084   .     S
C473   C475    1.394   .     A
C474   C483    1.403   .     A
C474   C528    1.392   .     S
C474   H557    1.084   .     S
C475   H607    1.083   1_455 S
C476   H502    1.083   .     S
C476   C576    1.399   1_455 S
C476   C578    1.392   1_455 S
C477   C479    1.393   .     A
C477   H501    1.079   .     S
C478   H500    1.077   .     S
C478   C481    1.393   .     A
C479   C484    1.415   .     A
C479   C482    1.418   .     A
C480   C491    1.402   .     S
C480   O513    1.290   .     A
C480   O563    1.280   .     S
C481   C485    1.416   .     A
C481   C483    1.419   .     A
C482   C20     1.389   1_556 S
C484   C487    1.418   .     A
C484   C17     1.414   1_556 S
C485   C486    1.419   .     A
C486   C488    1.388   .     A
C486   H506    1.078   .     S
C487   C489    1.386   .     A
C487   H494    1.078   .     S
C488   H493    1.084   .     S
C489   H499    1.084   .     S
C489   C15     1.389   1_556 S
C490   C751    1.337   1_455 S
C490   H651    1.088   .     S
C491   C854    1.337   1_545 S
C491   H808    1.088   1_545 S
C492   O516    1.299   .     A
C492   O618    1.294   1_455 S
H495   C802    1.088   1_545 S
H496   C647    1.088   .     S
H497   O518    0.990   .     S
H498   O510    0.990   .     S
H503   C527    1.083   .     S
H505   C578    1.084   1_455 S
N507   Zn520   2.026   .     S
N507   O518    1.338   .     S
N507   N508    1.291   .     D
N508   Zn519   2.026   .     S
N508   O510    1.338   .     S
O509   Zn519   1.953   .     S
O509   C521    1.280   .     S
O511   Zn520   1.953   .     S
O511   C584    1.280   1_455 S
O512   Zn520   1.976   .     S
O513   Zn519   1.976   .     S
O514   Zn519   1.960   .     S
O514   C544    1.294   .     S
O515   Zn520   1.960   .     S
O515   C574    1.294   1_455 S
O516   Zn520   1.912   .     S
O517   Zn519   1.912   .     S
C521   O564    1.290   .     A
C521   C542    1.402   .     S
C522   C524    1.452   .     S
C522   O569    1.301   .     A
C522   O619    1.294   .     S
C523   C529    1.385   .     A
C523   C544    1.449   .     S
C523   C527    1.399   .     A
C524   C530    1.389   .     A
C524   C580    1.399   .     S
C525   C534    1.404   .     A
C525   H556    1.084   .     S
C525   C527    1.394   .     A
C526   C535    1.403   .     A
C526   C580    1.392   .     S
C526   H609    1.084   .     S
C528   H554    1.083   .     S
C529   C531    1.393   .     A
C529   H553    1.079   .     S
C530   H552    1.077   .     S
C530   C533    1.393   .     A
C531   C536    1.415   .     A
C531   C534    1.418   .     A
C532   C543    1.402   .     S
C532   O565    1.290   .     A
C532   O615    1.280   .     S
C533   C537    1.416   .     A
C533   C535    1.419   .     A
C534   C72     1.389   1_556 S
C536   C539    1.418   .     A
C536   C69     1.414   1_556 S
C537   C538    1.419   .     A
C538   C540    1.388   .     A
C538   H558    1.078   .     S
C539   C541    1.386   .     A
C539   H546    1.078   .     S
C540   H545    1.084   .     S
C541   H551    1.084   .     S
C541   C67     1.389   1_556 S
C542   C647    1.337   .     S
C542   H703    1.088   .     S
C543   C906    1.337   1_545 S
C543   H860    1.088   1_545 S
C544   O568    1.299   .     A
H547   C854    1.088   1_545 S
H548   C699    1.088   .     S
H549   O570    0.990   .     S
H550   O562    0.990   .     S
H555   C579    1.083   .     S
N559   Zn572   2.026   .     S
N559   O570    1.338   .     S
N559   N560    1.291   .     D
N560   Zn571   2.026   .     S
N560   O562    1.338   .     S
O561   Zn571   1.953   .     S
O561   C573    1.280   .     S
O563   Zn572   1.953   .     S
O564   Zn572   1.976   .     S
O565   Zn571   1.976   .     S
O566   Zn571   1.960   .     S
O566   C596    1.294   .     S
O567   Zn572   1.960   .     S
O568   Zn572   1.912   .     S
O569   Zn571   1.912   .     S
C573   O616    1.290   .     A
C573   C594    1.402   .     S
C574   C576    1.452   .     S
C574   O621    1.301   .     A
C574   O515    1.294   1_655 S
C575   C581    1.385   .     A
C575   C596    1.449   .     S
C575   C579    1.399   .     A
C576   C582    1.389   .     A
C576   C476    1.399   1_655 S
C577   C586    1.404   .     A
C577   H608    1.084   .     S
C577   C579    1.394   .     A
C578   C587    1.403   .     A
C578   C476    1.392   1_655 S
C578   H505    1.084   1_655 S
C580   H606    1.083   .     S
C581   C583    1.393   .     A
C581   H605    1.079   .     S
C582   H604    1.077   .     S
C582   C585    1.393   .     A
C583   C588    1.415   .     A
C583   C586    1.418   .     A
C584   C595    1.402   .     S
C584   O617    1.290   .     A
C584   O511    1.280   1_655 S
C585   C589    1.416   .     A
C585   C587    1.419   .     A
C586   C124    1.389   1_556 S
C588   C591    1.418   .     A
C588   C121    1.414   1_556 S
C589   C590    1.419   .     A
C590   C592    1.388   .     A
C590   H610    1.078   .     S
C591   C593    1.386   .     A
C591   H598    1.078   .     S
C592   H597    1.084   .     S
C593   H603    1.084   .     S
C593   C119    1.389   1_556 S
C594   C699    1.337   .     S
C594   H755    1.088   .     S
C595   C802    1.337   1_645 S
C595   H912    1.088   1_545 S
C596   O620    1.299   .     A
H599   C906    1.088   1_545 S
H600   C751    1.088   .     S
H601   O622    0.990   .     S
H602   O614    0.990   .     S
H607   C475    1.083   1_655 S
N611   Zn624   2.026   .     S
N611   O622    1.338   .     S
N611   N612    1.291   .     D
N612   Zn623   2.026   .     S
N612   O614    1.338   .     S
O613   Zn623   1.953   .     S
O613   C469    1.280   1_655 S
O615   Zn624   1.953   .     S
O616   Zn624   1.976   .     S
O617   Zn623   1.976   .     S
O618   Zn623   1.960   .     S
O618   C492    1.294   1_655 S
O619   Zn624   1.960   .     S
O620   Zn624   1.912   .     S
O621   Zn623   1.912   .     S
C625   O668    1.290   .     A
C625   C646    1.402   .     S
C625   O769    1.280   1_455 S
C626   C628    1.452   .     S
C626   O673    1.301   .     A
C626   O723    1.294   .     S
C627   C633    1.385   .     A
C627   C648    1.449   .     S
C627   C631    1.399   .     A
C628   C634    1.389   .     A
C628   C684    1.399   .     S
C629   C638    1.404   .     A
C629   H660    1.084   .     S
C629   C631    1.394   .     A
C630   C639    1.403   .     A
C630   C684    1.392   .     S
C630   H713    1.084   .     S
C631   H763    1.083   1_455 S
C632   H658    1.083   .     S
C632   C732    1.399   1_455 S
C632   C734    1.392   1_455 S
C633   C635    1.393   .     A
C633   H657    1.079   .     S
C634   H656    1.077   .     S
C634   C637    1.393   .     A
C635   C640    1.415   .     A
C635   C638    1.418   .     A
C636   C647    1.402   .     S
C636   O669    1.290   .     A
C636   O719    1.280   .     S
C637   C641    1.416   .     A
C637   C639    1.419   .     A
C638   C176    1.389   1_556 S
C640   C643    1.418   .     A
C640   C173    1.414   1_556 S
C641   C642    1.419   .     A
C642   C644    1.388   .     A
C642   H662    1.078   .     S
C643   C645    1.386   .     A
C643   H650    1.078   .     S
C644   H649    1.084   .     S
C645   H655    1.084   .     S
C645   C171    1.389   1_556 S
C646   C907    1.337   1_455 S
C646   H807    1.088   .     S
C648   O672    1.299   .     A
C648   O774    1.294   1_455 S
H652   C803    1.088   .     S
H653   O674    0.990   .     S
H654   O666    0.990   .     S
H659   C683    1.083   .     S
H661   C734    1.084   1_455 S
N663   Zn676   2.026   .     S
N663   O674    1.338   .     S
N663   N664    1.291   .     D
N664   Zn675   2.026   .     S
N664   O666    1.338   .     S
O665   Zn675   1.953   .     S
O665   C677    1.280   .     S
O667   Zn676   1.953   .     S
O667   C740    1.280   1_455 S
O668   Zn676   1.976   .     S
O669   Zn675   1.976   .     S
O670   Zn675   1.960   .     S
O670   C700    1.294   .     S
O671   Zn676   1.960   .     S
O671   C730    1.294   1_455 S
O672   Zn676   1.912   .     S
O673   Zn675   1.912   .     S
C677   O720    1.290   .     A
C677   C698    1.402   .     S
C678   C680    1.452   .     S
C678   O725    1.301   .     A
C678   O775    1.294   .     S
C679   C685    1.385   .     A
C679   C700    1.449   .     S
C679   C683    1.399   .     A
C680   C686    1.389   .     A
C680   C736    1.399   .     S
C681   C690    1.404   .     A
C681   H712    1.084   .     S
C681   C683    1.394   .     A
C682   C691    1.403   .     A
C682   C736    1.392   .     S
C682   H765    1.084   .     S
C684   H710    1.083   .     S
C685   C687    1.393   .     A
C685   H709    1.079   .     S
C686   H708    1.077   .     S
C686   C689    1.393   .     A
C687   C692    1.415   .     A
C687   C690    1.418   .     A
C688   C699    1.402   .     S
C688   O721    1.290   .     A
C688   O771    1.280   .     S
C689   C693    1.416   .     A
C689   C691    1.419   .     A
C690   C228    1.389   1_556 S
C692   C695    1.418   .     A
C692   C225    1.414   1_556 S
C693   C694    1.419   .     A
C694   C696    1.388   .     A
C694   H714    1.078   .     S
C695   C697    1.386   .     A
C695   H702    1.078   .     S
C696   H701    1.084   .     S
C697   H707    1.084   .     S
C697   C223    1.389   1_556 S
C698   C803    1.337   .     S
C698   H859    1.088   .     S
C700   O724    1.299   .     A
H704   C855    1.088   .     S
H705   O726    0.990   .     S
H706   O718    0.990   .     S
H711   C735    1.083   .     S
N715   Zn728   2.026   .     S
N715   O726    1.338   .     S
N715   N716    1.291   .     D
N716   Zn727   2.026   .     S
N716   O718    1.338   .     S
O717   Zn727   1.953   .     S
O717   C729    1.280   .     S
O719   Zn728   1.953   .     S
O720   Zn728   1.976   .     S
O721   Zn727   1.976   .     S
O722   Zn727   1.960   .     S
O722   C752    1.294   .     S
O723   Zn728   1.960   .     S
O724   Zn728   1.912   .     S
O725   Zn727   1.912   .     S
C729   O772    1.290   .     A
C729   C750    1.402   .     S
C730   C732    1.452   .     S
C730   O777    1.301   .     A
C730   O671    1.294   1_655 S
C731   C737    1.385   .     A
C731   C752    1.449   .     S
C731   C735    1.399   .     A
C732   C738    1.389   .     A
C732   C632    1.399   1_655 S
C733   C742    1.404   .     A
C733   H764    1.084   .     S
C733   C735    1.394   .     A
C734   C743    1.403   .     A
C734   C632    1.392   1_655 S
C734   H661    1.084   1_655 S
C736   H762    1.083   .     S
C737   C739    1.393   .     A
C737   H761    1.079   .     S
C738   H760    1.077   .     S
C738   C741    1.393   .     A
C739   C744    1.415   .     A
C739   C742    1.418   .     A
C740   C751    1.402   .     S
C740   O773    1.290   .     A
C740   O667    1.280   1_655 S
C741   C745    1.416   .     A
C741   C743    1.419   .     A
C742   C280    1.389   1_556 S
C744   C747    1.418   .     A
C744   C277    1.414   1_556 S
C745   C746    1.419   .     A
C746   C748    1.388   .     A
C746   H766    1.078   .     S
C747   C749    1.386   .     A
C747   H754    1.078   .     S
C748   H753    1.084   .     S
C749   H759    1.084   .     S
C749   C275    1.389   1_556 S
C750   C855    1.337   .     S
C750   H911    1.088   .     S
C751   C490    1.337   1_655 S
C752   O776    1.299   .     A
H756   C907    1.088   .     S
H757   O778    0.990   .     S
H758   O770    0.990   .     S
H763   C631    1.083   1_655 S
N767   Zn780   2.026   .     S
N767   O778    1.338   .     S
N767   N768    1.291   .     D
N768   Zn779   2.026   .     S
N768   O770    1.338   .     S
O769   Zn779   1.953   .     S
O769   C625    1.280   1_655 S
O771   Zn780   1.953   .     S
O772   Zn780   1.976   .     S
O773   Zn779   1.976   .     S
O774   Zn779   1.960   .     S
O774   C648    1.294   1_655 S
O775   Zn780   1.960   .     S
O776   Zn780   1.912   .     S
O777   Zn779   1.912   .     S
C781   O824    1.290   .     A
C781   C802    1.402   .     S
C781   O925    1.280   1_455 S
C782   C784    1.452   .     S
C782   O829    1.301   .     A
C782   O879    1.294   .     S
C783   C789    1.385   .     A
C783   C804    1.449   .     S
C783   C787    1.399   .     A
C784   C790    1.389   .     A
C784   C840    1.399   .     S
C785   C794    1.404   .     A
C785   H816    1.084   .     S
C785   C787    1.394   .     A
C786   C795    1.403   .     A
C786   C840    1.392   .     S
C786   H869    1.084   .     S
C787   H919    1.083   1_455 S
C788   H814    1.083   .     S
C788   C888    1.399   1_455 S
C788   C890    1.392   1_455 S
C789   C791    1.393   .     A
C789   H813    1.079   .     S
C790   H812    1.077   .     S
C790   C793    1.393   .     A
C791   C796    1.415   .     A
C791   C794    1.418   .     A
C792   C803    1.402   .     S
C792   O825    1.290   .     A
C792   O875    1.280   .     S
C793   C797    1.416   .     A
C793   C795    1.419   .     A
C794   C332    1.389   1_556 S
C796   C799    1.418   .     A
C796   C329    1.414   1_556 S
C797   C798    1.419   .     A
C798   C800    1.388   .     A
C798   H818    1.078   .     S
C799   C801    1.386   .     A
C799   H806    1.078   .     S
C800   H805    1.084   .     S
C801   H811    1.084   .     S
C801   C327    1.389   1_556 S
C802   C595    1.337   1_465 S
C802   H495    1.088   1_565 S
C804   O828    1.299   .     A
C804   O930    1.294   1_455 S
H808   C491    1.088   1_565 S
H809   O830    0.990   .     S
H810   O822    0.990   .     S
H815   C839    1.083   .     S
H817   C890    1.084   1_455 S
N819   Zn832   2.026   .     S
N819   O830    1.338   .     S
N819   N820    1.291   .     D
N820   Zn831   2.026   .     S
N820   O822    1.338   .     S
O821   Zn831   1.953   .     S
O821   C833    1.280   .     S
O823   Zn832   1.953   .     S
O823   C896    1.280   1_455 S
O824   Zn832   1.976   .     S
O825   Zn831   1.976   .     S
O826   Zn831   1.960   .     S
O826   C856    1.294   .     S
O827   Zn832   1.960   .     S
O827   C886    1.294   1_455 S
O828   Zn832   1.912   .     S
O829   Zn831   1.912   .     S
C833   O876    1.290   .     A
C833   C854    1.402   .     S
C834   C836    1.452   .     S
C834   O881    1.301   .     A
C834   O931    1.294   .     S
C835   C841    1.385   .     A
C835   C856    1.449   .     S
C835   C839    1.399   .     A
C836   C842    1.389   .     A
C836   C892    1.399   .     S
C837   C846    1.404   .     A
C837   H868    1.084   .     S
C837   C839    1.394   .     A
C838   C847    1.403   .     A
C838   C892    1.392   .     S
C838   H921    1.084   .     S
C840   H866    1.083   .     S
C841   C843    1.393   .     A
C841   H865    1.079   .     S
C842   H864    1.077   .     S
C842   C845    1.393   .     A
C843   C848    1.415   .     A
C843   C846    1.418   .     A
C844   C855    1.402   .     S
C844   O877    1.290   .     A
C844   O927    1.280   .     S
C845   C849    1.416   .     A
C845   C847    1.419   .     A
C846   C384    1.389   1_556 S
C848   C851    1.418   .     A
C848   C381    1.414   1_556 S
C849   C850    1.419   .     A
C850   C852    1.388   .     A
C850   H870    1.078   .     S
C851   C853    1.386   .     A
C851   H858    1.078   .     S
C852   H857    1.084   .     S
C853   H863    1.084   .     S
C853   C379    1.389   1_556 S
C854   C491    1.337   1_565 S
C854   H547    1.088   1_565 S
C856   O880    1.299   .     A
H860   C543    1.088   1_565 S
H861   O882    0.990   .     S
H862   O874    0.990   .     S
H867   C891    1.083   .     S
N871   Zn884   2.026   .     S
N871   O882    1.338   .     S
N871   N872    1.291   .     D
N872   Zn883   2.026   .     S
N872   O874    1.338   .     S
O873   Zn883   1.953   .     S
O873   C885    1.280   .     S
O875   Zn884   1.953   .     S
O876   Zn884   1.976   .     S
O877   Zn883   1.976   .     S
O878   Zn883   1.960   .     S
O878   C908    1.294   .     S
O879   Zn884   1.960   .     S
O880   Zn884   1.912   .     S
O881   Zn883   1.912   .     S
C885   O928    1.290   .     A
C885   C906    1.402   .     S
C886   C888    1.452   .     S
C886   O933    1.301   .     A
C886   O827    1.294   1_655 S
C887   C893    1.385   .     A
C887   C908    1.449   .     S
C887   C891    1.399   .     A
C888   C894    1.389   .     A
C888   C788    1.399   1_655 S
C889   C898    1.404   .     A
C889   H920    1.084   .     S
C889   C891    1.394   .     A
C890   C899    1.403   .     A
C890   C788    1.392   1_655 S
C890   H817    1.084   1_655 S
C892   H918    1.083   .     S
C893   C895    1.393   .     A
C893   H917    1.079   .     S
C894   H916    1.077   .     S
C894   C897    1.393   .     A
C895   C900    1.415   .     A
C895   C898    1.418   .     A
C896   C907    1.402   .     S
C896   O929    1.290   .     A
C896   O823    1.280   1_655 S
C897   C901    1.416   .     A
C897   C899    1.419   .     A
C898   C436    1.389   1_556 S
C900   C903    1.418   .     A
C900   C433    1.414   1_556 S
C901   C902    1.419   .     A
C902   C904    1.388   .     A
C902   H922    1.078   .     S
C903   C905    1.386   .     A
C903   H910    1.078   .     S
C904   H909    1.084   .     S
C905   H915    1.084   .     S
C905   C431    1.389   1_556 S
C906   C543    1.337   1_565 S
C906   H599    1.088   1_565 S
C907   C646    1.337   1_655 S
C908   O932    1.299   .     A
H912   C595    1.088   1_565 S
H913   O934    0.990   .     S
H914   O926    0.990   .     S
H919   C787    1.083   1_655 S
N923   Zn936   2.026   .     S
N923   O934    1.338   .     S
N923   N924    1.291   .     D
N924   Zn935   2.026   .     S
N924   O926    1.338   .     S
O925   Zn935   1.953   .     S
O925   C781    1.280   1_655 S
O927   Zn936   1.953   .     S
O928   Zn936   1.976   .     S
O929   Zn935   1.976   .     S
O930   Zn935   1.960   .     S
O930   C804    1.294   1_655 S
O931   Zn936   1.960   .     S
O932   Zn936   1.912   .     S
O933   Zn935   1.912   .     S
