data_str_m3_o1_o1_pcu_sym.32
_audit_creation_date              2020-01-03
_audit_creation_method            'Materials Studio'
_symmetry_space_group_name_H-M    'P1'
_symmetry_Int_Tables_number       1
_symmetry_cell_setting            triclinic
loop_
_symmetry_equiv_pos_as_xyz
  x,y,z
_cell_length_a                    30.9994
_cell_length_b                    29.5671
_cell_length_c                    29.5462
_cell_angle_alpha                 90.0001
_cell_angle_beta                  90.0001
_cell_angle_gamma                 90.0000
loop_
_atom_site_label
_atom_site_type_symbol
_atom_site_fract_x
_atom_site_fract_y
_atom_site_fract_z
_atom_site_U_iso_or_equiv
_atom_site_adp_type
_atom_site_occupancy
Br1    Br    0.00000   0.34683   0.05554   0.00000  Uiso   1.00
Br2    Br    0.11288   0.32065   0.26430   0.00000  Uiso   1.00
Br3    Br    0.11288   0.32065   0.06904   0.00000  Uiso   1.00
Br4    Br    0.38712   0.17935   0.26430   0.00000  Uiso   1.00
Br5    Br    0.11288   0.17935   0.26430   0.00000  Uiso   1.00
Br6    Br    0.38712   0.32065   0.06904   0.00000  Uiso   1.00
Br7    Br    0.38712   0.32065   0.26430   0.00000  Uiso   1.00
Br8    Br    0.11288   0.17935   0.06904   0.00000  Uiso   1.00
Br9    Br    0.13712   0.42935   0.06904   0.00000  Uiso   1.00
Br10   Br    0.36288   0.07065   0.26430   0.00000  Uiso   1.00
Br11   Br    0.36288   0.07065   0.06904   0.00000  Uiso   1.00
Br12   Br    0.00000   0.15317   0.27779   0.00000  Uiso   1.00
Br13   Br    0.13712   0.42935   0.26430   0.00000  Uiso   1.00
Br14   Br    0.36288   0.42935   0.26430   0.00000  Uiso   1.00
Br15   Br    0.13712   0.07065   0.06904   0.00000  Uiso   1.00
Br16   Br    0.13712   0.07065   0.26430   0.00000  Uiso   1.00
Br17   Br    0.36288   0.42935   0.06904   0.00000  Uiso   1.00
Br18   Br    0.00000   0.15317   0.05554   0.00000  Uiso   1.00
Br19   Br    0.00000   0.34683   0.27779   0.00000  Uiso   1.00
Br20   Br    0.25000   0.09683   0.05554   0.00000  Uiso   1.00
Br21   Br    0.25000   0.40317   0.27779   0.00000  Uiso   1.00
Br22   Br    0.25000   0.40317   0.05554   0.00000  Uiso   1.00
Br23   Br    0.25000   0.09683   0.27779   0.00000  Uiso   1.00
Br24   Br    0.38712   0.17935   0.06904   0.00000  Uiso   1.00
C25    C     0.06325   0.19361   0.16667   0.00000  Uiso   1.00
C26    C     0.00000   0.21008   0.30935   0.00000  Uiso   1.00
C27    C     0.00000   0.21008   0.02398   0.00000  Uiso   1.00
C28    C     0.00000   0.28992   0.30935   0.00000  Uiso   1.00
C29    C     0.25000   0.03992   0.02398   0.00000  Uiso   1.00
C30    C     0.25000   0.46008   0.30935   0.00000  Uiso   1.00
C31    C     0.25000   0.46008   0.02398   0.00000  Uiso   1.00
C32    C     0.25000   0.03992   0.30935   0.00000  Uiso   1.00
C33    C     0.38559   0.14552   0.12524   0.00000  Uiso   1.00
C34    C     0.11441   0.35448   0.20810   0.00000  Uiso   1.00
C35    C     0.11441   0.35448   0.12524   0.00000  Uiso   1.00
C36    C     0.43675   0.30639   0.16667   0.00000  Uiso   1.00
C37    C     0.38559   0.14552   0.20810   0.00000  Uiso   1.00
C38    C     0.11441   0.14552   0.20810   0.00000  Uiso   1.00
C39    C     0.38559   0.35448   0.12524   0.00000  Uiso   1.00
C40    C     0.38559   0.35448   0.20810   0.00000  Uiso   1.00
C41    C     0.11441   0.14552   0.12524   0.00000  Uiso   1.00
C42    C     0.13559   0.39552   0.12524   0.00000  Uiso   1.00
C43    C     0.36441   0.10448   0.20810   0.00000  Uiso   1.00
C44    C     0.36441   0.10448   0.12524   0.00000  Uiso   1.00
C45    C     0.13559   0.39552   0.20810   0.00000  Uiso   1.00
C46    C     0.36441   0.39552   0.20810   0.00000  Uiso   1.00
C47    C     0.43675   0.19361   0.16667   0.00000  Uiso   1.00
C48    C     0.13559   0.10448   0.12524   0.00000  Uiso   1.00
C49    C     0.13559   0.10448   0.20810   0.00000  Uiso   1.00
C50    C     0.36441   0.39552   0.12524   0.00000  Uiso   1.00
C51    C     0.09986   0.33656   0.16667   0.00000  Uiso   1.00
C52    C     0.40014   0.16344   0.16667   0.00000  Uiso   1.00
C53    C     0.40014   0.33656   0.16667   0.00000  Uiso   1.00
C54    C     0.09986   0.16344   0.16667   0.00000  Uiso   1.00
C55    C     0.34986   0.08656   0.16667   0.00000  Uiso   1.00
C56    C     0.15014   0.41344   0.16667   0.00000  Uiso   1.00
C57    C     0.15014   0.08656   0.16667   0.00000  Uiso   1.00
C58    C     0.06325   0.30639   0.16667   0.00000  Uiso   1.00
C59    C     0.34986   0.41344   0.16667   0.00000  Uiso   1.00
C60    C     0.31325   0.44361   0.16667   0.00000  Uiso   1.00
C61    C     0.18675   0.05639   0.16667   0.00000  Uiso   1.00
C62    C     0.18675   0.44361   0.16667   0.00000  Uiso   1.00
C63    C     0.31325   0.05639   0.16667   0.00000  Uiso   1.00
C64    C     0.00000   0.28992   0.02398   0.00000  Uiso   1.00
N65    N     0.00000   0.25000   0.28573   0.00000  Uiso   1.00
N66    N     0.00000   0.25000   0.04760   0.00000  Uiso   1.00
N67    N     0.25000  -0.00000   0.28573   0.00000  Uiso   1.00
N68    N     0.25000  -0.00000   0.04760   0.00000  Uiso   1.00
O69    O     0.04581   0.20419   0.20487   0.00000  Uiso   1.00
O70    O     0.20420   0.04581   0.12846   0.00000  Uiso   1.00
O71    O     0.20420   0.04581   0.20487   0.00000  Uiso   1.00
O72    O     0.29581   0.45419   0.12846   0.00000  Uiso   1.00
O73    O     0.20420   0.45419   0.12846   0.00000  Uiso   1.00
O74    O     0.29581   0.04581   0.20487   0.00000  Uiso   1.00
O75    O     0.29581   0.04581   0.12846   0.00000  Uiso   1.00
O76    O     0.20420   0.45419   0.20487   0.00000  Uiso   1.00
O77    O     0.45420   0.29581   0.12846   0.00000  Uiso   1.00
O78    O     0.45420   0.29581   0.20487   0.00000  Uiso   1.00
O79    O     0.04581   0.20419   0.12846   0.00000  Uiso   1.00
O80    O     0.45420   0.20419   0.12846   0.00000  Uiso   1.00
O81    O     0.04581   0.29581   0.20487   0.00000  Uiso   1.00
O82    O     0.04581   0.29581   0.12846   0.00000  Uiso   1.00
O83    O     0.45420   0.20419   0.20487   0.00000  Uiso   1.00
O84    O     0.29581   0.45419   0.20487   0.00000  Uiso   1.00
Zn85   Zn    0.00000   0.25000   0.21771   0.00000  Uiso   1.00
Zn86   Zn    0.00000   0.25000   0.11563   0.00000  Uiso   1.00
Zn87   Zn    0.25000  -0.00000   0.21771   0.00000  Uiso   1.00
Zn88   Zn    0.25000  -0.00000   0.11563   0.00000  Uiso   1.00
Br89   Br    0.50000   0.34683   0.05554   0.00000  Uiso   1.00
Br90   Br    0.61288   0.32065   0.26430   0.00000  Uiso   1.00
Br91   Br    0.61288   0.32065   0.06904   0.00000  Uiso   1.00
Br92   Br    0.88712   0.17935   0.26430   0.00000  Uiso   1.00
Br93   Br    0.61288   0.17935   0.26430   0.00000  Uiso   1.00
Br94   Br    0.88712   0.32065   0.06904   0.00000  Uiso   1.00
Br95   Br    0.88712   0.32065   0.26430   0.00000  Uiso   1.00
Br96   Br    0.61288   0.17935   0.06904   0.00000  Uiso   1.00
Br97   Br    0.63712   0.42935   0.06904   0.00000  Uiso   1.00
Br98   Br    0.86288   0.07065   0.26430   0.00000  Uiso   1.00
Br99   Br    0.86288   0.07065   0.06904   0.00000  Uiso   1.00
Br100  Br    0.50000   0.15317   0.27779   0.00000  Uiso   1.00
Br101  Br    0.63712   0.42935   0.26430   0.00000  Uiso   1.00
Br102  Br    0.86288   0.42935   0.26430   0.00000  Uiso   1.00
Br103  Br    0.63712   0.07065   0.06904   0.00000  Uiso   1.00
Br104  Br    0.63712   0.07065   0.26430   0.00000  Uiso   1.00
Br105  Br    0.86288   0.42935   0.06904   0.00000  Uiso   1.00
Br106  Br    0.50000   0.15317   0.05554   0.00000  Uiso   1.00
Br107  Br    0.50000   0.34683   0.27779   0.00000  Uiso   1.00
Br108  Br    0.75000   0.09683   0.05554   0.00000  Uiso   1.00
Br109  Br    0.75000   0.40317   0.27779   0.00000  Uiso   1.00
Br110  Br    0.75000   0.40317   0.05554   0.00000  Uiso   1.00
Br111  Br    0.75000   0.09683   0.27779   0.00000  Uiso   1.00
Br112  Br    0.88712   0.17935   0.06904   0.00000  Uiso   1.00
C113   C     0.56325   0.19361   0.16667   0.00000  Uiso   1.00
C114   C     0.50000   0.21008   0.30935   0.00000  Uiso   1.00
C115   C     0.50000   0.21008   0.02398   0.00000  Uiso   1.00
C116   C     0.50000   0.28992   0.30935   0.00000  Uiso   1.00
C117   C     0.75000   0.03992   0.02398   0.00000  Uiso   1.00
C118   C     0.75000   0.46008   0.30935   0.00000  Uiso   1.00
C119   C     0.75000   0.46008   0.02398   0.00000  Uiso   1.00
C120   C     0.75000   0.03992   0.30935   0.00000  Uiso   1.00
C121   C     0.88559   0.14552   0.12524   0.00000  Uiso   1.00
C122   C     0.61441   0.35448   0.20810   0.00000  Uiso   1.00
C123   C     0.61441   0.35448   0.12524   0.00000  Uiso   1.00
C124   C     0.93675   0.30639   0.16667   0.00000  Uiso   1.00
C125   C     0.88559   0.14552   0.20810   0.00000  Uiso   1.00
C126   C     0.61441   0.14552   0.20810   0.00000  Uiso   1.00
C127   C     0.88559   0.35448   0.12524   0.00000  Uiso   1.00
C128   C     0.88559   0.35448   0.20810   0.00000  Uiso   1.00
C129   C     0.61441   0.14552   0.12524   0.00000  Uiso   1.00
C130   C     0.63559   0.39552   0.12524   0.00000  Uiso   1.00
C131   C     0.86441   0.10448   0.20810   0.00000  Uiso   1.00
C132   C     0.86441   0.10448   0.12524   0.00000  Uiso   1.00
C133   C     0.63559   0.39552   0.20810   0.00000  Uiso   1.00
C134   C     0.86441   0.39552   0.20810   0.00000  Uiso   1.00
C135   C     0.93675   0.19361   0.16667   0.00000  Uiso   1.00
C136   C     0.63559   0.10448   0.12524   0.00000  Uiso   1.00
C137   C     0.63559   0.10448   0.20810   0.00000  Uiso   1.00
C138   C     0.86441   0.39552   0.12524   0.00000  Uiso   1.00
C139   C     0.59986   0.33656   0.16667   0.00000  Uiso   1.00
C140   C     0.90014   0.16344   0.16667   0.00000  Uiso   1.00
C141   C     0.90014   0.33656   0.16667   0.00000  Uiso   1.00
C142   C     0.59986   0.16344   0.16667   0.00000  Uiso   1.00
C143   C     0.84986   0.08656   0.16667   0.00000  Uiso   1.00
C144   C     0.65014   0.41344   0.16667   0.00000  Uiso   1.00
C145   C     0.65014   0.08656   0.16667   0.00000  Uiso   1.00
C146   C     0.56325   0.30639   0.16667   0.00000  Uiso   1.00
C147   C     0.84986   0.41344   0.16667   0.00000  Uiso   1.00
C148   C     0.81325   0.44361   0.16667   0.00000  Uiso   1.00
C149   C     0.68675   0.05639   0.16667   0.00000  Uiso   1.00
C150   C     0.68675   0.44361   0.16667   0.00000  Uiso   1.00
C151   C     0.81325   0.05639   0.16667   0.00000  Uiso   1.00
C152   C     0.50000   0.28992   0.02398   0.00000  Uiso   1.00
N153   N     0.50000   0.25000   0.28573   0.00000  Uiso   1.00
N154   N     0.50000   0.25000   0.04760   0.00000  Uiso   1.00
N155   N     0.75000  -0.00000   0.28573   0.00000  Uiso   1.00
N156   N     0.75000  -0.00000   0.04760   0.00000  Uiso   1.00
O157   O     0.54581   0.20419   0.20487   0.00000  Uiso   1.00
O158   O     0.70420   0.04581   0.12846   0.00000  Uiso   1.00
O159   O     0.70420   0.04581   0.20487   0.00000  Uiso   1.00
O160   O     0.79581   0.45419   0.12846   0.00000  Uiso   1.00
O161   O     0.70420   0.45419   0.12846   0.00000  Uiso   1.00
O162   O     0.79581   0.04581   0.20487   0.00000  Uiso   1.00
O163   O     0.79581   0.04581   0.12846   0.00000  Uiso   1.00
O164   O     0.70420   0.45419   0.20487   0.00000  Uiso   1.00
O165   O     0.95420   0.29581   0.12846   0.00000  Uiso   1.00
O166   O     0.95420   0.29581   0.20487   0.00000  Uiso   1.00
O167   O     0.54581   0.20419   0.12846   0.00000  Uiso   1.00
O168   O     0.95420   0.20419   0.12846   0.00000  Uiso   1.00
O169   O     0.54581   0.29581   0.20487   0.00000  Uiso   1.00
O170   O     0.54581   0.29581   0.12846   0.00000  Uiso   1.00
O171   O     0.95420   0.20419   0.20487   0.00000  Uiso   1.00
O172   O     0.79581   0.45419   0.20487   0.00000  Uiso   1.00
Zn173  Zn    0.50000   0.25000   0.21771   0.00000  Uiso   1.00
Zn174  Zn    0.50000   0.25000   0.11563   0.00000  Uiso   1.00
Zn175  Zn    0.75000  -0.00000   0.21771   0.00000  Uiso   1.00
Zn176  Zn    0.75000  -0.00000   0.11563   0.00000  Uiso   1.00
Br177  Br    0.00000   0.84683   0.05554   0.00000  Uiso   1.00
Br178  Br    0.11288   0.82065   0.26430   0.00000  Uiso   1.00
Br179  Br    0.11288   0.82065   0.06904   0.00000  Uiso   1.00
Br180  Br    0.38712   0.67935   0.26430   0.00000  Uiso   1.00
Br181  Br    0.11288   0.67935   0.26430   0.00000  Uiso   1.00
Br182  Br    0.38712   0.82065   0.06904   0.00000  Uiso   1.00
Br183  Br    0.38712   0.82065   0.26430   0.00000  Uiso   1.00
Br184  Br    0.11288   0.67935   0.06904   0.00000  Uiso   1.00
Br185  Br    0.13712   0.92935   0.06904   0.00000  Uiso   1.00
Br186  Br    0.36288   0.57065   0.26430   0.00000  Uiso   1.00
Br187  Br    0.36288   0.57065   0.06904   0.00000  Uiso   1.00
Br188  Br    0.00000   0.65317   0.27779   0.00000  Uiso   1.00
Br189  Br    0.13712   0.92935   0.26430   0.00000  Uiso   1.00
Br190  Br    0.36288   0.92935   0.26430   0.00000  Uiso   1.00
Br191  Br    0.13712   0.57065   0.06904   0.00000  Uiso   1.00
Br192  Br    0.13712   0.57065   0.26430   0.00000  Uiso   1.00
Br193  Br    0.36288   0.92935   0.06904   0.00000  Uiso   1.00
Br194  Br    0.00000   0.65317   0.05554   0.00000  Uiso   1.00
Br195  Br    0.00000   0.84683   0.27779   0.00000  Uiso   1.00
Br196  Br    0.25000   0.59683   0.05554   0.00000  Uiso   1.00
Br197  Br    0.25000   0.90317   0.27779   0.00000  Uiso   1.00
Br198  Br    0.25000   0.90317   0.05554   0.00000  Uiso   1.00
Br199  Br    0.25000   0.59683   0.27779   0.00000  Uiso   1.00
Br200  Br    0.38712   0.67935   0.06904   0.00000  Uiso   1.00
C201   C     0.06325   0.69361   0.16667   0.00000  Uiso   1.00
C202   C     0.00000   0.71008   0.30935   0.00000  Uiso   1.00
C203   C     0.00000   0.71008   0.02398   0.00000  Uiso   1.00
C204   C     0.00000   0.78992   0.30935   0.00000  Uiso   1.00
C205   C     0.25000   0.53992   0.02398   0.00000  Uiso   1.00
C206   C     0.25000   0.96008   0.30935   0.00000  Uiso   1.00
C207   C     0.25000   0.96008   0.02398   0.00000  Uiso   1.00
C208   C     0.25000   0.53992   0.30935   0.00000  Uiso   1.00
C209   C     0.38559   0.64552   0.12524   0.00000  Uiso   1.00
C210   C     0.11441   0.85448   0.20810   0.00000  Uiso   1.00
C211   C     0.11441   0.85448   0.12524   0.00000  Uiso   1.00
C212   C     0.43675   0.80639   0.16667   0.00000  Uiso   1.00
C213   C     0.38559   0.64552   0.20810   0.00000  Uiso   1.00
C214   C     0.11441   0.64552   0.20810   0.00000  Uiso   1.00
C215   C     0.38559   0.85448   0.12524   0.00000  Uiso   1.00
C216   C     0.38559   0.85448   0.20810   0.00000  Uiso   1.00
C217   C     0.11441   0.64552   0.12524   0.00000  Uiso   1.00
C218   C     0.13559   0.89552   0.12524   0.00000  Uiso   1.00
C219   C     0.36441   0.60448   0.20810   0.00000  Uiso   1.00
C220   C     0.36441   0.60448   0.12524   0.00000  Uiso   1.00
C221   C     0.13559   0.89552   0.20810   0.00000  Uiso   1.00
C222   C     0.36441   0.89552   0.20810   0.00000  Uiso   1.00
C223   C     0.43675   0.69361   0.16667   0.00000  Uiso   1.00
C224   C     0.13559   0.60448   0.12524   0.00000  Uiso   1.00
C225   C     0.13559   0.60448   0.20810   0.00000  Uiso   1.00
C226   C     0.36441   0.89552   0.12524   0.00000  Uiso   1.00
C227   C     0.09986   0.83656   0.16667   0.00000  Uiso   1.00
C228   C     0.40014   0.66344   0.16667   0.00000  Uiso   1.00
C229   C     0.40014   0.83656   0.16667   0.00000  Uiso   1.00
C230   C     0.09986   0.66344   0.16667   0.00000  Uiso   1.00
C231   C     0.34986   0.58656   0.16667   0.00000  Uiso   1.00
C232   C     0.15014   0.91344   0.16667   0.00000  Uiso   1.00
C233   C     0.15014   0.58656   0.16667   0.00000  Uiso   1.00
C234   C     0.06325   0.80639   0.16667   0.00000  Uiso   1.00
C235   C     0.34986   0.91344   0.16667   0.00000  Uiso   1.00
C236   C     0.31325   0.94361   0.16667   0.00000  Uiso   1.00
C237   C     0.18675   0.55639   0.16667   0.00000  Uiso   1.00
C238   C     0.18675   0.94361   0.16667   0.00000  Uiso   1.00
C239   C     0.31325   0.55639   0.16667   0.00000  Uiso   1.00
C240   C     0.00000   0.78992   0.02398   0.00000  Uiso   1.00
N241   N     0.00000   0.75000   0.28573   0.00000  Uiso   1.00
N242   N     0.00000   0.75000   0.04760   0.00000  Uiso   1.00
N243   N     0.25000   0.50000   0.28573   0.00000  Uiso   1.00
N244   N     0.25000   0.50000   0.04760   0.00000  Uiso   1.00
O245   O     0.04581   0.70419   0.20487   0.00000  Uiso   1.00
O246   O     0.20420   0.54581   0.12846   0.00000  Uiso   1.00
O247   O     0.20420   0.54581   0.20487   0.00000  Uiso   1.00
O248   O     0.29581   0.95419   0.12846   0.00000  Uiso   1.00
O249   O     0.20420   0.95419   0.12846   0.00000  Uiso   1.00
O250   O     0.29581   0.54581   0.20487   0.00000  Uiso   1.00
O251   O     0.29581   0.54581   0.12846   0.00000  Uiso   1.00
O252   O     0.20420   0.95419   0.20487   0.00000  Uiso   1.00
O253   O     0.45420   0.79581   0.12846   0.00000  Uiso   1.00
O254   O     0.45420   0.79581   0.20487   0.00000  Uiso   1.00
O255   O     0.04581   0.70419   0.12846   0.00000  Uiso   1.00
O256   O     0.45420   0.70419   0.12846   0.00000  Uiso   1.00
O257   O     0.04581   0.79581   0.20487   0.00000  Uiso   1.00
O258   O     0.04581   0.79581   0.12846   0.00000  Uiso   1.00
O259   O     0.45420   0.70419   0.20487   0.00000  Uiso   1.00
O260   O     0.29581   0.95419   0.20487   0.00000  Uiso   1.00
Zn261  Zn    0.00000   0.75000   0.21771   0.00000  Uiso   1.00
Zn262  Zn    0.00000   0.75000   0.11563   0.00000  Uiso   1.00
Zn263  Zn    0.25000   0.50000   0.21771   0.00000  Uiso   1.00
Zn264  Zn    0.25000   0.50000   0.11563   0.00000  Uiso   1.00
Br265  Br    0.50000   0.84683   0.05554   0.00000  Uiso   1.00
Br266  Br    0.61288   0.82065   0.26430   0.00000  Uiso   1.00
Br267  Br    0.61288   0.82065   0.06904   0.00000  Uiso   1.00
Br268  Br    0.88712   0.67935   0.26430   0.00000  Uiso   1.00
Br269  Br    0.61288   0.67935   0.26430   0.00000  Uiso   1.00
Br270  Br    0.88712   0.82065   0.06904   0.00000  Uiso   1.00
Br271  Br    0.88712   0.82065   0.26430   0.00000  Uiso   1.00
Br272  Br    0.61288   0.67935   0.06904   0.00000  Uiso   1.00
Br273  Br    0.63712   0.92935   0.06904   0.00000  Uiso   1.00
Br274  Br    0.86288   0.57065   0.26430   0.00000  Uiso   1.00
Br275  Br    0.86288   0.57065   0.06904   0.00000  Uiso   1.00
Br276  Br    0.50000   0.65317   0.27779   0.00000  Uiso   1.00
Br277  Br    0.63712   0.92935   0.26430   0.00000  Uiso   1.00
Br278  Br    0.86288   0.92935   0.26430   0.00000  Uiso   1.00
Br279  Br    0.63712   0.57065   0.06904   0.00000  Uiso   1.00
Br280  Br    0.63712   0.57065   0.26430   0.00000  Uiso   1.00
Br281  Br    0.86288   0.92935   0.06904   0.00000  Uiso   1.00
Br282  Br    0.50000   0.65317   0.05554   0.00000  Uiso   1.00
Br283  Br    0.50000   0.84683   0.27779   0.00000  Uiso   1.00
Br284  Br    0.75000   0.59683   0.05554   0.00000  Uiso   1.00
Br285  Br    0.75000   0.90317   0.27779   0.00000  Uiso   1.00
Br286  Br    0.75000   0.90317   0.05554   0.00000  Uiso   1.00
Br287  Br    0.75000   0.59683   0.27779   0.00000  Uiso   1.00
Br288  Br    0.88712   0.67935   0.06904   0.00000  Uiso   1.00
C289   C     0.56325   0.69361   0.16667   0.00000  Uiso   1.00
C290   C     0.50000   0.71008   0.30935   0.00000  Uiso   1.00
C291   C     0.50000   0.71008   0.02398   0.00000  Uiso   1.00
C292   C     0.50000   0.78992   0.30935   0.00000  Uiso   1.00
C293   C     0.75000   0.53992   0.02398   0.00000  Uiso   1.00
C294   C     0.75000   0.96008   0.30935   0.00000  Uiso   1.00
C295   C     0.75000   0.96008   0.02398   0.00000  Uiso   1.00
C296   C     0.75000   0.53992   0.30935   0.00000  Uiso   1.00
C297   C     0.88559   0.64552   0.12524   0.00000  Uiso   1.00
C298   C     0.61441   0.85448   0.20810   0.00000  Uiso   1.00
C299   C     0.61441   0.85448   0.12524   0.00000  Uiso   1.00
C300   C     0.93675   0.80639   0.16667   0.00000  Uiso   1.00
C301   C     0.88559   0.64552   0.20810   0.00000  Uiso   1.00
C302   C     0.61441   0.64552   0.20810   0.00000  Uiso   1.00
C303   C     0.88559   0.85448   0.12524   0.00000  Uiso   1.00
C304   C     0.88559   0.85448   0.20810   0.00000  Uiso   1.00
C305   C     0.61441   0.64552   0.12524   0.00000  Uiso   1.00
C306   C     0.63559   0.89552   0.12524   0.00000  Uiso   1.00
C307   C     0.86441   0.60448   0.20810   0.00000  Uiso   1.00
C308   C     0.86441   0.60448   0.12524   0.00000  Uiso   1.00
C309   C     0.63559   0.89552   0.20810   0.00000  Uiso   1.00
C310   C     0.86441   0.89552   0.20810   0.00000  Uiso   1.00
C311   C     0.93675   0.69361   0.16667   0.00000  Uiso   1.00
C312   C     0.63559   0.60448   0.12524   0.00000  Uiso   1.00
C313   C     0.63559   0.60448   0.20810   0.00000  Uiso   1.00
C314   C     0.86441   0.89552   0.12524   0.00000  Uiso   1.00
C315   C     0.59986   0.83656   0.16667   0.00000  Uiso   1.00
C316   C     0.90014   0.66344   0.16667   0.00000  Uiso   1.00
C317   C     0.90014   0.83656   0.16667   0.00000  Uiso   1.00
C318   C     0.59986   0.66344   0.16667   0.00000  Uiso   1.00
C319   C     0.84986   0.58656   0.16667   0.00000  Uiso   1.00
C320   C     0.65014   0.91344   0.16667   0.00000  Uiso   1.00
C321   C     0.65014   0.58656   0.16667   0.00000  Uiso   1.00
C322   C     0.56325   0.80639   0.16667   0.00000  Uiso   1.00
C323   C     0.84986   0.91344   0.16667   0.00000  Uiso   1.00
C324   C     0.81325   0.94361   0.16667   0.00000  Uiso   1.00
C325   C     0.68675   0.55639   0.16667   0.00000  Uiso   1.00
C326   C     0.68675   0.94361   0.16667   0.00000  Uiso   1.00
C327   C     0.81325   0.55639   0.16667   0.00000  Uiso   1.00
C328   C     0.50000   0.78992   0.02398   0.00000  Uiso   1.00
N329   N     0.50000   0.75000   0.28573   0.00000  Uiso   1.00
N330   N     0.50000   0.75000   0.04760   0.00000  Uiso   1.00
N331   N     0.75000   0.50000   0.28573   0.00000  Uiso   1.00
N332   N     0.75000   0.50000   0.04760   0.00000  Uiso   1.00
O333   O     0.54581   0.70419   0.20487   0.00000  Uiso   1.00
O334   O     0.70420   0.54581   0.12846   0.00000  Uiso   1.00
O335   O     0.70420   0.54581   0.20487   0.00000  Uiso   1.00
O336   O     0.79581   0.95419   0.12846   0.00000  Uiso   1.00
O337   O     0.70420   0.95419   0.12846   0.00000  Uiso   1.00
O338   O     0.79581   0.54581   0.20487   0.00000  Uiso   1.00
O339   O     0.79581   0.54581   0.12846   0.00000  Uiso   1.00
O340   O     0.70420   0.95419   0.20487   0.00000  Uiso   1.00
O341   O     0.95420   0.79581   0.12846   0.00000  Uiso   1.00
O342   O     0.95420   0.79581   0.20487   0.00000  Uiso   1.00
O343   O     0.54581   0.70419   0.12846   0.00000  Uiso   1.00
O344   O     0.95420   0.70419   0.12846   0.00000  Uiso   1.00
O345   O     0.54581   0.79581   0.20487   0.00000  Uiso   1.00
O346   O     0.54581   0.79581   0.12846   0.00000  Uiso   1.00
O347   O     0.95420   0.70419   0.20487   0.00000  Uiso   1.00
O348   O     0.79581   0.95419   0.20487   0.00000  Uiso   1.00
Zn349  Zn    0.50000   0.75000   0.21771   0.00000  Uiso   1.00
Zn350  Zn    0.50000   0.75000   0.11563   0.00000  Uiso   1.00
Zn351  Zn    0.75000   0.50000   0.21771   0.00000  Uiso   1.00
Zn352  Zn    0.75000   0.50000   0.11563   0.00000  Uiso   1.00
Br353  Br    0.00000   0.34683   0.38888   0.00000  Uiso   1.00
Br354  Br    0.11288   0.32065   0.59763   0.00000  Uiso   1.00
Br355  Br    0.11288   0.32065   0.40237   0.00000  Uiso   1.00
Br356  Br    0.38712   0.17935   0.59763   0.00000  Uiso   1.00
Br357  Br    0.11288   0.17935   0.59763   0.00000  Uiso   1.00
Br358  Br    0.38712   0.32065   0.40237   0.00000  Uiso   1.00
Br359  Br    0.38712   0.32065   0.59763   0.00000  Uiso   1.00
Br360  Br    0.11288   0.17935   0.40237   0.00000  Uiso   1.00
Br361  Br    0.13712   0.42935   0.40237   0.00000  Uiso   1.00
Br362  Br    0.36288   0.07065   0.59763   0.00000  Uiso   1.00
Br363  Br    0.36288   0.07065   0.40237   0.00000  Uiso   1.00
Br364  Br    0.00000   0.15317   0.61112   0.00000  Uiso   1.00
Br365  Br    0.13712   0.42935   0.59763   0.00000  Uiso   1.00
Br366  Br    0.36288   0.42935   0.59763   0.00000  Uiso   1.00
Br367  Br    0.13712   0.07065   0.40237   0.00000  Uiso   1.00
Br368  Br    0.13712   0.07065   0.59763   0.00000  Uiso   1.00
Br369  Br    0.36288   0.42935   0.40237   0.00000  Uiso   1.00
Br370  Br    0.00000   0.15317   0.38888   0.00000  Uiso   1.00
Br371  Br    0.00000   0.34683   0.61112   0.00000  Uiso   1.00
Br372  Br    0.25000   0.09683   0.38888   0.00000  Uiso   1.00
Br373  Br    0.25000   0.40317   0.61112   0.00000  Uiso   1.00
Br374  Br    0.25000   0.40317   0.38888   0.00000  Uiso   1.00
Br375  Br    0.25000   0.09683   0.61112   0.00000  Uiso   1.00
Br376  Br    0.38712   0.17935   0.40237   0.00000  Uiso   1.00
C377   C     0.06325   0.19361   0.50000   0.00000  Uiso   1.00
C378   C     0.00000   0.21008   0.64268   0.00000  Uiso   1.00
C379   C     0.00000   0.21008   0.35732   0.00000  Uiso   1.00
C380   C     0.00000   0.28992   0.64268   0.00000  Uiso   1.00
C381   C     0.25000   0.03992   0.35732   0.00000  Uiso   1.00
C382   C     0.25000   0.46008   0.64268   0.00000  Uiso   1.00
C383   C     0.25000   0.46008   0.35732   0.00000  Uiso   1.00
C384   C     0.25000   0.03992   0.64268   0.00000  Uiso   1.00
C385   C     0.38559   0.14552   0.45857   0.00000  Uiso   1.00
C386   C     0.11441   0.35448   0.54143   0.00000  Uiso   1.00
C387   C     0.11441   0.35448   0.45857   0.00000  Uiso   1.00
C388   C     0.43675   0.30639   0.50000   0.00000  Uiso   1.00
C389   C     0.38559   0.14552   0.54143   0.00000  Uiso   1.00
C390   C     0.11441   0.14552   0.54143   0.00000  Uiso   1.00
C391   C     0.38559   0.35448   0.45857   0.00000  Uiso   1.00
C392   C     0.38559   0.35448   0.54143   0.00000  Uiso   1.00
C393   C     0.11441   0.14552   0.45857   0.00000  Uiso   1.00
C394   C     0.13559   0.39552   0.45857   0.00000  Uiso   1.00
C395   C     0.36441   0.10448   0.54143   0.00000  Uiso   1.00
C396   C     0.36441   0.10448   0.45857   0.00000  Uiso   1.00
C397   C     0.13559   0.39552   0.54143   0.00000  Uiso   1.00
C398   C     0.36441   0.39552   0.54143   0.00000  Uiso   1.00
C399   C     0.43675   0.19361   0.50000   0.00000  Uiso   1.00
C400   C     0.13559   0.10448   0.45857   0.00000  Uiso   1.00
C401   C     0.13559   0.10448   0.54143   0.00000  Uiso   1.00
C402   C     0.36441   0.39552   0.45857   0.00000  Uiso   1.00
C403   C     0.09986   0.33656   0.50000   0.00000  Uiso   1.00
C404   C     0.40014   0.16344   0.50000   0.00000  Uiso   1.00
C405   C     0.40014   0.33656   0.50000   0.00000  Uiso   1.00
C406   C     0.09986   0.16344   0.50000   0.00000  Uiso   1.00
C407   C     0.34986   0.08656   0.50000   0.00000  Uiso   1.00
C408   C     0.15014   0.41344   0.50000   0.00000  Uiso   1.00
C409   C     0.15014   0.08656   0.50000   0.00000  Uiso   1.00
C410   C     0.06325   0.30639   0.50000   0.00000  Uiso   1.00
C411   C     0.34986   0.41344   0.50000   0.00000  Uiso   1.00
C412   C     0.31325   0.44361   0.50000   0.00000  Uiso   1.00
C413   C     0.18675   0.05639   0.50000   0.00000  Uiso   1.00
C414   C     0.18675   0.44361   0.50000   0.00000  Uiso   1.00
C415   C     0.31325   0.05639   0.50000   0.00000  Uiso   1.00
C416   C     0.00000   0.28992   0.35732   0.00000  Uiso   1.00
N417   N     0.00000   0.25000   0.61907   0.00000  Uiso   1.00
N418   N     0.00000   0.25000   0.38093   0.00000  Uiso   1.00
N419   N     0.25000  -0.00000   0.61907   0.00000  Uiso   1.00
N420   N     0.25000  -0.00000   0.38093   0.00000  Uiso   1.00
O421   O     0.04581   0.20419   0.53821   0.00000  Uiso   1.00
O422   O     0.20420   0.04581   0.46179   0.00000  Uiso   1.00
O423   O     0.20420   0.04581   0.53821   0.00000  Uiso   1.00
O424   O     0.29581   0.45419   0.46179   0.00000  Uiso   1.00
O425   O     0.20420   0.45419   0.46179   0.00000  Uiso   1.00
O426   O     0.29581   0.04581   0.53821   0.00000  Uiso   1.00
O427   O     0.29581   0.04581   0.46179   0.00000  Uiso   1.00
O428   O     0.20420   0.45419   0.53821   0.00000  Uiso   1.00
O429   O     0.45420   0.29581   0.46179   0.00000  Uiso   1.00
O430   O     0.45420   0.29581   0.53821   0.00000  Uiso   1.00
O431   O     0.04581   0.20419   0.46179   0.00000  Uiso   1.00
O432   O     0.45420   0.20419   0.46179   0.00000  Uiso   1.00
O433   O     0.04581   0.29581   0.53821   0.00000  Uiso   1.00
O434   O     0.04581   0.29581   0.46179   0.00000  Uiso   1.00
O435   O     0.45420   0.20419   0.53821   0.00000  Uiso   1.00
O436   O     0.29581   0.45419   0.53821   0.00000  Uiso   1.00
Zn437  Zn    0.00000   0.25000   0.55104   0.00000  Uiso   1.00
Zn438  Zn    0.00000   0.25000   0.44896   0.00000  Uiso   1.00
Zn439  Zn    0.25000  -0.00000   0.55104   0.00000  Uiso   1.00
Zn440  Zn    0.25000  -0.00000   0.44896   0.00000  Uiso   1.00
Br441  Br    0.50000   0.34683   0.38888   0.00000  Uiso   1.00
Br442  Br    0.61288   0.32065   0.59763   0.00000  Uiso   1.00
Br443  Br    0.61288   0.32065   0.40237   0.00000  Uiso   1.00
Br444  Br    0.88712   0.17935   0.59763   0.00000  Uiso   1.00
Br445  Br    0.61288   0.17935   0.59763   0.00000  Uiso   1.00
Br446  Br    0.88712   0.32065   0.40237   0.00000  Uiso   1.00
Br447  Br    0.88712   0.32065   0.59763   0.00000  Uiso   1.00
Br448  Br    0.61288   0.17935   0.40237   0.00000  Uiso   1.00
Br449  Br    0.63712   0.42935   0.40237   0.00000  Uiso   1.00
Br450  Br    0.86288   0.07065   0.59763   0.00000  Uiso   1.00
Br451  Br    0.86288   0.07065   0.40237   0.00000  Uiso   1.00
Br452  Br    0.50000   0.15317   0.61112   0.00000  Uiso   1.00
Br453  Br    0.63712   0.42935   0.59763   0.00000  Uiso   1.00
Br454  Br    0.86288   0.42935   0.59763   0.00000  Uiso   1.00
Br455  Br    0.63712   0.07065   0.40237   0.00000  Uiso   1.00
Br456  Br    0.63712   0.07065   0.59763   0.00000  Uiso   1.00
Br457  Br    0.86288   0.42935   0.40237   0.00000  Uiso   1.00
Br458  Br    0.50000   0.15317   0.38888   0.00000  Uiso   1.00
Br459  Br    0.50000   0.34683   0.61112   0.00000  Uiso   1.00
Br460  Br    0.75000   0.09683   0.38888   0.00000  Uiso   1.00
Br461  Br    0.75000   0.40317   0.61112   0.00000  Uiso   1.00
Br462  Br    0.75000   0.40317   0.38888   0.00000  Uiso   1.00
Br463  Br    0.75000   0.09683   0.61112   0.00000  Uiso   1.00
Br464  Br    0.88712   0.17935   0.40237   0.00000  Uiso   1.00
C465   C     0.56325   0.19361   0.50000   0.00000  Uiso   1.00
C466   C     0.50000   0.21008   0.64268   0.00000  Uiso   1.00
C467   C     0.50000   0.21008   0.35732   0.00000  Uiso   1.00
C468   C     0.50000   0.28992   0.64268   0.00000  Uiso   1.00
C469   C     0.75000   0.03992   0.35732   0.00000  Uiso   1.00
C470   C     0.75000   0.46008   0.64268   0.00000  Uiso   1.00
C471   C     0.75000   0.46008   0.35732   0.00000  Uiso   1.00
C472   C     0.75000   0.03992   0.64268   0.00000  Uiso   1.00
C473   C     0.88559   0.14552   0.45857   0.00000  Uiso   1.00
C474   C     0.61441   0.35448   0.54143   0.00000  Uiso   1.00
C475   C     0.61441   0.35448   0.45857   0.00000  Uiso   1.00
C476   C     0.93675   0.30639   0.50000   0.00000  Uiso   1.00
C477   C     0.88559   0.14552   0.54143   0.00000  Uiso   1.00
C478   C     0.61441   0.14552   0.54143   0.00000  Uiso   1.00
C479   C     0.88559   0.35448   0.45857   0.00000  Uiso   1.00
C480   C     0.88559   0.35448   0.54143   0.00000  Uiso   1.00
C481   C     0.61441   0.14552   0.45857   0.00000  Uiso   1.00
C482   C     0.63559   0.39552   0.45857   0.00000  Uiso   1.00
C483   C     0.86441   0.10448   0.54143   0.00000  Uiso   1.00
C484   C     0.86441   0.10448   0.45857   0.00000  Uiso   1.00
C485   C     0.63559   0.39552   0.54143   0.00000  Uiso   1.00
C486   C     0.86441   0.39552   0.54143   0.00000  Uiso   1.00
C487   C     0.93675   0.19361   0.50000   0.00000  Uiso   1.00
C488   C     0.63559   0.10448   0.45857   0.00000  Uiso   1.00
C489   C     0.63559   0.10448   0.54143   0.00000  Uiso   1.00
C490   C     0.86441   0.39552   0.45857   0.00000  Uiso   1.00
C491   C     0.59986   0.33656   0.50000   0.00000  Uiso   1.00
C492   C     0.90014   0.16344   0.50000   0.00000  Uiso   1.00
C493   C     0.90014   0.33656   0.50000   0.00000  Uiso   1.00
C494   C     0.59986   0.16344   0.50000   0.00000  Uiso   1.00
C495   C     0.84986   0.08656   0.50000   0.00000  Uiso   1.00
C496   C     0.65014   0.41344   0.50000   0.00000  Uiso   1.00
C497   C     0.65014   0.08656   0.50000   0.00000  Uiso   1.00
C498   C     0.56325   0.30639   0.50000   0.00000  Uiso   1.00
C499   C     0.84986   0.41344   0.50000   0.00000  Uiso   1.00
C500   C     0.81325   0.44361   0.50000   0.00000  Uiso   1.00
C501   C     0.68675   0.05639   0.50000   0.00000  Uiso   1.00
C502   C     0.68675   0.44361   0.50000   0.00000  Uiso   1.00
C503   C     0.81325   0.05639   0.50000   0.00000  Uiso   1.00
C504   C     0.50000   0.28992   0.35732   0.00000  Uiso   1.00
N505   N     0.50000   0.25000   0.61907   0.00000  Uiso   1.00
N506   N     0.50000   0.25000   0.38093   0.00000  Uiso   1.00
N507   N     0.75000  -0.00000   0.61907   0.00000  Uiso   1.00
N508   N     0.75000  -0.00000   0.38093   0.00000  Uiso   1.00
O509   O     0.54581   0.20419   0.53821   0.00000  Uiso   1.00
O510   O     0.70420   0.04581   0.46179   0.00000  Uiso   1.00
O511   O     0.70420   0.04581   0.53821   0.00000  Uiso   1.00
O512   O     0.79581   0.45419   0.46179   0.00000  Uiso   1.00
O513   O     0.70420   0.45419   0.46179   0.00000  Uiso   1.00
O514   O     0.79581   0.04581   0.53821   0.00000  Uiso   1.00
O515   O     0.79581   0.04581   0.46179   0.00000  Uiso   1.00
O516   O     0.70420   0.45419   0.53821   0.00000  Uiso   1.00
O517   O     0.95420   0.29581   0.46179   0.00000  Uiso   1.00
O518   O     0.95420   0.29581   0.53821   0.00000  Uiso   1.00
O519   O     0.54581   0.20419   0.46179   0.00000  Uiso   1.00
O520   O     0.95420   0.20419   0.46179   0.00000  Uiso   1.00
O521   O     0.54581   0.29581   0.53821   0.00000  Uiso   1.00
O522   O     0.54581   0.29581   0.46179   0.00000  Uiso   1.00
O523   O     0.95420   0.20419   0.53821   0.00000  Uiso   1.00
O524   O     0.79581   0.45419   0.53821   0.00000  Uiso   1.00
Zn525  Zn    0.50000   0.25000   0.55104   0.00000  Uiso   1.00
Zn526  Zn    0.50000   0.25000   0.44896   0.00000  Uiso   1.00
Zn527  Zn    0.75000  -0.00000   0.55104   0.00000  Uiso   1.00
Zn528  Zn    0.75000  -0.00000   0.44896   0.00000  Uiso   1.00
Br529  Br    0.00000   0.84683   0.38888   0.00000  Uiso   1.00
Br530  Br    0.11288   0.82065   0.59763   0.00000  Uiso   1.00
Br531  Br    0.11288   0.82065   0.40237   0.00000  Uiso   1.00
Br532  Br    0.38712   0.67935   0.59763   0.00000  Uiso   1.00
Br533  Br    0.11288   0.67935   0.59763   0.00000  Uiso   1.00
Br534  Br    0.38712   0.82065   0.40237   0.00000  Uiso   1.00
Br535  Br    0.38712   0.82065   0.59763   0.00000  Uiso   1.00
Br536  Br    0.11288   0.67935   0.40237   0.00000  Uiso   1.00
Br537  Br    0.13712   0.92935   0.40237   0.00000  Uiso   1.00
Br538  Br    0.36288   0.57065   0.59763   0.00000  Uiso   1.00
Br539  Br    0.36288   0.57065   0.40237   0.00000  Uiso   1.00
Br540  Br    0.00000   0.65317   0.61112   0.00000  Uiso   1.00
Br541  Br    0.13712   0.92935   0.59763   0.00000  Uiso   1.00
Br542  Br    0.36288   0.92935   0.59763   0.00000  Uiso   1.00
Br543  Br    0.13712   0.57065   0.40237   0.00000  Uiso   1.00
Br544  Br    0.13712   0.57065   0.59763   0.00000  Uiso   1.00
Br545  Br    0.36288   0.92935   0.40237   0.00000  Uiso   1.00
Br546  Br    0.00000   0.65317   0.38888   0.00000  Uiso   1.00
Br547  Br    0.00000   0.84683   0.61112   0.00000  Uiso   1.00
Br548  Br    0.25000   0.59683   0.38888   0.00000  Uiso   1.00
Br549  Br    0.25000   0.90317   0.61112   0.00000  Uiso   1.00
Br550  Br    0.25000   0.90317   0.38888   0.00000  Uiso   1.00
Br551  Br    0.25000   0.59683   0.61112   0.00000  Uiso   1.00
Br552  Br    0.38712   0.67935   0.40237   0.00000  Uiso   1.00
C553   C     0.06325   0.69361   0.50000   0.00000  Uiso   1.00
C554   C     0.00000   0.71008   0.64268   0.00000  Uiso   1.00
C555   C     0.00000   0.71008   0.35732   0.00000  Uiso   1.00
C556   C     0.00000   0.78992   0.64268   0.00000  Uiso   1.00
C557   C     0.25000   0.53992   0.35732   0.00000  Uiso   1.00
C558   C     0.25000   0.96008   0.64268   0.00000  Uiso   1.00
C559   C     0.25000   0.96008   0.35732   0.00000  Uiso   1.00
C560   C     0.25000   0.53992   0.64268   0.00000  Uiso   1.00
C561   C     0.38559   0.64552   0.45857   0.00000  Uiso   1.00
C562   C     0.11441   0.85448   0.54143   0.00000  Uiso   1.00
C563   C     0.11441   0.85448   0.45857   0.00000  Uiso   1.00
C564   C     0.43675   0.80639   0.50000   0.00000  Uiso   1.00
C565   C     0.38559   0.64552   0.54143   0.00000  Uiso   1.00
C566   C     0.11441   0.64552   0.54143   0.00000  Uiso   1.00
C567   C     0.38559   0.85448   0.45857   0.00000  Uiso   1.00
C568   C     0.38559   0.85448   0.54143   0.00000  Uiso   1.00
C569   C     0.11441   0.64552   0.45857   0.00000  Uiso   1.00
C570   C     0.13559   0.89552   0.45857   0.00000  Uiso   1.00
C571   C     0.36441   0.60448   0.54143   0.00000  Uiso   1.00
C572   C     0.36441   0.60448   0.45857   0.00000  Uiso   1.00
C573   C     0.13559   0.89552   0.54143   0.00000  Uiso   1.00
C574   C     0.36441   0.89552   0.54143   0.00000  Uiso   1.00
C575   C     0.43675   0.69361   0.50000   0.00000  Uiso   1.00
C576   C     0.13559   0.60448   0.45857   0.00000  Uiso   1.00
C577   C     0.13559   0.60448   0.54143   0.00000  Uiso   1.00
C578   C     0.36441   0.89552   0.45857   0.00000  Uiso   1.00
C579   C     0.09986   0.83656   0.50000   0.00000  Uiso   1.00
C580   C     0.40014   0.66344   0.50000   0.00000  Uiso   1.00
C581   C     0.40014   0.83656   0.50000   0.00000  Uiso   1.00
C582   C     0.09986   0.66344   0.50000   0.00000  Uiso   1.00
C583   C     0.34986   0.58656   0.50000   0.00000  Uiso   1.00
C584   C     0.15014   0.91344   0.50000   0.00000  Uiso   1.00
C585   C     0.15014   0.58656   0.50000   0.00000  Uiso   1.00
C586   C     0.06325   0.80639   0.50000   0.00000  Uiso   1.00
C587   C     0.34986   0.91344   0.50000   0.00000  Uiso   1.00
C588   C     0.31325   0.94361   0.50000   0.00000  Uiso   1.00
C589   C     0.18675   0.55639   0.50000   0.00000  Uiso   1.00
C590   C     0.18675   0.94361   0.50000   0.00000  Uiso   1.00
C591   C     0.31325   0.55639   0.50000   0.00000  Uiso   1.00
C592   C     0.00000   0.78992   0.35732   0.00000  Uiso   1.00
N593   N     0.00000   0.75000   0.61907   0.00000  Uiso   1.00
N594   N     0.00000   0.75000   0.38093   0.00000  Uiso   1.00
N595   N     0.25000   0.50000   0.61907   0.00000  Uiso   1.00
N596   N     0.25000   0.50000   0.38093   0.00000  Uiso   1.00
O597   O     0.04581   0.70419   0.53821   0.00000  Uiso   1.00
O598   O     0.20420   0.54581   0.46179   0.00000  Uiso   1.00
O599   O     0.20420   0.54581   0.53821   0.00000  Uiso   1.00
O600   O     0.29581   0.95419   0.46179   0.00000  Uiso   1.00
O601   O     0.20420   0.95419   0.46179   0.00000  Uiso   1.00
O602   O     0.29581   0.54581   0.53821   0.00000  Uiso   1.00
O603   O     0.29581   0.54581   0.46179   0.00000  Uiso   1.00
O604   O     0.20420   0.95419   0.53821   0.00000  Uiso   1.00
O605   O     0.45420   0.79581   0.46179   0.00000  Uiso   1.00
O606   O     0.45420   0.79581   0.53821   0.00000  Uiso   1.00
O607   O     0.04581   0.70419   0.46179   0.00000  Uiso   1.00
O608   O     0.45420   0.70419   0.46179   0.00000  Uiso   1.00
O609   O     0.04581   0.79581   0.53821   0.00000  Uiso   1.00
O610   O     0.04581   0.79581   0.46179   0.00000  Uiso   1.00
O611   O     0.45420   0.70419   0.53821   0.00000  Uiso   1.00
O612   O     0.29581   0.95419   0.53821   0.00000  Uiso   1.00
Zn613  Zn    0.00000   0.75000   0.55104   0.00000  Uiso   1.00
Zn614  Zn    0.00000   0.75000   0.44896   0.00000  Uiso   1.00
Zn615  Zn    0.25000   0.50000   0.55104   0.00000  Uiso   1.00
Zn616  Zn    0.25000   0.50000   0.44896   0.00000  Uiso   1.00
Br617  Br    0.50000   0.84683   0.38888   0.00000  Uiso   1.00
Br618  Br    0.61288   0.82065   0.59763   0.00000  Uiso   1.00
Br619  Br    0.61288   0.82065   0.40237   0.00000  Uiso   1.00
Br620  Br    0.88712   0.67935   0.59763   0.00000  Uiso   1.00
Br621  Br    0.61288   0.67935   0.59763   0.00000  Uiso   1.00
Br622  Br    0.88712   0.82065   0.40237   0.00000  Uiso   1.00
Br623  Br    0.88712   0.82065   0.59763   0.00000  Uiso   1.00
Br624  Br    0.61288   0.67935   0.40237   0.00000  Uiso   1.00
Br625  Br    0.63712   0.92935   0.40237   0.00000  Uiso   1.00
Br626  Br    0.86288   0.57065   0.59763   0.00000  Uiso   1.00
Br627  Br    0.86288   0.57065   0.40237   0.00000  Uiso   1.00
Br628  Br    0.50000   0.65317   0.61112   0.00000  Uiso   1.00
Br629  Br    0.63712   0.92935   0.59763   0.00000  Uiso   1.00
Br630  Br    0.86288   0.92935   0.59763   0.00000  Uiso   1.00
Br631  Br    0.63712   0.57065   0.40237   0.00000  Uiso   1.00
Br632  Br    0.63712   0.57065   0.59763   0.00000  Uiso   1.00
Br633  Br    0.86288   0.92935   0.40237   0.00000  Uiso   1.00
Br634  Br    0.50000   0.65317   0.38888   0.00000  Uiso   1.00
Br635  Br    0.50000   0.84683   0.61112   0.00000  Uiso   1.00
Br636  Br    0.75000   0.59683   0.38888   0.00000  Uiso   1.00
Br637  Br    0.75000   0.90317   0.61112   0.00000  Uiso   1.00
Br638  Br    0.75000   0.90317   0.38888   0.00000  Uiso   1.00
Br639  Br    0.75000   0.59683   0.61112   0.00000  Uiso   1.00
Br640  Br    0.88712   0.67935   0.40237   0.00000  Uiso   1.00
C641   C     0.56325   0.69361   0.50000   0.00000  Uiso   1.00
C642   C     0.50000   0.71008   0.64268   0.00000  Uiso   1.00
C643   C     0.50000   0.71008   0.35732   0.00000  Uiso   1.00
C644   C     0.50000   0.78992   0.64268   0.00000  Uiso   1.00
C645   C     0.75000   0.53992   0.35732   0.00000  Uiso   1.00
C646   C     0.75000   0.96008   0.64268   0.00000  Uiso   1.00
C647   C     0.75000   0.96008   0.35732   0.00000  Uiso   1.00
C648   C     0.75000   0.53992   0.64268   0.00000  Uiso   1.00
C649   C     0.88559   0.64552   0.45857   0.00000  Uiso   1.00
C650   C     0.61441   0.85448   0.54143   0.00000  Uiso   1.00
C651   C     0.61441   0.85448   0.45857   0.00000  Uiso   1.00
C652   C     0.93675   0.80639   0.50000   0.00000  Uiso   1.00
C653   C     0.88559   0.64552   0.54143   0.00000  Uiso   1.00
C654   C     0.61441   0.64552   0.54143   0.00000  Uiso   1.00
C655   C     0.88559   0.85448   0.45857   0.00000  Uiso   1.00
C656   C     0.88559   0.85448   0.54143   0.00000  Uiso   1.00
C657   C     0.61441   0.64552   0.45857   0.00000  Uiso   1.00
C658   C     0.63559   0.89552   0.45857   0.00000  Uiso   1.00
C659   C     0.86441   0.60448   0.54143   0.00000  Uiso   1.00
C660   C     0.86441   0.60448   0.45857   0.00000  Uiso   1.00
C661   C     0.63559   0.89552   0.54143   0.00000  Uiso   1.00
C662   C     0.86441   0.89552   0.54143   0.00000  Uiso   1.00
C663   C     0.93675   0.69361   0.50000   0.00000  Uiso   1.00
C664   C     0.63559   0.60448   0.45857   0.00000  Uiso   1.00
C665   C     0.63559   0.60448   0.54143   0.00000  Uiso   1.00
C666   C     0.86441   0.89552   0.45857   0.00000  Uiso   1.00
C667   C     0.59986   0.83656   0.50000   0.00000  Uiso   1.00
C668   C     0.90014   0.66344   0.50000   0.00000  Uiso   1.00
C669   C     0.90014   0.83656   0.50000   0.00000  Uiso   1.00
C670   C     0.59986   0.66344   0.50000   0.00000  Uiso   1.00
C671   C     0.84986   0.58656   0.50000   0.00000  Uiso   1.00
C672   C     0.65014   0.91344   0.50000   0.00000  Uiso   1.00
C673   C     0.65014   0.58656   0.50000   0.00000  Uiso   1.00
C674   C     0.56325   0.80639   0.50000   0.00000  Uiso   1.00
C675   C     0.84986   0.91344   0.50000   0.00000  Uiso   1.00
C676   C     0.81325   0.94361   0.50000   0.00000  Uiso   1.00
C677   C     0.68675   0.55639   0.50000   0.00000  Uiso   1.00
C678   C     0.68675   0.94361   0.50000   0.00000  Uiso   1.00
C679   C     0.81325   0.55639   0.50000   0.00000  Uiso   1.00
C680   C     0.50000   0.78992   0.35732   0.00000  Uiso   1.00
N681   N     0.50000   0.75000   0.61907   0.00000  Uiso   1.00
N682   N     0.50000   0.75000   0.38093   0.00000  Uiso   1.00
N683   N     0.75000   0.50000   0.61907   0.00000  Uiso   1.00
N684   N     0.75000   0.50000   0.38093   0.00000  Uiso   1.00
O685   O     0.54581   0.70419   0.53821   0.00000  Uiso   1.00
O686   O     0.70420   0.54581   0.46179   0.00000  Uiso   1.00
O687   O     0.70420   0.54581   0.53821   0.00000  Uiso   1.00
O688   O     0.79581   0.95419   0.46179   0.00000  Uiso   1.00
O689   O     0.70420   0.95419   0.46179   0.00000  Uiso   1.00
O690   O     0.79581   0.54581   0.53821   0.00000  Uiso   1.00
O691   O     0.79581   0.54581   0.46179   0.00000  Uiso   1.00
O692   O     0.70420   0.95419   0.53821   0.00000  Uiso   1.00
O693   O     0.95420   0.79581   0.46179   0.00000  Uiso   1.00
O694   O     0.95420   0.79581   0.53821   0.00000  Uiso   1.00
O695   O     0.54581   0.70419   0.46179   0.00000  Uiso   1.00
O696   O     0.95420   0.70419   0.46179   0.00000  Uiso   1.00
O697   O     0.54581   0.79581   0.53821   0.00000  Uiso   1.00
O698   O     0.54581   0.79581   0.46179   0.00000  Uiso   1.00
O699   O     0.95420   0.70419   0.53821   0.00000  Uiso   1.00
O700   O     0.79581   0.95419   0.53821   0.00000  Uiso   1.00
Zn701  Zn    0.50000   0.75000   0.55104   0.00000  Uiso   1.00
Zn702  Zn    0.50000   0.75000   0.44896   0.00000  Uiso   1.00
Zn703  Zn    0.75000   0.50000   0.55104   0.00000  Uiso   1.00
Zn704  Zn    0.75000   0.50000   0.44896   0.00000  Uiso   1.00
Br705  Br    0.00000   0.34683   0.72221   0.00000  Uiso   1.00
Br706  Br    0.11288   0.32065   0.93096   0.00000  Uiso   1.00
Br707  Br    0.11288   0.32065   0.73570   0.00000  Uiso   1.00
Br708  Br    0.38712   0.17935   0.93096   0.00000  Uiso   1.00
Br709  Br    0.11288   0.17935   0.93096   0.00000  Uiso   1.00
Br710  Br    0.38712   0.32065   0.73570   0.00000  Uiso   1.00
Br711  Br    0.38712   0.32065   0.93096   0.00000  Uiso   1.00
Br712  Br    0.11288   0.17935   0.73570   0.00000  Uiso   1.00
Br713  Br    0.13712   0.42935   0.73570   0.00000  Uiso   1.00
Br714  Br    0.36288   0.07065   0.93096   0.00000  Uiso   1.00
Br715  Br    0.36288   0.07065   0.73570   0.00000  Uiso   1.00
Br716  Br    0.00000   0.15317   0.94446   0.00000  Uiso   1.00
Br717  Br    0.13712   0.42935   0.93096   0.00000  Uiso   1.00
Br718  Br    0.36288   0.42935   0.93096   0.00000  Uiso   1.00
Br719  Br    0.13712   0.07065   0.73570   0.00000  Uiso   1.00
Br720  Br    0.13712   0.07065   0.93096   0.00000  Uiso   1.00
Br721  Br    0.36288   0.42935   0.73570   0.00000  Uiso   1.00
Br722  Br    0.00000   0.15317   0.72221   0.00000  Uiso   1.00
Br723  Br    0.00000   0.34683   0.94446   0.00000  Uiso   1.00
Br724  Br    0.25000   0.09683   0.72221   0.00000  Uiso   1.00
Br725  Br    0.25000   0.40317   0.94446   0.00000  Uiso   1.00
Br726  Br    0.25000   0.40317   0.72221   0.00000  Uiso   1.00
Br727  Br    0.25000   0.09683   0.94446   0.00000  Uiso   1.00
Br728  Br    0.38712   0.17935   0.73570   0.00000  Uiso   1.00
C729   C     0.06325   0.19361   0.83333   0.00000  Uiso   1.00
C730   C     0.00000   0.21008   0.97602   0.00000  Uiso   1.00
C731   C     0.00000   0.21008   0.69065   0.00000  Uiso   1.00
C732   C     0.00000   0.28992   0.97602   0.00000  Uiso   1.00
C733   C     0.25000   0.03992   0.69065   0.00000  Uiso   1.00
C734   C     0.25000   0.46008   0.97602   0.00000  Uiso   1.00
C735   C     0.25000   0.46008   0.69065   0.00000  Uiso   1.00
C736   C     0.25000   0.03992   0.97602   0.00000  Uiso   1.00
C737   C     0.38559   0.14552   0.79190   0.00000  Uiso   1.00
C738   C     0.11441   0.35448   0.87476   0.00000  Uiso   1.00
C739   C     0.11441   0.35448   0.79190   0.00000  Uiso   1.00
C740   C     0.43675   0.30639   0.83333   0.00000  Uiso   1.00
C741   C     0.38559   0.14552   0.87476   0.00000  Uiso   1.00
C742   C     0.11441   0.14552   0.87476   0.00000  Uiso   1.00
C743   C     0.38559   0.35448   0.79190   0.00000  Uiso   1.00
C744   C     0.38559   0.35448   0.87476   0.00000  Uiso   1.00
C745   C     0.11441   0.14552   0.79190   0.00000  Uiso   1.00
C746   C     0.13559   0.39552   0.79190   0.00000  Uiso   1.00
C747   C     0.36441   0.10448   0.87476   0.00000  Uiso   1.00
C748   C     0.36441   0.10448   0.79190   0.00000  Uiso   1.00
C749   C     0.13559   0.39552   0.87476   0.00000  Uiso   1.00
C750   C     0.36441   0.39552   0.87476   0.00000  Uiso   1.00
C751   C     0.43675   0.19361   0.83333   0.00000  Uiso   1.00
C752   C     0.13559   0.10448   0.79190   0.00000  Uiso   1.00
C753   C     0.13559   0.10448   0.87476   0.00000  Uiso   1.00
C754   C     0.36441   0.39552   0.79190   0.00000  Uiso   1.00
C755   C     0.09986   0.33656   0.83333   0.00000  Uiso   1.00
C756   C     0.40014   0.16344   0.83333   0.00000  Uiso   1.00
C757   C     0.40014   0.33656   0.83333   0.00000  Uiso   1.00
C758   C     0.09986   0.16344   0.83333   0.00000  Uiso   1.00
C759   C     0.34986   0.08656   0.83333   0.00000  Uiso   1.00
C760   C     0.15014   0.41344   0.83333   0.00000  Uiso   1.00
C761   C     0.15014   0.08656   0.83333   0.00000  Uiso   1.00
C762   C     0.06325   0.30639   0.83333   0.00000  Uiso   1.00
C763   C     0.34986   0.41344   0.83333   0.00000  Uiso   1.00
C764   C     0.31325   0.44361   0.83333   0.00000  Uiso   1.00
C765   C     0.18675   0.05639   0.83333   0.00000  Uiso   1.00
C766   C     0.18675   0.44361   0.83333   0.00000  Uiso   1.00
C767   C     0.31325   0.05639   0.83333   0.00000  Uiso   1.00
C768   C     0.00000   0.28992   0.69065   0.00000  Uiso   1.00
N769   N     0.00000   0.25000   0.95240   0.00000  Uiso   1.00
N770   N     0.00000   0.25000   0.71427   0.00000  Uiso   1.00
N771   N     0.25000  -0.00000   0.95240   0.00000  Uiso   1.00
N772   N     0.25000  -0.00000   0.71427   0.00000  Uiso   1.00
O773   O     0.04581   0.20419   0.87154   0.00000  Uiso   1.00
O774   O     0.20420   0.04581   0.79513   0.00000  Uiso   1.00
O775   O     0.20420   0.04581   0.87154   0.00000  Uiso   1.00
O776   O     0.29581   0.45419   0.79513   0.00000  Uiso   1.00
O777   O     0.20420   0.45419   0.79513   0.00000  Uiso   1.00
O778   O     0.29581   0.04581   0.87154   0.00000  Uiso   1.00
O779   O     0.29581   0.04581   0.79513   0.00000  Uiso   1.00
O780   O     0.20420   0.45419   0.87154   0.00000  Uiso   1.00
O781   O     0.45420   0.29581   0.79513   0.00000  Uiso   1.00
O782   O     0.45420   0.29581   0.87154   0.00000  Uiso   1.00
O783   O     0.04581   0.20419   0.79513   0.00000  Uiso   1.00
O784   O     0.45420   0.20419   0.79513   0.00000  Uiso   1.00
O785   O     0.04581   0.29581   0.87154   0.00000  Uiso   1.00
O786   O     0.04581   0.29581   0.79513   0.00000  Uiso   1.00
O787   O     0.45420   0.20419   0.87154   0.00000  Uiso   1.00
O788   O     0.29581   0.45419   0.87154   0.00000  Uiso   1.00
Zn789  Zn    0.00000   0.25000   0.88437   0.00000  Uiso   1.00
Zn790  Zn    0.00000   0.25000   0.78229   0.00000  Uiso   1.00
Zn791  Zn    0.25000  -0.00000   0.88437   0.00000  Uiso   1.00
Zn792  Zn    0.25000  -0.00000   0.78229   0.00000  Uiso   1.00
Br793  Br    0.50000   0.34683   0.72221   0.00000  Uiso   1.00
Br794  Br    0.61288   0.32065   0.93096   0.00000  Uiso   1.00
Br795  Br    0.61288   0.32065   0.73570   0.00000  Uiso   1.00
Br796  Br    0.88712   0.17935   0.93096   0.00000  Uiso   1.00
Br797  Br    0.61288   0.17935   0.93096   0.00000  Uiso   1.00
Br798  Br    0.88712   0.32065   0.73570   0.00000  Uiso   1.00
Br799  Br    0.88712   0.32065   0.93096   0.00000  Uiso   1.00
Br800  Br    0.61288   0.17935   0.73570   0.00000  Uiso   1.00
Br801  Br    0.63712   0.42935   0.73570   0.00000  Uiso   1.00
Br802  Br    0.86288   0.07065   0.93096   0.00000  Uiso   1.00
Br803  Br    0.86288   0.07065   0.73570   0.00000  Uiso   1.00
Br804  Br    0.50000   0.15317   0.94446   0.00000  Uiso   1.00
Br805  Br    0.63712   0.42935   0.93096   0.00000  Uiso   1.00
Br806  Br    0.86288   0.42935   0.93096   0.00000  Uiso   1.00
Br807  Br    0.63712   0.07065   0.73570   0.00000  Uiso   1.00
Br808  Br    0.63712   0.07065   0.93096   0.00000  Uiso   1.00
Br809  Br    0.86288   0.42935   0.73570   0.00000  Uiso   1.00
Br810  Br    0.50000   0.15317   0.72221   0.00000  Uiso   1.00
Br811  Br    0.50000   0.34683   0.94446   0.00000  Uiso   1.00
Br812  Br    0.75000   0.09683   0.72221   0.00000  Uiso   1.00
Br813  Br    0.75000   0.40317   0.94446   0.00000  Uiso   1.00
Br814  Br    0.75000   0.40317   0.72221   0.00000  Uiso   1.00
Br815  Br    0.75000   0.09683   0.94446   0.00000  Uiso   1.00
Br816  Br    0.88712   0.17935   0.73570   0.00000  Uiso   1.00
C817   C     0.56325   0.19361   0.83333   0.00000  Uiso   1.00
C818   C     0.50000   0.21008   0.97602   0.00000  Uiso   1.00
C819   C     0.50000   0.21008   0.69065   0.00000  Uiso   1.00
C820   C     0.50000   0.28992   0.97602   0.00000  Uiso   1.00
C821   C     0.75000   0.03992   0.69065   0.00000  Uiso   1.00
C822   C     0.75000   0.46008   0.97602   0.00000  Uiso   1.00
C823   C     0.75000   0.46008   0.69065   0.00000  Uiso   1.00
C824   C     0.75000   0.03992   0.97602   0.00000  Uiso   1.00
C825   C     0.88559   0.14552   0.79190   0.00000  Uiso   1.00
C826   C     0.61441   0.35448   0.87476   0.00000  Uiso   1.00
C827   C     0.61441   0.35448   0.79190   0.00000  Uiso   1.00
C828   C     0.93675   0.30639   0.83333   0.00000  Uiso   1.00
C829   C     0.88559   0.14552   0.87476   0.00000  Uiso   1.00
C830   C     0.61441   0.14552   0.87476   0.00000  Uiso   1.00
C831   C     0.88559   0.35448   0.79190   0.00000  Uiso   1.00
C832   C     0.88559   0.35448   0.87476   0.00000  Uiso   1.00
C833   C     0.61441   0.14552   0.79190   0.00000  Uiso   1.00
C834   C     0.63559   0.39552   0.79190   0.00000  Uiso   1.00
C835   C     0.86441   0.10448   0.87476   0.00000  Uiso   1.00
C836   C     0.86441   0.10448   0.79190   0.00000  Uiso   1.00
C837   C     0.63559   0.39552   0.87476   0.00000  Uiso   1.00
C838   C     0.86441   0.39552   0.87476   0.00000  Uiso   1.00
C839   C     0.93675   0.19361   0.83333   0.00000  Uiso   1.00
C840   C     0.63559   0.10448   0.79190   0.00000  Uiso   1.00
C841   C     0.63559   0.10448   0.87476   0.00000  Uiso   1.00
C842   C     0.86441   0.39552   0.79190   0.00000  Uiso   1.00
C843   C     0.59986   0.33656   0.83333   0.00000  Uiso   1.00
C844   C     0.90014   0.16344   0.83333   0.00000  Uiso   1.00
C845   C     0.90014   0.33656   0.83333   0.00000  Uiso   1.00
C846   C     0.59986   0.16344   0.83333   0.00000  Uiso   1.00
C847   C     0.84986   0.08656   0.83333   0.00000  Uiso   1.00
C848   C     0.65014   0.41344   0.83333   0.00000  Uiso   1.00
C849   C     0.65014   0.08656   0.83333   0.00000  Uiso   1.00
C850   C     0.56325   0.30639   0.83333   0.00000  Uiso   1.00
C851   C     0.84986   0.41344   0.83333   0.00000  Uiso   1.00
C852   C     0.81325   0.44361   0.83333   0.00000  Uiso   1.00
C853   C     0.68675   0.05639   0.83333   0.00000  Uiso   1.00
C854   C     0.68675   0.44361   0.83333   0.00000  Uiso   1.00
C855   C     0.81325   0.05639   0.83333   0.00000  Uiso   1.00
C856   C     0.50000   0.28992   0.69065   0.00000  Uiso   1.00
N857   N     0.50000   0.25000   0.95240   0.00000  Uiso   1.00
N858   N     0.50000   0.25000   0.71427   0.00000  Uiso   1.00
N859   N     0.75000  -0.00000   0.95240   0.00000  Uiso   1.00
N860   N     0.75000  -0.00000   0.71427   0.00000  Uiso   1.00
O861   O     0.54581   0.20419   0.87154   0.00000  Uiso   1.00
O862   O     0.70420   0.04581   0.79513   0.00000  Uiso   1.00
O863   O     0.70420   0.04581   0.87154   0.00000  Uiso   1.00
O864   O     0.79581   0.45419   0.79513   0.00000  Uiso   1.00
O865   O     0.70420   0.45419   0.79513   0.00000  Uiso   1.00
O866   O     0.79581   0.04581   0.87154   0.00000  Uiso   1.00
O867   O     0.79581   0.04581   0.79513   0.00000  Uiso   1.00
O868   O     0.70420   0.45419   0.87154   0.00000  Uiso   1.00
O869   O     0.95420   0.29581   0.79513   0.00000  Uiso   1.00
O870   O     0.95420   0.29581   0.87154   0.00000  Uiso   1.00
O871   O     0.54581   0.20419   0.79513   0.00000  Uiso   1.00
O872   O     0.95420   0.20419   0.79513   0.00000  Uiso   1.00
O873   O     0.54581   0.29581   0.87154   0.00000  Uiso   1.00
O874   O     0.54581   0.29581   0.79513   0.00000  Uiso   1.00
O875   O     0.95420   0.20419   0.87154   0.00000  Uiso   1.00
O876   O     0.79581   0.45419   0.87154   0.00000  Uiso   1.00
Zn877  Zn    0.50000   0.25000   0.88437   0.00000  Uiso   1.00
Zn878  Zn    0.50000   0.25000   0.78229   0.00000  Uiso   1.00
Zn879  Zn    0.75000  -0.00000   0.88437   0.00000  Uiso   1.00
Zn880  Zn    0.75000  -0.00000   0.78229   0.00000  Uiso   1.00
Br881  Br    0.00000   0.84683   0.72221   0.00000  Uiso   1.00
Br882  Br    0.11288   0.82065   0.93096   0.00000  Uiso   1.00
Br883  Br    0.11288   0.82065   0.73570   0.00000  Uiso   1.00
Br884  Br    0.38712   0.67935   0.93096   0.00000  Uiso   1.00
Br885  Br    0.11288   0.67935   0.93096   0.00000  Uiso   1.00
Br886  Br    0.38712   0.82065   0.73570   0.00000  Uiso   1.00
Br887  Br    0.38712   0.82065   0.93096   0.00000  Uiso   1.00
Br888  Br    0.11288   0.67935   0.73570   0.00000  Uiso   1.00
Br889  Br    0.13712   0.92935   0.73570   0.00000  Uiso   1.00
Br890  Br    0.36288   0.57065   0.93096   0.00000  Uiso   1.00
Br891  Br    0.36288   0.57065   0.73570   0.00000  Uiso   1.00
Br892  Br    0.00000   0.65317   0.94446   0.00000  Uiso   1.00
Br893  Br    0.13712   0.92935   0.93096   0.00000  Uiso   1.00
Br894  Br    0.36288   0.92935   0.93096   0.00000  Uiso   1.00
Br895  Br    0.13712   0.57065   0.73570   0.00000  Uiso   1.00
Br896  Br    0.13712   0.57065   0.93096   0.00000  Uiso   1.00
Br897  Br    0.36288   0.92935   0.73570   0.00000  Uiso   1.00
Br898  Br    0.00000   0.65317   0.72221   0.00000  Uiso   1.00
Br899  Br    0.00000   0.84683   0.94446   0.00000  Uiso   1.00
Br900  Br    0.25000   0.59683   0.72221   0.00000  Uiso   1.00
Br901  Br    0.25000   0.90317   0.94446   0.00000  Uiso   1.00
Br902  Br    0.25000   0.90317   0.72221   0.00000  Uiso   1.00
Br903  Br    0.25000   0.59683   0.94446   0.00000  Uiso   1.00
Br904  Br    0.38712   0.67935   0.73570   0.00000  Uiso   1.00
C905   C     0.06325   0.69361   0.83333   0.00000  Uiso   1.00
C906   C     0.00000   0.71008   0.97602   0.00000  Uiso   1.00
C907   C     0.00000   0.71008   0.69065   0.00000  Uiso   1.00
C908   C     0.00000   0.78992   0.97602   0.00000  Uiso   1.00
C909   C     0.25000   0.53992   0.69065   0.00000  Uiso   1.00
C910   C     0.25000   0.96008   0.97602   0.00000  Uiso   1.00
C911   C     0.25000   0.96008   0.69065   0.00000  Uiso   1.00
C912   C     0.25000   0.53992   0.97602   0.00000  Uiso   1.00
C913   C     0.38559   0.64552   0.79190   0.00000  Uiso   1.00
C914   C     0.11441   0.85448   0.87476   0.00000  Uiso   1.00
C915   C     0.11441   0.85448   0.79190   0.00000  Uiso   1.00
C916   C     0.43675   0.80639   0.83333   0.00000  Uiso   1.00
C917   C     0.38559   0.64552   0.87476   0.00000  Uiso   1.00
C918   C     0.11441   0.64552   0.87476   0.00000  Uiso   1.00
C919   C     0.38559   0.85448   0.79190   0.00000  Uiso   1.00
C920   C     0.38559   0.85448   0.87476   0.00000  Uiso   1.00
C921   C     0.11441   0.64552   0.79190   0.00000  Uiso   1.00
C922   C     0.13559   0.89552   0.79190   0.00000  Uiso   1.00
C923   C     0.36441   0.60448   0.87476   0.00000  Uiso   1.00
C924   C     0.36441   0.60448   0.79190   0.00000  Uiso   1.00
C925   C     0.13559   0.89552   0.87476   0.00000  Uiso   1.00
C926   C     0.36441   0.89552   0.87476   0.00000  Uiso   1.00
C927   C     0.43675   0.69361   0.83333   0.00000  Uiso   1.00
C928   C     0.13559   0.60448   0.79190   0.00000  Uiso   1.00
C929   C     0.13559   0.60448   0.87476   0.00000  Uiso   1.00
C930   C     0.36441   0.89552   0.79190   0.00000  Uiso   1.00
C931   C     0.09986   0.83656   0.83333   0.00000  Uiso   1.00
C932   C     0.40014   0.66344   0.83333   0.00000  Uiso   1.00
C933   C     0.40014   0.83656   0.83333   0.00000  Uiso   1.00
C934   C     0.09986   0.66344   0.83333   0.00000  Uiso   1.00
C935   C     0.34986   0.58656   0.83333   0.00000  Uiso   1.00
C936   C     0.15014   0.91344   0.83333   0.00000  Uiso   1.00
C937   C     0.15014   0.58656   0.83333   0.00000  Uiso   1.00
C938   C     0.06325   0.80639   0.83333   0.00000  Uiso   1.00
C939   C     0.34986   0.91344   0.83333   0.00000  Uiso   1.00
C940   C     0.31325   0.94361   0.83333   0.00000  Uiso   1.00
C941   C     0.18675   0.55639   0.83333   0.00000  Uiso   1.00
C942   C     0.18675   0.94361   0.83333   0.00000  Uiso   1.00
C943   C     0.31325   0.55639   0.83333   0.00000  Uiso   1.00
C944   C     0.00000   0.78992   0.69065   0.00000  Uiso   1.00
N945   N     0.00000   0.75000   0.95240   0.00000  Uiso   1.00
N946   N     0.00000   0.75000   0.71427   0.00000  Uiso   1.00
N947   N     0.25000   0.50000   0.95240   0.00000  Uiso   1.00
N948   N     0.25000   0.50000   0.71427   0.00000  Uiso   1.00
O949   O     0.04581   0.70419   0.87154   0.00000  Uiso   1.00
O950   O     0.20420   0.54581   0.79513   0.00000  Uiso   1.00
O951   O     0.20420   0.54581   0.87154   0.00000  Uiso   1.00
O952   O     0.29581   0.95419   0.79513   0.00000  Uiso   1.00
O953   O     0.20420   0.95419   0.79513   0.00000  Uiso   1.00
O954   O     0.29581   0.54581   0.87154   0.00000  Uiso   1.00
O955   O     0.29581   0.54581   0.79513   0.00000  Uiso   1.00
O956   O     0.20420   0.95419   0.87154   0.00000  Uiso   1.00
O957   O     0.45420   0.79581   0.79513   0.00000  Uiso   1.00
O958   O     0.45420   0.79581   0.87154   0.00000  Uiso   1.00
O959   O     0.04581   0.70419   0.79513   0.00000  Uiso   1.00
O960   O     0.45420   0.70419   0.79513   0.00000  Uiso   1.00
O961   O     0.04581   0.79581   0.87154   0.00000  Uiso   1.00
O962   O     0.04581   0.79581   0.79513   0.00000  Uiso   1.00
O963   O     0.45420   0.70419   0.87154   0.00000  Uiso   1.00
O964   O     0.29581   0.95419   0.87154   0.00000  Uiso   1.00
Zn965  Zn    0.00000   0.75000   0.88437   0.00000  Uiso   1.00
Zn966  Zn    0.00000   0.75000   0.78229   0.00000  Uiso   1.00
Zn967  Zn    0.25000   0.50000   0.88437   0.00000  Uiso   1.00
Zn968  Zn    0.25000   0.50000   0.78229   0.00000  Uiso   1.00
Br969  Br    0.50000   0.84683   0.72221   0.00000  Uiso   1.00
Br970  Br    0.61288   0.82065   0.93096   0.00000  Uiso   1.00
Br971  Br    0.61288   0.82065   0.73570   0.00000  Uiso   1.00
Br972  Br    0.88712   0.67935   0.93096   0.00000  Uiso   1.00
Br973  Br    0.61288   0.67935   0.93096   0.00000  Uiso   1.00
Br974  Br    0.88712   0.82065   0.73570   0.00000  Uiso   1.00
Br975  Br    0.88712   0.82065   0.93096   0.00000  Uiso   1.00
Br976  Br    0.61288   0.67935   0.73570   0.00000  Uiso   1.00
Br977  Br    0.63712   0.92935   0.73570   0.00000  Uiso   1.00
Br978  Br    0.86288   0.57065   0.93096   0.00000  Uiso   1.00
Br979  Br    0.86288   0.57065   0.73570   0.00000  Uiso   1.00
Br980  Br    0.50000   0.65317   0.94446   0.00000  Uiso   1.00
Br981  Br    0.63712   0.92935   0.93096   0.00000  Uiso   1.00
Br982  Br    0.86288   0.92935   0.93096   0.00000  Uiso   1.00
Br983  Br    0.63712   0.57065   0.73570   0.00000  Uiso   1.00
Br984  Br    0.63712   0.57065   0.93096   0.00000  Uiso   1.00
Br985  Br    0.86288   0.92935   0.73570   0.00000  Uiso   1.00
Br986  Br    0.50000   0.65317   0.72221   0.00000  Uiso   1.00
Br987  Br    0.50000   0.84683   0.94446   0.00000  Uiso   1.00
Br988  Br    0.75000   0.59683   0.72221   0.00000  Uiso   1.00
Br989  Br    0.75000   0.90317   0.94446   0.00000  Uiso   1.00
Br990  Br    0.75000   0.90317   0.72221   0.00000  Uiso   1.00
Br991  Br    0.75000   0.59683   0.94446   0.00000  Uiso   1.00
Br992  Br    0.88712   0.67935   0.73570   0.00000  Uiso   1.00
C993   C     0.56325   0.69361   0.83333   0.00000  Uiso   1.00
C994   C     0.50000   0.71008   0.97602   0.00000  Uiso   1.00
C995   C     0.50000   0.71008   0.69065   0.00000  Uiso   1.00
C996   C     0.50000   0.78992   0.97602   0.00000  Uiso   1.00
C997   C     0.75000   0.53992   0.69065   0.00000  Uiso   1.00
C998   C     0.75000   0.96008   0.97602   0.00000  Uiso   1.00
C999   C     0.75000   0.96008   0.69065   0.00000  Uiso   1.00
C1000  C     0.75000   0.53992   0.97602   0.00000  Uiso   1.00
C1001  C     0.88559   0.64552   0.79190   0.00000  Uiso   1.00
C1002  C     0.61441   0.85448   0.87476   0.00000  Uiso   1.00
C1003  C     0.61441   0.85448   0.79190   0.00000  Uiso   1.00
C1004  C     0.93675   0.80639   0.83333   0.00000  Uiso   1.00
C1005  C     0.88559   0.64552   0.87476   0.00000  Uiso   1.00
C1006  C     0.61441   0.64552   0.87476   0.00000  Uiso   1.00
C1007  C     0.88559   0.85448   0.79190   0.00000  Uiso   1.00
C1008  C     0.88559   0.85448   0.87476   0.00000  Uiso   1.00
C1009  C     0.61441   0.64552   0.79190   0.00000  Uiso   1.00
C1010  C     0.63559   0.89552   0.79190   0.00000  Uiso   1.00
C1011  C     0.86441   0.60448   0.87476   0.00000  Uiso   1.00
C1012  C     0.86441   0.60448   0.79190   0.00000  Uiso   1.00
C1013  C     0.63559   0.89552   0.87476   0.00000  Uiso   1.00
C1014  C     0.86441   0.89552   0.87476   0.00000  Uiso   1.00
C1015  C     0.93675   0.69361   0.83333   0.00000  Uiso   1.00
C1016  C     0.63559   0.60448   0.79190   0.00000  Uiso   1.00
C1017  C     0.63559   0.60448   0.87476   0.00000  Uiso   1.00
C1018  C     0.86441   0.89552   0.79190   0.00000  Uiso   1.00
C1019  C     0.59986   0.83656   0.83333   0.00000  Uiso   1.00
C1020  C     0.90014   0.66344   0.83333   0.00000  Uiso   1.00
C1021  C     0.90014   0.83656   0.83333   0.00000  Uiso   1.00
C1022  C     0.59986   0.66344   0.83333   0.00000  Uiso   1.00
C1023  C     0.84986   0.58656   0.83333   0.00000  Uiso   1.00
C1024  C     0.65014   0.91344   0.83333   0.00000  Uiso   1.00
C1025  C     0.65014   0.58656   0.83333   0.00000  Uiso   1.00
C1026  C     0.56325   0.80639   0.83333   0.00000  Uiso   1.00
C1027  C     0.84986   0.91344   0.83333   0.00000  Uiso   1.00
C1028  C     0.81325   0.94361   0.83333   0.00000  Uiso   1.00
C1029  C     0.68675   0.55639   0.83333   0.00000  Uiso   1.00
C1030  C     0.68675   0.94361   0.83333   0.00000  Uiso   1.00
C1031  C     0.81325   0.55639   0.83333   0.00000  Uiso   1.00
C1032  C     0.50000   0.78992   0.69065   0.00000  Uiso   1.00
N1033  N     0.50000   0.75000   0.95240   0.00000  Uiso   1.00
N1034  N     0.50000   0.75000   0.71427   0.00000  Uiso   1.00
N1035  N     0.75000   0.50000   0.95240   0.00000  Uiso   1.00
N1036  N     0.75000   0.50000   0.71427   0.00000  Uiso   1.00
O1037  O     0.54581   0.70419   0.87154   0.00000  Uiso   1.00
O1038  O     0.70420   0.54581   0.79513   0.00000  Uiso   1.00
O1039  O     0.70420   0.54581   0.87154   0.00000  Uiso   1.00
O1040  O     0.79581   0.95419   0.79513   0.00000  Uiso   1.00
O1041  O     0.70420   0.95419   0.79513   0.00000  Uiso   1.00
O1042  O     0.79581   0.54581   0.87154   0.00000  Uiso   1.00
O1043  O     0.79581   0.54581   0.79513   0.00000  Uiso   1.00
O1044  O     0.70420   0.95419   0.87154   0.00000  Uiso   1.00
O1045  O     0.95420   0.79581   0.79513   0.00000  Uiso   1.00
O1046  O     0.95420   0.79581   0.87154   0.00000  Uiso   1.00
O1047  O     0.54581   0.70419   0.79513   0.00000  Uiso   1.00
O1048  O     0.95420   0.70419   0.79513   0.00000  Uiso   1.00
O1049  O     0.54581   0.79581   0.87154   0.00000  Uiso   1.00
O1050  O     0.54581   0.79581   0.79513   0.00000  Uiso   1.00
O1051  O     0.95420   0.70419   0.87154   0.00000  Uiso   1.00
O1052  O     0.79581   0.95419   0.87154   0.00000  Uiso   1.00
Zn1053 Zn    0.50000   0.75000   0.88437   0.00000  Uiso   1.00
Zn1054 Zn    0.50000   0.75000   0.78229   0.00000  Uiso   1.00
Zn1055 Zn    0.75000   0.50000   0.88437   0.00000  Uiso   1.00
Zn1056 Zn    0.75000   0.50000   0.78229   0.00000  Uiso   1.00
loop_
_geom_bond_atom_site_label_1
_geom_bond_atom_site_label_2
_geom_bond_distance
_geom_bond_site_symmetry_2
_ccdc_geom_bond_type
Br1    C64     1.924   .     S
Br2    C34     1.939   .     S
Br3    C35     1.939   .     S
Br4    C37     1.939   .     S
Br5    C38     1.939   .     S
Br6    C39     1.939   .     S
Br7    C40     1.939   .     S
Br8    C41     1.939   .     S
Br9    C42     1.939   .     S
Br10   C43     1.939   .     S
Br11   C44     1.939   .     S
Br12   C26     1.924   .     S
Br13   C45     1.939   .     S
Br14   C46     1.939   .     S
Br15   C48     1.939   .     S
Br16   C49     1.939   .     S
Br17   C50     1.939   .     S
Br18   C27     1.924   .     S
Br19   C28     1.924   .     S
Br20   C29     1.924   .     S
Br21   C30     1.924   .     S
Br22   C31     1.924   .     S
Br23   C32     1.924   .     S
Br24   C33     1.939   .     S
C25    C54     1.444   .     S
C25    O69     1.290   .     A
C25    O79     1.290   .     A
C26    N65     1.371   .     A
C26    C379    1.417   .     S
C27    C730    1.417   1_554 S
C27    N66     1.371   .     S
C28    N65     1.371   .     A
C28    C416    1.417   .     S
C29    N68     1.371   .     A
C29    C736    1.417   1_554 S
C30    N243    1.371   .     A
C30    C383    1.417   .     S
C31    C734    1.417   1_554 S
C31    N244    1.371   .     S
C32    C381    1.417   .     S
C32    N67     1.371   .     S
C33    C52     1.408   .     A
C33    C44     1.380   .     A
C34    C51     1.408   .     A
C34    C45     1.380   .     A
C35    C42     1.380   .     A
C35    C51     1.408   .     A
C36    O77     1.290   .     A
C36    C53     1.444   .     S
C36    O78     1.290   .     A
C37    C52     1.408   .     A
C37    C43     1.380   .     A
C38    C49     1.380   .     A
C38    C54     1.408   .     A
C39    C53     1.408   .     A
C39    C50     1.380   .     A
C40    C46     1.380   .     A
C40    C53     1.408   .     A
C41    C48     1.380   .     A
C41    C54     1.408   .     A
C42    C56     1.408   .     A
C43    C55     1.408   .     A
C44    C55     1.408   .     A
C45    C56     1.408   .     A
C46    C59     1.408   .     A
C47    O83     1.290   .     A
C47    O80     1.290   .     A
C47    C52     1.444   .     S
C48    C57     1.408   .     A
C49    C57     1.408   .     A
C50    C59     1.408   .     A
C51    C58     1.444   .     S
C55    C63     1.444   .     S
C56    C62     1.444   .     S
C57    C61     1.444   .     S
C58    O82     1.290   .     A
C58    O81     1.290   .     A
C59    C60     1.444   .     S
C60    O72     1.290   .     A
C60    O84     1.290   .     A
C61    O70     1.290   .     A
C61    O71     1.290   .     A
C62    O73     1.290   .     A
C62    O76     1.290   .     A
C63    O74     1.290   .     A
C63    O75     1.290   .     A
C64    C732    1.417   1_554 S
C64    N66     1.371   .     S
N65    Zn85    2.010   .     S
N66    Zn86    2.010   .     S
N67    C206    1.371   1_545 A
N67    Zn87    2.010   .     S
N68    Zn88    2.010   .     S
N68    C207    1.371   1_545 S
O69    Zn85    1.999   .     S
O70    Zn88    1.999   .     S
O71    Zn87    1.999   .     S
O72    Zn264   1.999   .     S
O73    Zn264   1.999   .     S
O74    Zn87    1.999   .     S
O75    Zn88    1.999   .     S
O76    Zn263   1.999   .     S
O77    Zn174   1.999   .     S
O78    Zn173   1.999   .     S
O79    Zn86    1.999   .     S
O80    Zn174   1.999   .     S
O81    Zn85    1.999   .     S
O82    Zn86    1.999   .     S
O83    Zn173   1.999   .     S
O84    Zn263   1.999   .     S
Zn85   O166    1.999   1_455 S
Zn85   O171    1.999   1_455 S
Zn86   O168    1.999   1_455 S
Zn86   O165    1.999   1_455 S
Zn87   O252    1.999   1_545 S
Zn87   O260    1.999   1_545 S
Zn88   O249    1.999   1_545 S
Zn88   O248    1.999   1_545 S
Br89   C152    1.924   .     S
Br90   C122    1.939   .     S
Br91   C123    1.939   .     S
Br92   C125    1.939   .     S
Br93   C126    1.939   .     S
Br94   C127    1.939   .     S
Br95   C128    1.939   .     S
Br96   C129    1.939   .     S
Br97   C130    1.939   .     S
Br98   C131    1.939   .     S
Br99   C132    1.939   .     S
Br100  C114    1.924   .     S
Br101  C133    1.939   .     S
Br102  C134    1.939   .     S
Br103  C136    1.939   .     S
Br104  C137    1.939   .     S
Br105  C138    1.939   .     S
Br106  C115    1.924   .     S
Br107  C116    1.924   .     S
Br108  C117    1.924   .     S
Br109  C118    1.924   .     S
Br110  C119    1.924   .     S
Br111  C120    1.924   .     S
Br112  C121    1.939   .     S
C113   C142    1.444   .     S
C113   O157    1.290   .     A
C113   O167    1.290   .     A
C114   N153    1.371   .     A
C114   C467    1.417   .     S
C115   C818    1.417   1_554 S
C115   N154    1.371   .     S
C116   N153    1.371   .     A
C116   C504    1.417   .     S
C117   N156    1.371   .     A
C117   C824    1.417   1_554 S
C118   N331    1.371   .     A
C118   C471    1.417   .     S
C119   C822    1.417   1_554 S
C119   N332    1.371   .     S
C120   C469    1.417   .     S
C120   N155    1.371   .     S
C121   C140    1.408   .     A
C121   C132    1.380   .     A
C122   C139    1.408   .     A
C122   C133    1.380   .     A
C123   C130    1.380   .     A
C123   C139    1.408   .     A
C124   O165    1.290   .     A
C124   C141    1.444   .     S
C124   O166    1.290   .     A
C125   C140    1.408   .     A
C125   C131    1.380   .     A
C126   C137    1.380   .     A
C126   C142    1.408   .     A
C127   C141    1.408   .     A
C127   C138    1.380   .     A
C128   C134    1.380   .     A
C128   C141    1.408   .     A
C129   C136    1.380   .     A
C129   C142    1.408   .     A
C130   C144    1.408   .     A
C131   C143    1.408   .     A
C132   C143    1.408   .     A
C133   C144    1.408   .     A
C134   C147    1.408   .     A
C135   O171    1.290   .     A
C135   O168    1.290   .     A
C135   C140    1.444   .     S
C136   C145    1.408   .     A
C137   C145    1.408   .     A
C138   C147    1.408   .     A
C139   C146    1.444   .     S
C143   C151    1.444   .     S
C144   C150    1.444   .     S
C145   C149    1.444   .     S
C146   O170    1.290   .     A
C146   O169    1.290   .     A
C147   C148    1.444   .     S
C148   O160    1.290   .     A
C148   O172    1.290   .     A
C149   O158    1.290   .     A
C149   O159    1.290   .     A
C150   O161    1.290   .     A
C150   O164    1.290   .     A
C151   O162    1.290   .     A
C151   O163    1.290   .     A
C152   C820    1.417   1_554 S
C152   N154    1.371   .     S
N153   Zn173   2.010   .     S
N154   Zn174   2.010   .     S
N155   C294    1.371   1_545 A
N155   Zn175   2.010   .     S
N156   Zn176   2.010   .     S
N156   C295    1.371   1_545 S
O157   Zn173   1.999   .     S
O158   Zn176   1.999   .     S
O159   Zn175   1.999   .     S
O160   Zn352   1.999   .     S
O161   Zn352   1.999   .     S
O162   Zn175   1.999   .     S
O163   Zn176   1.999   .     S
O164   Zn351   1.999   .     S
O165   Zn86    1.999   1_655 S
O166   Zn85    1.999   1_655 S
O167   Zn174   1.999   .     S
O168   Zn86    1.999   1_655 S
O169   Zn173   1.999   .     S
O170   Zn174   1.999   .     S
O171   Zn85    1.999   1_655 S
O172   Zn351   1.999   .     S
Zn175  O340    1.999   1_545 S
Zn175  O348    1.999   1_545 S
Zn176  O337    1.999   1_545 S
Zn176  O336    1.999   1_545 S
Br177  C240    1.924   .     S
Br178  C210    1.939   .     S
Br179  C211    1.939   .     S
Br180  C213    1.939   .     S
Br181  C214    1.939   .     S
Br182  C215    1.939   .     S
Br183  C216    1.939   .     S
Br184  C217    1.939   .     S
Br185  C218    1.939   .     S
Br186  C219    1.939   .     S
Br187  C220    1.939   .     S
Br188  C202    1.924   .     S
Br189  C221    1.939   .     S
Br190  C222    1.939   .     S
Br191  C224    1.939   .     S
Br192  C225    1.939   .     S
Br193  C226    1.939   .     S
Br194  C203    1.924   .     S
Br195  C204    1.924   .     S
Br196  C205    1.924   .     S
Br197  C206    1.924   .     S
Br198  C207    1.924   .     S
Br199  C208    1.924   .     S
Br200  C209    1.939   .     S
C201   C230    1.444   .     S
C201   O245    1.290   .     A
C201   O255    1.290   .     A
C202   N241    1.371   .     A
C202   C555    1.417   .     S
C203   C906    1.417   1_554 S
C203   N242    1.371   .     S
C204   N241    1.371   .     A
C204   C592    1.417   .     S
C205   N244    1.371   .     A
C205   C912    1.417   1_554 S
C206   N67     1.371   1_565 A
C206   C559    1.417   .     S
C207   C910    1.417   1_554 S
C207   N68     1.371   1_565 S
C208   C557    1.417   .     S
C208   N243    1.371   .     S
C209   C228    1.408   .     A
C209   C220    1.380   .     A
C210   C227    1.408   .     A
C210   C221    1.380   .     A
C211   C218    1.380   .     A
C211   C227    1.408   .     A
C212   O253    1.290   .     A
C212   C229    1.444   .     S
C212   O254    1.290   .     A
C213   C228    1.408   .     A
C213   C219    1.380   .     A
C214   C225    1.380   .     A
C214   C230    1.408   .     A
C215   C229    1.408   .     A
C215   C226    1.380   .     A
C216   C222    1.380   .     A
C216   C229    1.408   .     A
C217   C224    1.380   .     A
C217   C230    1.408   .     A
C218   C232    1.408   .     A
C219   C231    1.408   .     A
C220   C231    1.408   .     A
C221   C232    1.408   .     A
C222   C235    1.408   .     A
C223   O259    1.290   .     A
C223   O256    1.290   .     A
C223   C228    1.444   .     S
C224   C233    1.408   .     A
C225   C233    1.408   .     A
C226   C235    1.408   .     A
C227   C234    1.444   .     S
C231   C239    1.444   .     S
C232   C238    1.444   .     S
C233   C237    1.444   .     S
C234   O258    1.290   .     A
C234   O257    1.290   .     A
C235   C236    1.444   .     S
C236   O248    1.290   .     A
C236   O260    1.290   .     A
C237   O246    1.290   .     A
C237   O247    1.290   .     A
C238   O249    1.290   .     A
C238   O252    1.290   .     A
C239   O250    1.290   .     A
C239   O251    1.290   .     A
C240   C908    1.417   1_554 S
C240   N242    1.371   .     S
N241   Zn261   2.010   .     S
N242   Zn262   2.010   .     S
N243   Zn263   2.010   .     S
N244   Zn264   2.010   .     S
O245   Zn261   1.999   .     S
O246   Zn264   1.999   .     S
O247   Zn263   1.999   .     S
O248   Zn88    1.999   1_565 S
O249   Zn88    1.999   1_565 S
O250   Zn263   1.999   .     S
O251   Zn264   1.999   .     S
O252   Zn87    1.999   1_565 S
O253   Zn350   1.999   .     S
O254   Zn349   1.999   .     S
O255   Zn262   1.999   .     S
O256   Zn350   1.999   .     S
O257   Zn261   1.999   .     S
O258   Zn262   1.999   .     S
O259   Zn349   1.999   .     S
O260   Zn87    1.999   1_565 S
Zn261  O342    1.999   1_455 S
Zn261  O347    1.999   1_455 S
Zn262  O344    1.999   1_455 S
Zn262  O341    1.999   1_455 S
Br265  C328    1.924   .     S
Br266  C298    1.939   .     S
Br267  C299    1.939   .     S
Br268  C301    1.939   .     S
Br269  C302    1.939   .     S
Br270  C303    1.939   .     S
Br271  C304    1.939   .     S
Br272  C305    1.939   .     S
Br273  C306    1.939   .     S
Br274  C307    1.939   .     S
Br275  C308    1.939   .     S
Br276  C290    1.924   .     S
Br277  C309    1.939   .     S
Br278  C310    1.939   .     S
Br279  C312    1.939   .     S
Br280  C313    1.939   .     S
Br281  C314    1.939   .     S
Br282  C291    1.924   .     S
Br283  C292    1.924   .     S
Br284  C293    1.924   .     S
Br285  C294    1.924   .     S
Br286  C295    1.924   .     S
Br287  C296    1.924   .     S
Br288  C297    1.939   .     S
C289   C318    1.444   .     S
C289   O333    1.290   .     A
C289   O343    1.290   .     A
C290   N329    1.371   .     A
C290   C643    1.417   .     S
C291   C994    1.417   1_554 S
C291   N330    1.371   .     S
C292   N329    1.371   .     A
C292   C680    1.417   .     S
C293   N332    1.371   .     A
C293   C1000   1.417   1_554 S
C294   N155    1.371   1_565 A
C294   C647    1.417   .     S
C295   C998    1.417   1_554 S
C295   N156    1.371   1_565 S
C296   C645    1.417   .     S
C296   N331    1.371   .     S
C297   C316    1.408   .     A
C297   C308    1.380   .     A
C298   C315    1.408   .     A
C298   C309    1.380   .     A
C299   C306    1.380   .     A
C299   C315    1.408   .     A
C300   O341    1.290   .     A
C300   C317    1.444   .     S
C300   O342    1.290   .     A
C301   C316    1.408   .     A
C301   C307    1.380   .     A
C302   C313    1.380   .     A
C302   C318    1.408   .     A
C303   C317    1.408   .     A
C303   C314    1.380   .     A
C304   C310    1.380   .     A
C304   C317    1.408   .     A
C305   C312    1.380   .     A
C305   C318    1.408   .     A
C306   C320    1.408   .     A
C307   C319    1.408   .     A
C308   C319    1.408   .     A
C309   C320    1.408   .     A
C310   C323    1.408   .     A
C311   O347    1.290   .     A
C311   O344    1.290   .     A
C311   C316    1.444   .     S
C312   C321    1.408   .     A
C313   C321    1.408   .     A
C314   C323    1.408   .     A
C315   C322    1.444   .     S
C319   C327    1.444   .     S
C320   C326    1.444   .     S
C321   C325    1.444   .     S
C322   O346    1.290   .     A
C322   O345    1.290   .     A
C323   C324    1.444   .     S
C324   O336    1.290   .     A
C324   O348    1.290   .     A
C325   O334    1.290   .     A
C325   O335    1.290   .     A
C326   O337    1.290   .     A
C326   O340    1.290   .     A
C327   O338    1.290   .     A
C327   O339    1.290   .     A
C328   C996    1.417   1_554 S
C328   N330    1.371   .     S
N329   Zn349   2.010   .     S
N330   Zn350   2.010   .     S
N331   Zn351   2.010   .     S
N332   Zn352   2.010   .     S
O333   Zn349   1.999   .     S
O334   Zn352   1.999   .     S
O335   Zn351   1.999   .     S
O336   Zn176   1.999   1_565 S
O337   Zn176   1.999   1_565 S
O338   Zn351   1.999   .     S
O339   Zn352   1.999   .     S
O340   Zn175   1.999   1_565 S
O341   Zn262   1.999   1_655 S
O342   Zn261   1.999   1_655 S
O343   Zn350   1.999   .     S
O344   Zn262   1.999   1_655 S
O345   Zn349   1.999   .     S
O346   Zn350   1.999   .     S
O347   Zn261   1.999   1_655 S
O348   Zn175   1.999   1_565 S
Br353  C416    1.924   .     S
Br354  C386    1.939   .     S
Br355  C387    1.939   .     S
Br356  C389    1.939   .     S
Br357  C390    1.939   .     S
Br358  C391    1.939   .     S
Br359  C392    1.939   .     S
Br360  C393    1.939   .     S
Br361  C394    1.939   .     S
Br362  C395    1.939   .     S
Br363  C396    1.939   .     S
Br364  C378    1.924   .     S
Br365  C397    1.939   .     S
Br366  C398    1.939   .     S
Br367  C400    1.939   .     S
Br368  C401    1.939   .     S
Br369  C402    1.939   .     S
Br370  C379    1.924   .     S
Br371  C380    1.924   .     S
Br372  C381    1.924   .     S
Br373  C382    1.924   .     S
Br374  C383    1.924   .     S
Br375  C384    1.924   .     S
Br376  C385    1.939   .     S
C377   C406    1.444   .     S
C377   O421    1.290   .     A
C377   O431    1.290   .     A
C378   N417    1.371   .     A
C378   C731    1.417   .     S
C379   N418    1.371   .     S
C380   N417    1.371   .     A
C380   C768    1.417   .     S
C381   N420    1.371   .     A
C382   N595    1.371   .     A
C382   C735    1.417   .     S
C383   N596    1.371   .     S
C384   C733    1.417   .     S
C384   N419    1.371   .     S
C385   C404    1.408   .     A
C385   C396    1.380   .     A
C386   C403    1.408   .     A
C386   C397    1.380   .     A
C387   C394    1.380   .     A
C387   C403    1.408   .     A
C388   O429    1.290   .     A
C388   C405    1.444   .     S
C388   O430    1.290   .     A
C389   C404    1.408   .     A
C389   C395    1.380   .     A
C390   C401    1.380   .     A
C390   C406    1.408   .     A
C391   C405    1.408   .     A
C391   C402    1.380   .     A
C392   C398    1.380   .     A
C392   C405    1.408   .     A
C393   C400    1.380   .     A
C393   C406    1.408   .     A
C394   C408    1.408   .     A
C395   C407    1.408   .     A
C396   C407    1.408   .     A
C397   C408    1.408   .     A
C398   C411    1.408   .     A
C399   O435    1.290   .     A
C399   O432    1.290   .     A
C399   C404    1.444   .     S
C400   C409    1.408   .     A
C401   C409    1.408   .     A
C402   C411    1.408   .     A
C403   C410    1.444   .     S
C407   C415    1.444   .     S
C408   C414    1.444   .     S
C409   C413    1.444   .     S
C410   O434    1.290   .     A
C410   O433    1.290   .     A
C411   C412    1.444   .     S
C412   O424    1.290   .     A
C412   O436    1.290   .     A
C413   O422    1.290   .     A
C413   O423    1.290   .     A
C414   O425    1.290   .     A
C414   O428    1.290   .     A
C415   O426    1.290   .     A
C415   O427    1.290   .     A
C416   N418    1.371   .     S
N417   Zn437   2.010   .     S
N418   Zn438   2.010   .     S
N419   C558    1.371   1_545 A
N419   Zn439   2.010   .     S
N420   Zn440   2.010   .     S
N420   C559    1.371   1_545 S
O421   Zn437   1.999   .     S
O422   Zn440   1.999   .     S
O423   Zn439   1.999   .     S
O424   Zn616   1.999   .     S
O425   Zn616   1.999   .     S
O426   Zn439   1.999   .     S
O427   Zn440   1.999   .     S
O428   Zn615   1.999   .     S
O429   Zn526   1.999   .     S
O430   Zn525   1.999   .     S
O431   Zn438   1.999   .     S
O432   Zn526   1.999   .     S
O433   Zn437   1.999   .     S
O434   Zn438   1.999   .     S
O435   Zn525   1.999   .     S
O436   Zn615   1.999   .     S
Zn437  O518    1.999   1_455 S
Zn437  O523    1.999   1_455 S
Zn438  O520    1.999   1_455 S
Zn438  O517    1.999   1_455 S
Zn439  O604    1.999   1_545 S
Zn439  O612    1.999   1_545 S
Zn440  O601    1.999   1_545 S
Zn440  O600    1.999   1_545 S
Br441  C504    1.924   .     S
Br442  C474    1.939   .     S
Br443  C475    1.939   .     S
Br444  C477    1.939   .     S
Br445  C478    1.939   .     S
Br446  C479    1.939   .     S
Br447  C480    1.939   .     S
Br448  C481    1.939   .     S
Br449  C482    1.939   .     S
Br450  C483    1.939   .     S
Br451  C484    1.939   .     S
Br452  C466    1.924   .     S
Br453  C485    1.939   .     S
Br454  C486    1.939   .     S
Br455  C488    1.939   .     S
Br456  C489    1.939   .     S
Br457  C490    1.939   .     S
Br458  C467    1.924   .     S
Br459  C468    1.924   .     S
Br460  C469    1.924   .     S
Br461  C470    1.924   .     S
Br462  C471    1.924   .     S
Br463  C472    1.924   .     S
Br464  C473    1.939   .     S
C465   C494    1.444   .     S
C465   O509    1.290   .     A
C465   O519    1.290   .     A
C466   N505    1.371   .     A
C466   C819    1.417   .     S
C467   N506    1.371   .     S
C468   N505    1.371   .     A
C468   C856    1.417   .     S
C469   N508    1.371   .     A
C470   N683    1.371   .     A
C470   C823    1.417   .     S
C471   N684    1.371   .     S
C472   C821    1.417   .     S
C472   N507    1.371   .     S
C473   C492    1.408   .     A
C473   C484    1.380   .     A
C474   C491    1.408   .     A
C474   C485    1.380   .     A
C475   C482    1.380   .     A
C475   C491    1.408   .     A
C476   O517    1.290   .     A
C476   C493    1.444   .     S
C476   O518    1.290   .     A
C477   C492    1.408   .     A
C477   C483    1.380   .     A
C478   C489    1.380   .     A
C478   C494    1.408   .     A
C479   C493    1.408   .     A
C479   C490    1.380   .     A
C480   C486    1.380   .     A
C480   C493    1.408   .     A
C481   C488    1.380   .     A
C481   C494    1.408   .     A
C482   C496    1.408   .     A
C483   C495    1.408   .     A
C484   C495    1.408   .     A
C485   C496    1.408   .     A
C486   C499    1.408   .     A
C487   O523    1.290   .     A
C487   O520    1.290   .     A
C487   C492    1.444   .     S
C488   C497    1.408   .     A
C489   C497    1.408   .     A
C490   C499    1.408   .     A
C491   C498    1.444   .     S
C495   C503    1.444   .     S
C496   C502    1.444   .     S
C497   C501    1.444   .     S
C498   O522    1.290   .     A
C498   O521    1.290   .     A
C499   C500    1.444   .     S
C500   O512    1.290   .     A
C500   O524    1.290   .     A
C501   O510    1.290   .     A
C501   O511    1.290   .     A
C502   O513    1.290   .     A
C502   O516    1.290   .     A
C503   O514    1.290   .     A
C503   O515    1.290   .     A
C504   N506    1.371   .     S
N505   Zn525   2.010   .     S
N506   Zn526   2.010   .     S
N507   C646    1.371   1_545 A
N507   Zn527   2.010   .     S
N508   Zn528   2.010   .     S
N508   C647    1.371   1_545 S
O509   Zn525   1.999   .     S
O510   Zn528   1.999   .     S
O511   Zn527   1.999   .     S
O512   Zn704   1.999   .     S
O513   Zn704   1.999   .     S
O514   Zn527   1.999   .     S
O515   Zn528   1.999   .     S
O516   Zn703   1.999   .     S
O517   Zn438   1.999   1_655 S
O518   Zn437   1.999   1_655 S
O519   Zn526   1.999   .     S
O520   Zn438   1.999   1_655 S
O521   Zn525   1.999   .     S
O522   Zn526   1.999   .     S
O523   Zn437   1.999   1_655 S
O524   Zn703   1.999   .     S
Zn527  O692    1.999   1_545 S
Zn527  O700    1.999   1_545 S
Zn528  O689    1.999   1_545 S
Zn528  O688    1.999   1_545 S
Br529  C592    1.924   .     S
Br530  C562    1.939   .     S
Br531  C563    1.939   .     S
Br532  C565    1.939   .     S
Br533  C566    1.939   .     S
Br534  C567    1.939   .     S
Br535  C568    1.939   .     S
Br536  C569    1.939   .     S
Br537  C570    1.939   .     S
Br538  C571    1.939   .     S
Br539  C572    1.939   .     S
Br540  C554    1.924   .     S
Br541  C573    1.939   .     S
Br542  C574    1.939   .     S
Br543  C576    1.939   .     S
Br544  C577    1.939   .     S
Br545  C578    1.939   .     S
Br546  C555    1.924   .     S
Br547  C556    1.924   .     S
Br548  C557    1.924   .     S
Br549  C558    1.924   .     S
Br550  C559    1.924   .     S
Br551  C560    1.924   .     S
Br552  C561    1.939   .     S
C553   C582    1.444   .     S
C553   O597    1.290   .     A
C553   O607    1.290   .     A
C554   N593    1.371   .     A
C554   C907    1.417   .     S
C555   N594    1.371   .     S
C556   N593    1.371   .     A
C556   C944    1.417   .     S
C557   N596    1.371   .     A
C558   N419    1.371   1_565 A
C558   C911    1.417   .     S
C559   N420    1.371   1_565 S
C560   C909    1.417   .     S
C560   N595    1.371   .     S
C561   C580    1.408   .     A
C561   C572    1.380   .     A
C562   C579    1.408   .     A
C562   C573    1.380   .     A
C563   C570    1.380   .     A
C563   C579    1.408   .     A
C564   O605    1.290   .     A
C564   C581    1.444   .     S
C564   O606    1.290   .     A
C565   C580    1.408   .     A
C565   C571    1.380   .     A
C566   C577    1.380   .     A
C566   C582    1.408   .     A
C567   C581    1.408   .     A
C567   C578    1.380   .     A
C568   C574    1.380   .     A
C568   C581    1.408   .     A
C569   C576    1.380   .     A
C569   C582    1.408   .     A
C570   C584    1.408   .     A
C571   C583    1.408   .     A
C572   C583    1.408   .     A
C573   C584    1.408   .     A
C574   C587    1.408   .     A
C575   O611    1.290   .     A
C575   O608    1.290   .     A
C575   C580    1.444   .     S
C576   C585    1.408   .     A
C577   C585    1.408   .     A
C578   C587    1.408   .     A
C579   C586    1.444   .     S
C583   C591    1.444   .     S
C584   C590    1.444   .     S
C585   C589    1.444   .     S
C586   O610    1.290   .     A
C586   O609    1.290   .     A
C587   C588    1.444   .     S
C588   O600    1.290   .     A
C588   O612    1.290   .     A
C589   O598    1.290   .     A
C589   O599    1.290   .     A
C590   O601    1.290   .     A
C590   O604    1.290   .     A
C591   O602    1.290   .     A
C591   O603    1.290   .     A
C592   N594    1.371   .     S
N593   Zn613   2.010   .     S
N594   Zn614   2.010   .     S
N595   Zn615   2.010   .     S
N596   Zn616   2.010   .     S
O597   Zn613   1.999   .     S
O598   Zn616   1.999   .     S
O599   Zn615   1.999   .     S
O600   Zn440   1.999   1_565 S
O601   Zn440   1.999   1_565 S
O602   Zn615   1.999   .     S
O603   Zn616   1.999   .     S
O604   Zn439   1.999   1_565 S
O605   Zn702   1.999   .     S
O606   Zn701   1.999   .     S
O607   Zn614   1.999   .     S
O608   Zn702   1.999   .     S
O609   Zn613   1.999   .     S
O610   Zn614   1.999   .     S
O611   Zn701   1.999   .     S
O612   Zn439   1.999   1_565 S
Zn613  O694    1.999   1_455 S
Zn613  O699    1.999   1_455 S
Zn614  O696    1.999   1_455 S
Zn614  O693    1.999   1_455 S
Br617  C680    1.924   .     S
Br618  C650    1.939   .     S
Br619  C651    1.939   .     S
Br620  C653    1.939   .     S
Br621  C654    1.939   .     S
Br622  C655    1.939   .     S
Br623  C656    1.939   .     S
Br624  C657    1.939   .     S
Br625  C658    1.939   .     S
Br626  C659    1.939   .     S
Br627  C660    1.939   .     S
Br628  C642    1.924   .     S
Br629  C661    1.939   .     S
Br630  C662    1.939   .     S
Br631  C664    1.939   .     S
Br632  C665    1.939   .     S
Br633  C666    1.939   .     S
Br634  C643    1.924   .     S
Br635  C644    1.924   .     S
Br636  C645    1.924   .     S
Br637  C646    1.924   .     S
Br638  C647    1.924   .     S
Br639  C648    1.924   .     S
Br640  C649    1.939   .     S
C641   C670    1.444   .     S
C641   O685    1.290   .     A
C641   O695    1.290   .     A
C642   N681    1.371   .     A
C642   C995    1.417   .     S
C643   N682    1.371   .     S
C644   N681    1.371   .     A
C644   C1032   1.417   .     S
C645   N684    1.371   .     A
C646   N507    1.371   1_565 A
C646   C999    1.417   .     S
C647   N508    1.371   1_565 S
C648   C997    1.417   .     S
C648   N683    1.371   .     S
C649   C668    1.408   .     A
C649   C660    1.380   .     A
C650   C667    1.408   .     A
C650   C661    1.380   .     A
C651   C658    1.380   .     A
C651   C667    1.408   .     A
C652   O693    1.290   .     A
C652   C669    1.444   .     S
C652   O694    1.290   .     A
C653   C668    1.408   .     A
C653   C659    1.380   .     A
C654   C665    1.380   .     A
C654   C670    1.408   .     A
C655   C669    1.408   .     A
C655   C666    1.380   .     A
C656   C662    1.380   .     A
C656   C669    1.408   .     A
C657   C664    1.380   .     A
C657   C670    1.408   .     A
C658   C672    1.408   .     A
C659   C671    1.408   .     A
C660   C671    1.408   .     A
C661   C672    1.408   .     A
C662   C675    1.408   .     A
C663   O699    1.290   .     A
C663   O696    1.290   .     A
C663   C668    1.444   .     S
C664   C673    1.408   .     A
C665   C673    1.408   .     A
C666   C675    1.408   .     A
C667   C674    1.444   .     S
C671   C679    1.444   .     S
C672   C678    1.444   .     S
C673   C677    1.444   .     S
C674   O698    1.290   .     A
C674   O697    1.290   .     A
C675   C676    1.444   .     S
C676   O688    1.290   .     A
C676   O700    1.290   .     A
C677   O686    1.290   .     A
C677   O687    1.290   .     A
C678   O689    1.290   .     A
C678   O692    1.290   .     A
C679   O690    1.290   .     A
C679   O691    1.290   .     A
C680   N682    1.371   .     S
N681   Zn701   2.010   .     S
N682   Zn702   2.010   .     S
N683   Zn703   2.010   .     S
N684   Zn704   2.010   .     S
O685   Zn701   1.999   .     S
O686   Zn704   1.999   .     S
O687   Zn703   1.999   .     S
O688   Zn528   1.999   1_565 S
O689   Zn528   1.999   1_565 S
O690   Zn703   1.999   .     S
O691   Zn704   1.999   .     S
O692   Zn527   1.999   1_565 S
O693   Zn614   1.999   1_655 S
O694   Zn613   1.999   1_655 S
O695   Zn702   1.999   .     S
O696   Zn614   1.999   1_655 S
O697   Zn701   1.999   .     S
O698   Zn702   1.999   .     S
O699   Zn613   1.999   1_655 S
O700   Zn527   1.999   1_565 S
Br705  C768    1.924   .     S
Br706  C738    1.939   .     S
Br707  C739    1.939   .     S
Br708  C741    1.939   .     S
Br709  C742    1.939   .     S
Br710  C743    1.939   .     S
Br711  C744    1.939   .     S
Br712  C745    1.939   .     S
Br713  C746    1.939   .     S
Br714  C747    1.939   .     S
Br715  C748    1.939   .     S
Br716  C730    1.924   .     S
Br717  C749    1.939   .     S
Br718  C750    1.939   .     S
Br719  C752    1.939   .     S
Br720  C753    1.939   .     S
Br721  C754    1.939   .     S
Br722  C731    1.924   .     S
Br723  C732    1.924   .     S
Br724  C733    1.924   .     S
Br725  C734    1.924   .     S
Br726  C735    1.924   .     S
Br727  C736    1.924   .     S
Br728  C737    1.939   .     S
C729   C758    1.444   .     S
C729   O773    1.290   .     A
C729   O783    1.290   .     A
C730   N769    1.371   .     A
C730   C27     1.417   1_556 S
C731   N770    1.371   .     S
C732   N769    1.371   .     A
C732   C64     1.417   1_556 S
C733   N772    1.371   .     A
C734   N947    1.371   .     A
C734   C31     1.417   1_556 S
C735   N948    1.371   .     S
C736   C29     1.417   1_556 S
C736   N771    1.371   .     S
C737   C756    1.408   .     A
C737   C748    1.380   .     A
C738   C755    1.408   .     A
C738   C749    1.380   .     A
C739   C746    1.380   .     A
C739   C755    1.408   .     A
C740   O781    1.290   .     A
C740   C757    1.444   .     S
C740   O782    1.290   .     A
C741   C756    1.408   .     A
C741   C747    1.380   .     A
C742   C753    1.380   .     A
C742   C758    1.408   .     A
C743   C757    1.408   .     A
C743   C754    1.380   .     A
C744   C750    1.380   .     A
C744   C757    1.408   .     A
C745   C752    1.380   .     A
C745   C758    1.408   .     A
C746   C760    1.408   .     A
C747   C759    1.408   .     A
C748   C759    1.408   .     A
C749   C760    1.408   .     A
C750   C763    1.408   .     A
C751   O787    1.290   .     A
C751   O784    1.290   .     A
C751   C756    1.444   .     S
C752   C761    1.408   .     A
C753   C761    1.408   .     A
C754   C763    1.408   .     A
C755   C762    1.444   .     S
C759   C767    1.444   .     S
C760   C766    1.444   .     S
C761   C765    1.444   .     S
C762   O786    1.290   .     A
C762   O785    1.290   .     A
C763   C764    1.444   .     S
C764   O776    1.290   .     A
C764   O788    1.290   .     A
C765   O774    1.290   .     A
C765   O775    1.290   .     A
C766   O777    1.290   .     A
C766   O780    1.290   .     A
C767   O778    1.290   .     A
C767   O779    1.290   .     A
C768   N770    1.371   .     S
N769   Zn789   2.010   .     S
N770   Zn790   2.010   .     S
N771   C910    1.371   1_545 A
N771   Zn791   2.010   .     S
N772   Zn792   2.010   .     S
N772   C911    1.371   1_545 S
O773   Zn789   1.999   .     S
O774   Zn792   1.999   .     S
O775   Zn791   1.999   .     S
O776   Zn968   1.999   .     S
O777   Zn968   1.999   .     S
O778   Zn791   1.999   .     S
O779   Zn792   1.999   .     S
O780   Zn967   1.999   .     S
O781   Zn878   1.999   .     S
O782   Zn877   1.999   .     S
O783   Zn790   1.999   .     S
O784   Zn878   1.999   .     S
O785   Zn789   1.999   .     S
O786   Zn790   1.999   .     S
O787   Zn877   1.999   .     S
O788   Zn967   1.999   .     S
Zn789  O870    1.999   1_455 S
Zn789  O875    1.999   1_455 S
Zn790  O872    1.999   1_455 S
Zn790  O869    1.999   1_455 S
Zn791  O956    1.999   1_545 S
Zn791  O964    1.999   1_545 S
Zn792  O953    1.999   1_545 S
Zn792  O952    1.999   1_545 S
Br793  C856    1.924   .     S
Br794  C826    1.939   .     S
Br795  C827    1.939   .     S
Br796  C829    1.939   .     S
Br797  C830    1.939   .     S
Br798  C831    1.939   .     S
Br799  C832    1.939   .     S
Br800  C833    1.939   .     S
Br801  C834    1.939   .     S
Br802  C835    1.939   .     S
Br803  C836    1.939   .     S
Br804  C818    1.924   .     S
Br805  C837    1.939   .     S
Br806  C838    1.939   .     S
Br807  C840    1.939   .     S
Br808  C841    1.939   .     S
Br809  C842    1.939   .     S
Br810  C819    1.924   .     S
Br811  C820    1.924   .     S
Br812  C821    1.924   .     S
Br813  C822    1.924   .     S
Br814  C823    1.924   .     S
Br815  C824    1.924   .     S
Br816  C825    1.939   .     S
C817   C846    1.444   .     S
C817   O861    1.290   .     A
C817   O871    1.290   .     A
C818   N857    1.371   .     A
C818   C115    1.417   1_556 S
C819   N858    1.371   .     S
C820   N857    1.371   .     A
C820   C152    1.417   1_556 S
C821   N860    1.371   .     A
C822   N1035   1.371   .     A
C822   C119    1.417   1_556 S
C823   N1036   1.371   .     S
C824   C117    1.417   1_556 S
C824   N859    1.371   .     S
C825   C844    1.408   .     A
C825   C836    1.380   .     A
C826   C843    1.408   .     A
C826   C837    1.380   .     A
C827   C834    1.380   .     A
C827   C843    1.408   .     A
C828   O869    1.290   .     A
C828   C845    1.444   .     S
C828   O870    1.290   .     A
C829   C844    1.408   .     A
C829   C835    1.380   .     A
C830   C841    1.380   .     A
C830   C846    1.408   .     A
C831   C845    1.408   .     A
C831   C842    1.380   .     A
C832   C838    1.380   .     A
C832   C845    1.408   .     A
C833   C840    1.380   .     A
C833   C846    1.408   .     A
C834   C848    1.408   .     A
C835   C847    1.408   .     A
C836   C847    1.408   .     A
C837   C848    1.408   .     A
C838   C851    1.408   .     A
C839   O875    1.290   .     A
C839   O872    1.290   .     A
C839   C844    1.444   .     S
C840   C849    1.408   .     A
C841   C849    1.408   .     A
C842   C851    1.408   .     A
C843   C850    1.444   .     S
C847   C855    1.444   .     S
C848   C854    1.444   .     S
C849   C853    1.444   .     S
C850   O874    1.290   .     A
C850   O873    1.290   .     A
C851   C852    1.444   .     S
C852   O864    1.290   .     A
C852   O876    1.290   .     A
C853   O862    1.290   .     A
C853   O863    1.290   .     A
C854   O865    1.290   .     A
C854   O868    1.290   .     A
C855   O866    1.290   .     A
C855   O867    1.290   .     A
C856   N858    1.371   .     S
N857   Zn877   2.010   .     S
N858   Zn878   2.010   .     S
N859   C998    1.371   1_545 A
N859   Zn879   2.010   .     S
N860   Zn880   2.010   .     S
N860   C999    1.371   1_545 S
O861   Zn877   1.999   .     S
O862   Zn880   1.999   .     S
O863   Zn879   1.999   .     S
O864   Zn1056  1.999   .     S
O865   Zn1056  1.999   .     S
O866   Zn879   1.999   .     S
O867   Zn880   1.999   .     S
O868   Zn1055  1.999   .     S
O869   Zn790   1.999   1_655 S
O870   Zn789   1.999   1_655 S
O871   Zn878   1.999   .     S
O872   Zn790   1.999   1_655 S
O873   Zn877   1.999   .     S
O874   Zn878   1.999   .     S
O875   Zn789   1.999   1_655 S
O876   Zn1055  1.999   .     S
Zn879  O1044   1.999   1_545 S
Zn879  O1052   1.999   1_545 S
Zn880  O1041   1.999   1_545 S
Zn880  O1040   1.999   1_545 S
Br881  C944    1.924   .     S
Br882  C914    1.939   .     S
Br883  C915    1.939   .     S
Br884  C917    1.939   .     S
Br885  C918    1.939   .     S
Br886  C919    1.939   .     S
Br887  C920    1.939   .     S
Br888  C921    1.939   .     S
Br889  C922    1.939   .     S
Br890  C923    1.939   .     S
Br891  C924    1.939   .     S
Br892  C906    1.924   .     S
Br893  C925    1.939   .     S
Br894  C926    1.939   .     S
Br895  C928    1.939   .     S
Br896  C929    1.939   .     S
Br897  C930    1.939   .     S
Br898  C907    1.924   .     S
Br899  C908    1.924   .     S
Br900  C909    1.924   .     S
Br901  C910    1.924   .     S
Br902  C911    1.924   .     S
Br903  C912    1.924   .     S
Br904  C913    1.939   .     S
C905   C934    1.444   .     S
C905   O949    1.290   .     A
C905   O959    1.290   .     A
C906   N945    1.371   .     A
C906   C203    1.417   1_556 S
C907   N946    1.371   .     S
C908   N945    1.371   .     A
C908   C240    1.417   1_556 S
C909   N948    1.371   .     A
C910   N771    1.371   1_565 A
C910   C207    1.417   1_556 S
C911   N772    1.371   1_565 S
C912   C205    1.417   1_556 S
C912   N947    1.371   .     S
C913   C932    1.408   .     A
C913   C924    1.380   .     A
C914   C931    1.408   .     A
C914   C925    1.380   .     A
C915   C922    1.380   .     A
C915   C931    1.408   .     A
C916   O957    1.290   .     A
C916   C933    1.444   .     S
C916   O958    1.290   .     A
C917   C932    1.408   .     A
C917   C923    1.380   .     A
C918   C929    1.380   .     A
C918   C934    1.408   .     A
C919   C933    1.408   .     A
C919   C930    1.380   .     A
C920   C926    1.380   .     A
C920   C933    1.408   .     A
C921   C928    1.380   .     A
C921   C934    1.408   .     A
C922   C936    1.408   .     A
C923   C935    1.408   .     A
C924   C935    1.408   .     A
C925   C936    1.408   .     A
C926   C939    1.408   .     A
C927   O963    1.290   .     A
C927   O960    1.290   .     A
C927   C932    1.444   .     S
C928   C937    1.408   .     A
C929   C937    1.408   .     A
C930   C939    1.408   .     A
C931   C938    1.444   .     S
C935   C943    1.444   .     S
C936   C942    1.444   .     S
C937   C941    1.444   .     S
C938   O962    1.290   .     A
C938   O961    1.290   .     A
C939   C940    1.444   .     S
C940   O952    1.290   .     A
C940   O964    1.290   .     A
C941   O950    1.290   .     A
C941   O951    1.290   .     A
C942   O953    1.290   .     A
C942   O956    1.290   .     A
C943   O954    1.290   .     A
C943   O955    1.290   .     A
C944   N946    1.371   .     S
N945   Zn965   2.010   .     S
N946   Zn966   2.010   .     S
N947   Zn967   2.010   .     S
N948   Zn968   2.010   .     S
O949   Zn965   1.999   .     S
O950   Zn968   1.999   .     S
O951   Zn967   1.999   .     S
O952   Zn792   1.999   1_565 S
O953   Zn792   1.999   1_565 S
O954   Zn967   1.999   .     S
O955   Zn968   1.999   .     S
O956   Zn791   1.999   1_565 S
O957   Zn1054  1.999   .     S
O958   Zn1053  1.999   .     S
O959   Zn966   1.999   .     S
O960   Zn1054  1.999   .     S
O961   Zn965   1.999   .     S
O962   Zn966   1.999   .     S
O963   Zn1053  1.999   .     S
O964   Zn791   1.999   1_565 S
Zn965  O1046   1.999   1_455 S
Zn965  O1051   1.999   1_455 S
Zn966  O1048   1.999   1_455 S
Zn966  O1045   1.999   1_455 S
Br969  C1032   1.924   .     S
Br970  C1002   1.939   .     S
Br971  C1003   1.939   .     S
Br972  C1005   1.939   .     S
Br973  C1006   1.939   .     S
Br974  C1007   1.939   .     S
Br975  C1008   1.939   .     S
Br976  C1009   1.939   .     S
Br977  C1010   1.939   .     S
Br978  C1011   1.939   .     S
Br979  C1012   1.939   .     S
Br980  C994    1.924   .     S
Br981  C1013   1.939   .     S
Br982  C1014   1.939   .     S
Br983  C1016   1.939   .     S
Br984  C1017   1.939   .     S
Br985  C1018   1.939   .     S
Br986  C995    1.924   .     S
Br987  C996    1.924   .     S
Br988  C997    1.924   .     S
Br989  C998    1.924   .     S
Br990  C999    1.924   .     S
Br991  C1000   1.924   .     S
Br992  C1001   1.939   .     S
C993   C1022   1.444   .     S
C993   O1037   1.290   .     A
C993   O1047   1.290   .     A
C994   N1033   1.371   .     A
C994   C291    1.417   1_556 S
C995   N1034   1.371   .     S
C996   N1033   1.371   .     A
C996   C328    1.417   1_556 S
C997   N1036   1.371   .     A
C998   N859    1.371   1_565 A
C998   C295    1.417   1_556 S
C999   N860    1.371   1_565 S
C1000  C293    1.417   1_556 S
C1000  N1035   1.371   .     S
C1001  C1020   1.408   .     A
C1001  C1012   1.380   .     A
C1002  C1019   1.408   .     A
C1002  C1013   1.380   .     A
C1003  C1010   1.380   .     A
C1003  C1019   1.408   .     A
C1004  O1045   1.290   .     A
C1004  C1021   1.444   .     S
C1004  O1046   1.290   .     A
C1005  C1020   1.408   .     A
C1005  C1011   1.380   .     A
C1006  C1017   1.380   .     A
C1006  C1022   1.408   .     A
C1007  C1021   1.408   .     A
C1007  C1018   1.380   .     A
C1008  C1014   1.380   .     A
C1008  C1021   1.408   .     A
C1009  C1016   1.380   .     A
C1009  C1022   1.408   .     A
C1010  C1024   1.408   .     A
C1011  C1023   1.408   .     A
C1012  C1023   1.408   .     A
C1013  C1024   1.408   .     A
C1014  C1027   1.408   .     A
C1015  O1051   1.290   .     A
C1015  O1048   1.290   .     A
C1015  C1020   1.444   .     S
C1016  C1025   1.408   .     A
C1017  C1025   1.408   .     A
C1018  C1027   1.408   .     A
C1019  C1026   1.444   .     S
C1023  C1031   1.444   .     S
C1024  C1030   1.444   .     S
C1025  C1029   1.444   .     S
C1026  O1050   1.290   .     A
C1026  O1049   1.290   .     A
C1027  C1028   1.444   .     S
C1028  O1040   1.290   .     A
C1028  O1052   1.290   .     A
C1029  O1038   1.290   .     A
C1029  O1039   1.290   .     A
C1030  O1041   1.290   .     A
C1030  O1044   1.290   .     A
C1031  O1042   1.290   .     A
C1031  O1043   1.290   .     A
C1032  N1034   1.371   .     S
N1033  Zn1053  2.010   .     S
N1034  Zn1054  2.010   .     S
N1035  Zn1055  2.010   .     S
N1036  Zn1056  2.010   .     S
O1037  Zn1053  1.999   .     S
O1038  Zn1056  1.999   .     S
O1039  Zn1055  1.999   .     S
O1040  Zn880   1.999   1_565 S
O1041  Zn880   1.999   1_565 S
O1042  Zn1055  1.999   .     S
O1043  Zn1056  1.999   .     S
O1044  Zn879   1.999   1_565 S
O1045  Zn966   1.999   1_655 S
O1046  Zn965   1.999   1_655 S
O1047  Zn1054  1.999   .     S
O1048  Zn966   1.999   1_655 S
O1049  Zn1053  1.999   .     S
O1050  Zn1054  1.999   .     S
O1051  Zn965   1.999   1_655 S
O1052  Zn879   1.999   1_565 S
